MODEL 1
REMARK VINA RESULT:      -9.0      0.000      0.000
REMARK  8 active torsions:
REMARK  status: ('A' for Active; 'I' for Inactive)
REMARK    1  A    between atoms: C2_2  and  C3_3 
REMARK    2  A    between atoms: C4_4  and  C5_5 
REMARK    3  A    between atoms: C4_4  and  N4_19 
REMARK    4  A    between atoms: C9_11  and  N3_12 
REMARK    5  A    between atoms: N3_12  and  C10_13 
REMARK       I    between atoms: N4_19  and  C15_20 
REMARK    6  A    between atoms: C15_20  and  C16_22 
REMARK    7  A    between atoms: C16_22  and  O2_23 
REMARK    8  A    between atoms: O2_23  and  C17_24 
ROOT
HETATM    1  C3  UNL     1      21.350   0.607  51.578  1.00  0.00     0.002 C 
HETATM    2  C4  UNL     1      22.577   1.048  51.702  1.00  0.00     0.031 C 
ENDROOT
BRANCH   2   3
HETATM    3  C5  UNL     1      23.668   0.411  52.428  1.00  0.00     0.042 C 
HETATM    4  C6  UNL     1      23.700  -0.226  53.551  1.00  0.00     0.010 A 
HETATM    5  C7  UNL     1      22.535  -0.464  54.403  1.00  0.00     0.192 A 
HETATM    6  C9  UNL     1      25.049  -0.689  53.941  1.00  0.00     0.137 A 
HETATM    7  N1  UNL     1      22.906  -1.141  55.599  1.00  0.00    -0.278 NA
HETATM    8  C8  UNL     1      24.091  -1.509  55.883  1.00  0.00     0.229 A 
HETATM    9  N2  UNL     1      25.224  -1.300  55.058  1.00  0.00    -0.224 NA
BRANCH   6  10
HETATM   10  N3  UNL     1      26.231  -0.502  53.151  1.00  0.00    -0.343 N 
HETATM   11  H11 UNL     1      26.316  -1.113  52.293  1.00  0.00     0.167 HD
BRANCH  10  12
HETATM   12  C10 UNL     1      27.248   0.463  53.493  1.00  0.00     0.029 A 
HETATM   13  C11 UNL     1      27.240   1.718  53.099  1.00  0.00     0.026 A 
HETATM   14  C12 UNL     1      28.415   2.396  53.632  1.00  0.00    -0.001 A 
HETATM   15  C13 UNL     1      29.118   1.515  54.352  1.00  0.00    -0.005 A 
HETATM   16  C14 UNL     1      28.418   0.183  54.322  1.00  0.00     0.130 A 
HETATM   17 BR1  UNL     1      29.632  -1.088  53.541  1.00  0.00    -0.080 Br
ENDBRANCH  10  12
ENDBRANCH   6  10
ENDBRANCH   2   3
BRANCH   2  18
HETATM   18  N4  UNL     1      22.475   2.238  50.941  1.00  0.00    -0.326 N 
HETATM   19  C15 UNL     1      22.698   3.555  51.402  1.00  0.00     0.246 C 
HETATM   20  O1  UNL     1      22.992   4.370  52.298  1.00  0.00    -0.271 OA
HETATM   21  H16 UNL     1      22.234   2.353  49.931  1.00  0.00     0.169 HD
BRANCH  19  22
HETATM   22  C16 UNL     1      22.616   4.845  50.685  1.00  0.00     0.278 C 
BRANCH  22  23
HETATM   23  O2  UNL     1      23.163   4.735  49.405  1.00  0.00    -0.342 OA
BRANCH  23  24
HETATM   24  C17 UNL     1      24.541   4.693  49.257  1.00  0.00     0.069 A 
HETATM   25  C18 UNL     1      25.431   3.670  49.493  1.00  0.00     0.040 A 
HETATM   26  C19 UNL     1      26.779   3.846  49.276  1.00  0.00     0.045 A 
HETATM   27  C20 UNL     1      27.268   5.072  48.811  1.00  0.00     0.116 A 
HETATM   28  F1  UNL     1      28.607   5.156  48.626  1.00  0.00    -0.206 F 
HETATM   29  C21 UNL     1      26.383   6.101  48.573  1.00  0.00     0.045 A 
HETATM   30  C22 UNL     1      25.012   5.927  48.791  1.00  0.00     0.040 A 
ENDBRANCH  23  24
ENDBRANCH  22  23
ENDBRANCH  19  22
ENDBRANCH   2  18
BRANCH   1  31
HETATM   31  C2  UNL     1      19.982   0.705  51.087  1.00  0.00     0.025 C 
HETATM   32  C1  UNL     1      18.956  -0.075  51.898  1.00  0.00     0.009 C 
ENDBRANCH   1  31
TORSDOF 8
ENDMDL
MODEL 2
REMARK VINA RESULT:      -8.5      2.389      4.782
REMARK  8 active torsions:
REMARK  status: ('A' for Active; 'I' for Inactive)
REMARK    1  A    between atoms: C2_2  and  C3_3 
REMARK    2  A    between atoms: C4_4  and  C5_5 
REMARK    3  A    between atoms: C4_4  and  N4_19 
REMARK    4  A    between atoms: C9_11  and  N3_12 
REMARK    5  A    between atoms: N3_12  and  C10_13 
REMARK       I    between atoms: N4_19  and  C15_20 
REMARK    6  A    between atoms: C15_20  and  C16_22 
REMARK    7  A    between atoms: C16_22  and  O2_23 
REMARK    8  A    between atoms: O2_23  and  C17_24 
ROOT
HETATM    1  C3  UNL     1      25.828   3.320  50.136  1.00  0.00     0.002 C 
HETATM    2  C4  UNL     1      25.252   3.123  51.296  1.00  0.00     0.031 C 
ENDROOT
BRANCH   2   3
HETATM    3  C5  UNL     1      25.250   1.892  52.075  1.00  0.00     0.042 C 
HETATM    4  C6  UNL     1      26.049   1.447  52.987  1.00  0.00     0.010 A 
HETATM    5  C7  UNL     1      27.231   2.159  53.472  1.00  0.00     0.192 A 
HETATM    6  C9  UNL     1      25.688   0.109  53.502  1.00  0.00     0.137 A 
HETATM    7  N1  UNL     1      27.938   1.381  54.433  1.00  0.00    -0.278 NA
HETATM    8  C8  UNL     1      27.580   0.227  54.833  1.00  0.00     0.229 A 
HETATM    9  N2  UNL     1      26.428  -0.465  54.384  1.00  0.00    -0.224 NA
BRANCH   6  10
HETATM   10  N3  UNL     1      24.540  -0.640  53.082  1.00  0.00    -0.343 N 
HETATM   11  H11 UNL     1      24.705  -1.350  52.316  1.00  0.00     0.167 HD
BRANCH  10  12
HETATM   12  C10 UNL     1      23.234  -0.450  53.665  1.00  0.00     0.029 A 
HETATM   13  C11 UNL     1      22.722  -1.219  54.601  1.00  0.00     0.026 A 
HETATM   14  C12 UNL     1      21.393  -0.731  54.950  1.00  0.00    -0.001 A 
HETATM   15  C13 UNL     1      21.130   0.345  54.201  1.00  0.00    -0.005 A 
HETATM   16  C14 UNL     1      22.306   0.619  53.301  1.00  0.00     0.130 A 
HETATM   17 BR1  UNL     1      21.679   0.514  51.486  1.00  0.00    -0.080 Br
ENDBRANCH  10  12
ENDBRANCH   6  10
ENDBRANCH   2   3
BRANCH   2  18
HETATM   18  N4  UNL     1      24.700   4.410  51.504  1.00  0.00    -0.326 N 
HETATM   19  C15 UNL     1      23.432   4.863  51.078  1.00  0.00     0.246 C 
HETATM   20  O1  UNL     1      22.339   4.689  50.505  1.00  0.00    -0.271 OA
HETATM   21  H16 UNL     1      25.115   5.229  52.004  1.00  0.00     0.169 HD
BRANCH  19  22
HETATM   22  C16 UNL     1      22.779   6.178  51.251  1.00  0.00     0.278 C 
BRANCH  22  23
HETATM   23  O2  UNL     1      23.712   7.211  51.143  1.00  0.00    -0.342 OA
BRANCH  23  24
HETATM   24  C17 UNL     1      24.421   7.366  49.962  1.00  0.00     0.069 A 
HETATM   25  C18 UNL     1      24.007   7.252  48.654  1.00  0.00     0.040 A 
HETATM   26  C19 UNL     1      24.891   7.449  47.617  1.00  0.00     0.045 A 
HETATM   27  C20 UNL     1      26.227   7.770  47.877  1.00  0.00     0.116 A 
HETATM   28  F1  UNL     1      27.026   7.947  46.796  1.00  0.00    -0.206 F 
HETATM   29  C21 UNL     1      26.649   7.886  49.183  1.00  0.00     0.045 A 
HETATM   30  C22 UNL     1      25.755   7.686  50.241  1.00  0.00     0.040 A 
ENDBRANCH  23  24
ENDBRANCH  22  23
ENDBRANCH  19  22
ENDBRANCH   2  18
BRANCH   1  31
HETATM   31  C2  UNL     1      26.177   4.145  48.987  1.00  0.00     0.025 C 
HETATM   32  C1  UNL     1      27.657   4.488  48.875  1.00  0.00     0.009 C 
ENDBRANCH   1  31
TORSDOF 8
ENDMDL
MODEL 3
REMARK VINA RESULT:      -8.3      4.308      7.197
REMARK  8 active torsions:
REMARK  status: ('A' for Active; 'I' for Inactive)
REMARK    1  A    between atoms: C2_2  and  C3_3 
REMARK    2  A    between atoms: C4_4  and  C5_5 
REMARK    3  A    between atoms: C4_4  and  N4_19 
REMARK    4  A    between atoms: C9_11  and  N3_12 
REMARK    5  A    between atoms: N3_12  and  C10_13 
REMARK       I    between atoms: N4_19  and  C15_20 
REMARK    6  A    between atoms: C15_20  and  C16_22 
REMARK    7  A    between atoms: C16_22  and  O2_23 
REMARK    8  A    between atoms: O2_23  and  C17_24 
ROOT
HETATM    1  C3  UNL     1      22.120   2.185  51.457  1.00  0.00     0.002 C 
HETATM    2  C4  UNL     1      22.305   0.945  51.838  1.00  0.00     0.031 C 
ENDROOT
BRANCH   2   3
HETATM    3  C5  UNL     1      23.490   0.395  52.484  1.00  0.00     0.042 C 
HETATM    4  C6  UNL     1      23.646  -0.250  53.592  1.00  0.00     0.010 A 
HETATM    5  C7  UNL     1      22.562  -0.595  54.511  1.00  0.00     0.192 A 
HETATM    6  C9  UNL     1      25.052  -0.601  53.889  1.00  0.00     0.137 A 
HETATM    7  N1  UNL     1      23.065  -1.252  55.670  1.00  0.00    -0.278 NA
HETATM    8  C8  UNL     1      24.292  -1.521  55.874  1.00  0.00     0.229 A 
HETATM    9  N2  UNL     1      25.348  -1.207  54.983  1.00  0.00    -0.224 NA
BRANCH   6  10
HETATM   10  N3  UNL     1      26.162  -0.305  53.030  1.00  0.00    -0.343 N 
HETATM   11  H11 UNL     1      26.148  -0.768  52.080  1.00  0.00     0.167 HD
BRANCH  10  12
HETATM   12  C10 UNL     1      27.235   0.575  53.426  1.00  0.00     0.029 A 
HETATM   13  C11 UNL     1      27.328   1.836  53.066  1.00  0.00     0.026 A 
HETATM   14  C12 UNL     1      28.534   2.414  53.648  1.00  0.00    -0.001 A 
HETATM   15  C13 UNL     1      29.152   1.466  54.361  1.00  0.00    -0.005 A 
HETATM   16  C14 UNL     1      28.359   0.189  54.276  1.00  0.00     0.130 A 
HETATM   17 BR1  UNL     1      29.500  -1.146  53.491  1.00  0.00    -0.080 Br
ENDBRANCH  10  12
ENDBRANCH   6  10
ENDBRANCH   2   3
BRANCH   2  18
HETATM   18  N4  UNL     1      21.061   0.393  51.448  1.00  0.00    -0.326 N 
HETATM   19  C15 UNL     1      19.938   0.176  52.278  1.00  0.00     0.246 C 
HETATM   20  O1  UNL     1      19.363   0.225  53.383  1.00  0.00    -0.271 OA
HETATM   21  H16 UNL     1      20.754   0.066  50.505  1.00  0.00     0.169 HD
BRANCH  19  22
HETATM   22  C16 UNL     1      18.610  -0.389  51.960  1.00  0.00     0.278 C 
BRANCH  22  23
HETATM   23  O2  UNL     1      17.966  -0.823  53.120  1.00  0.00    -0.342 OA
BRANCH  23  24
HETATM   24  C17 UNL     1      17.312  -2.045  53.117  1.00  0.00     0.069 A 
HETATM   25  C18 UNL     1      17.658  -3.241  53.702  1.00  0.00     0.040 A 
HETATM   26  C19 UNL     1      16.851  -4.349  53.570  1.00  0.00     0.045 A 
HETATM   27  C20 UNL     1      15.661  -4.275  52.838  1.00  0.00     0.116 A 
HETATM   28  F1  UNL     1      14.929  -5.413  52.762  1.00  0.00    -0.206 F 
HETATM   29  C21 UNL     1      15.307  -3.081  52.250  1.00  0.00     0.045 A 
HETATM   30  C22 UNL     1      16.124  -1.952  52.380  1.00  0.00     0.040 A 
ENDBRANCH  23  24
ENDBRANCH  22  23
ENDBRANCH  19  22
ENDBRANCH   2  18
BRANCH   1  31
HETATM   31  C2  UNL     1      21.329   3.251  50.856  1.00  0.00     0.025 C 
HETATM   32  C1  UNL     1      20.236   3.816  51.752  1.00  0.00     0.009 C 
ENDBRANCH   1  31
TORSDOF 8
ENDMDL
MODEL 4
REMARK VINA RESULT:      -8.3      2.828      4.354
REMARK  8 active torsions:
REMARK  status: ('A' for Active; 'I' for Inactive)
REMARK    1  A    between atoms: C2_2  and  C3_3 
REMARK    2  A    between atoms: C4_4  and  C5_5 
REMARK    3  A    between atoms: C4_4  and  N4_19 
REMARK    4  A    between atoms: C9_11  and  N3_12 
REMARK    5  A    between atoms: N3_12  and  C10_13 
REMARK       I    between atoms: N4_19  and  C15_20 
REMARK    6  A    between atoms: C15_20  and  C16_22 
REMARK    7  A    between atoms: C16_22  and  O2_23 
REMARK    8  A    between atoms: O2_23  and  C17_24 
ROOT
HETATM    1  C3  UNL     1      22.216   0.385  53.899  1.00  0.00     0.002 C 
HETATM    2  C4  UNL     1      22.801   1.017  52.912  1.00  0.00     0.031 C 
ENDROOT
BRANCH   2   3
HETATM    3  C5  UNL     1      24.194   1.438  52.845  1.00  0.00     0.042 C 
HETATM    4  C6  UNL     1      24.863   2.064  51.934  1.00  0.00     0.010 A 
HETATM    5  C7  UNL     1      24.303   2.525  50.664  1.00  0.00     0.192 A 
HETATM    6  C9  UNL     1      26.291   2.262  52.267  1.00  0.00     0.137 A 
HETATM    7  N1  UNL     1      25.308   3.125  49.851  1.00  0.00    -0.278 NA
HETATM    8  C8  UNL     1      26.527   3.261  50.191  1.00  0.00     0.229 A 
HETATM    9  N2  UNL     1      27.076   2.834  51.426  1.00  0.00    -0.224 NA
BRANCH   6  10
HETATM   10  N3  UNL     1      26.903   1.847  53.496  1.00  0.00    -0.343 N 
HETATM   11  H11 UNL     1      26.544   2.315  54.373  1.00  0.00     0.167 HD
BRANCH  10  12
HETATM   12  C10 UNL     1      27.943   0.847  53.545  1.00  0.00     0.029 A 
HETATM   13  C11 UNL     1      29.224   1.106  53.398  1.00  0.00     0.026 A 
HETATM   14  C12 UNL     1      29.980  -0.137  53.507  1.00  0.00    -0.001 A 
HETATM   15  C13 UNL     1      29.117  -1.136  53.722  1.00  0.00    -0.005 A 
HETATM   16  C14 UNL     1      27.718  -0.579  53.765  1.00  0.00     0.130 A 
HETATM   17 BR1  UNL     1      26.717  -1.430  52.360  1.00  0.00    -0.080 Br
ENDBRANCH  10  12
ENDBRANCH   6  10
ENDBRANCH   2   3
BRANCH   2  18
HETATM   18  N4  UNL     1      21.707   1.121  52.020  1.00  0.00    -0.326 N 
HETATM   19  C15 UNL     1      20.687   2.098  52.046  1.00  0.00     0.246 C 
HETATM   20  O1  UNL     1      20.145   3.107  52.539  1.00  0.00    -0.271 OA
HETATM   21  H16 UNL     1      21.468   0.518  51.200  1.00  0.00     0.169 HD
BRANCH  19  22
HETATM   22  C16 UNL     1      19.516   2.283  51.162  1.00  0.00     0.278 C 
BRANCH  22  23
HETATM   23  O2  UNL     1      19.656   1.531  49.994  1.00  0.00    -0.342 OA
BRANCH  23  24
HETATM   24  C17 UNL     1      20.433   2.024  48.958  1.00  0.00     0.069 A 
HETATM   25  C18 UNL     1      21.636   1.578  48.458  1.00  0.00     0.040 A 
HETATM   26  C19 UNL     1      22.245   2.228  47.407  1.00  0.00     0.045 A 
HETATM   27  C20 UNL     1      21.648   3.353  46.828  1.00  0.00     0.116 A 
HETATM   28  F1  UNL     1      22.317   3.928  45.799  1.00  0.00    -0.206 F 
HETATM   29  C21 UNL     1      20.444   3.805  47.323  1.00  0.00     0.045 A 
HETATM   30  C22 UNL     1      19.821   3.149  48.391  1.00  0.00     0.040 A 
ENDBRANCH  23  24
ENDBRANCH  22  23
ENDBRANCH  19  22
ENDBRANCH   2  18
BRANCH   1  31
HETATM   31  C2  UNL     1      21.063  -0.238  54.535  1.00  0.00     0.025 C 
HETATM   32  C1  UNL     1      20.982  -1.750  54.368  1.00  0.00     0.009 C 
ENDBRANCH   1  31
TORSDOF 8
ENDMDL
MODEL 5
REMARK VINA RESULT:      -8.2      3.342      5.858
REMARK  8 active torsions:
REMARK  status: ('A' for Active; 'I' for Inactive)
REMARK    1  A    between atoms: C2_2  and  C3_3 
REMARK    2  A    between atoms: C4_4  and  C5_5 
REMARK    3  A    between atoms: C4_4  and  N4_19 
REMARK    4  A    between atoms: C9_11  and  N3_12 
REMARK    5  A    between atoms: N3_12  and  C10_13 
REMARK       I    between atoms: N4_19  and  C15_20 
REMARK    6  A    between atoms: C15_20  and  C16_22 
REMARK    7  A    between atoms: C16_22  and  O2_23 
REMARK    8  A    between atoms: O2_23  and  C17_24 
ROOT
HETATM    1  C3  UNL     1      23.587   3.243  50.868  1.00  0.00     0.002 C 
HETATM    2  C4  UNL     1      23.293   2.076  51.385  1.00  0.00     0.031 C 
ENDROOT
BRANCH   2   3
HETATM    3  C5  UNL     1      24.200   1.173  52.082  1.00  0.00     0.042 C 
HETATM    4  C6  UNL     1      24.020   0.368  53.075  1.00  0.00     0.010 A 
HETATM    5  C7  UNL     1      22.746   0.177  53.768  1.00  0.00     0.192 A 
HETATM    6  C9  UNL     1      25.243  -0.350  53.496  1.00  0.00     0.137 A 
HETATM    7  N1  UNL     1      22.887  -0.731  54.857  1.00  0.00    -0.278 NA
HETATM    8  C8  UNL     1      23.973  -1.314  55.175  1.00  0.00     0.229 A 
HETATM    9  N2  UNL     1      25.208  -1.151  54.501  1.00  0.00    -0.224 NA
BRANCH   6  10
HETATM   10  N3  UNL     1      26.521  -0.221  52.857  1.00  0.00    -0.343 N 
HETATM   11  H11 UNL     1      26.672  -0.819  52.000  1.00  0.00     0.167 HD
BRANCH  10  12
HETATM   12  C10 UNL     1      27.543   0.674  53.343  1.00  0.00     0.029 A 
HETATM   13  C11 UNL     1      27.651   1.936  52.989  1.00  0.00     0.026 A 
HETATM   14  C12 UNL     1      28.793   2.531  53.674  1.00  0.00    -0.001 A 
HETATM   15  C13 UNL     1      29.358   1.593  54.441  1.00  0.00    -0.005 A 
HETATM   16  C14 UNL     1      28.592   0.305  54.291  1.00  0.00     0.130 A 
HETATM   17 BR1  UNL     1      29.815  -1.017  53.615  1.00  0.00    -0.080 Br
ENDBRANCH  10  12
ENDBRANCH   6  10
ENDBRANCH   2   3
BRANCH   2  18
HETATM   18  N4  UNL     1      21.915   2.020  51.067  1.00  0.00    -0.326 N 
HETATM   19  C15 UNL     1      21.333   1.383  49.948  1.00  0.00     0.246 C 
HETATM   20  O1  UNL     1      21.415   0.720  48.896  1.00  0.00    -0.271 OA
HETATM   21  H16 UNL     1      21.103   2.418  51.591  1.00  0.00     0.169 HD
BRANCH  19  22
HETATM   22  C16 UNL     1      19.916   1.273  49.541  1.00  0.00     0.278 C 
BRANCH  22  23
HETATM   23  O2  UNL     1      19.069   1.552  50.615  1.00  0.00    -0.342 OA
BRANCH  23  24
HETATM   24  C17 UNL     1      18.667   0.519  51.448  1.00  0.00     0.069 A 
HETATM   25  C18 UNL     1      19.293  -0.040  52.539  1.00  0.00     0.040 A 
HETATM   26  C19 UNL     1      18.706  -1.075  53.233  1.00  0.00     0.045 A 
HETATM   27  C20 UNL     1      17.461  -1.575  52.840  1.00  0.00     0.116 A 
HETATM   28  F1  UNL     1      16.959  -2.593  53.580  1.00  0.00    -0.206 F 
HETATM   29  C21 UNL     1      16.828  -1.021  51.749  1.00  0.00     0.045 A 
HETATM   30  C22 UNL     1      17.419   0.030  51.040  1.00  0.00     0.040 A 
ENDBRANCH  23  24
ENDBRANCH  22  23
ENDBRANCH  19  22
ENDBRANCH   2  18
BRANCH   1  31
HETATM   31  C2  UNL     1      23.245   4.467  50.156  1.00  0.00     0.025 C 
HETATM   32  C1  UNL     1      23.300   4.358  48.638  1.00  0.00     0.009 C 
ENDBRANCH   1  31
TORSDOF 8
ENDMDL
MODEL 6
REMARK VINA RESULT:      -8.2      2.781      5.782
REMARK  8 active torsions:
REMARK  status: ('A' for Active; 'I' for Inactive)
REMARK    1  A    between atoms: C2_2  and  C3_3 
REMARK    2  A    between atoms: C4_4  and  C5_5 
REMARK    3  A    between atoms: C4_4  and  N4_19 
REMARK    4  A    between atoms: C9_11  and  N3_12 
REMARK    5  A    between atoms: N3_12  and  C10_13 
REMARK       I    between atoms: N4_19  and  C15_20 
REMARK    6  A    between atoms: C15_20  and  C16_22 
REMARK    7  A    between atoms: C16_22  and  O2_23 
REMARK    8  A    between atoms: O2_23  and  C17_24 
ROOT
HETATM    1  C3  UNL     1      26.715   2.220  52.519  1.00  0.00     0.002 C 
HETATM    2  C4  UNL     1      25.809   2.637  51.670  1.00  0.00     0.031 C 
ENDROOT
BRANCH   2   3
HETATM    3  C5  UNL     1      24.399   2.272  51.644  1.00  0.00     0.042 C 
HETATM    4  C6  UNL     1      23.323   2.978  51.756  1.00  0.00     0.010 A 
HETATM    5  C7  UNL     1      23.299   4.428  51.947  1.00  0.00     0.192 A 
HETATM    6  C9  UNL     1      22.076   2.185  51.705  1.00  0.00     0.137 A 
HETATM    7  N1  UNL     1      21.964   4.902  52.096  1.00  0.00    -0.278 NA
HETATM    8  C8  UNL     1      20.927   4.166  52.049  1.00  0.00     0.229 A 
HETATM    9  N2  UNL     1      20.937   2.764  51.848  1.00  0.00    -0.224 NA
BRANCH   6  10
HETATM   10  N3  UNL     1      22.024   0.765  51.510  1.00  0.00    -0.343 N 
HETATM   11  H11 UNL     1      22.235   0.425  50.532  1.00  0.00     0.167 HD
BRANCH  10  12
HETATM   12  C10 UNL     1      21.710  -0.154  52.578  1.00  0.00     0.029 A 
HETATM   13  C11 UNL     1      20.560  -0.181  53.215  1.00  0.00     0.026 A 
HETATM   14  C12 UNL     1      20.597  -1.232  54.225  1.00  0.00    -0.001 A 
HETATM   15  C13 UNL     1      21.794  -1.826  54.171  1.00  0.00    -0.005 A 
HETATM   16  C14 UNL     1      22.620  -1.174  53.094  1.00  0.00     0.130 A 
HETATM   17 BR1  UNL     1      24.194  -0.453  53.932  1.00  0.00    -0.080 Br
ENDBRANCH  10  12
ENDBRANCH   6  10
ENDBRANCH   2   3
BRANCH   2  18
HETATM   18  N4  UNL     1      26.610   3.493  50.876  1.00  0.00    -0.326 N 
HETATM   19  C15 UNL     1      26.188   4.240  49.752  1.00  0.00     0.246 C 
HETATM   20  O1  UNL     1      25.315   4.606  48.942  1.00  0.00    -0.271 OA
HETATM   21  H16 UNL     1      27.622   3.729  50.979  1.00  0.00     0.169 HD
BRANCH  19  22
HETATM   22  C16 UNL     1      26.948   5.153  48.872  1.00  0.00     0.278 C 
BRANCH  22  23
HETATM   23  O2  UNL     1      28.256   4.697  48.698  1.00  0.00    -0.342 OA
BRANCH  23  24
HETATM   24  C17 UNL     1      29.188   5.526  48.094  1.00  0.00     0.069 A 
HETATM   25  C18 UNL     1      30.529   5.329  47.851  1.00  0.00     0.040 A 
HETATM   26  C19 UNL     1      31.281   6.301  47.228  1.00  0.00     0.045 A 
HETATM   27  C20 UNL     1      30.693   7.506  46.830  1.00  0.00     0.116 A 
HETATM   28  F1  UNL     1      31.507   8.403  46.225  1.00  0.00    -0.206 F 
HETATM   29  C21 UNL     1      29.351   7.710  47.070  1.00  0.00     0.045 A 
HETATM   30  C22 UNL     1      28.583   6.727  47.702  1.00  0.00     0.040 A 
ENDBRANCH  23  24
ENDBRANCH  22  23
ENDBRANCH  19  22
ENDBRANCH   2  18
BRANCH   1  31
HETATM   31  C2  UNL     1      28.072   2.178  53.048  1.00  0.00     0.025 C 
HETATM   32  C1  UNL     1      28.547   0.796  53.476  1.00  0.00     0.009 C 
ENDBRANCH   1  31
TORSDOF 8
ENDMDL
MODEL 7
REMARK VINA RESULT:      -8.2      4.023      8.009
REMARK  8 active torsions:
REMARK  status: ('A' for Active; 'I' for Inactive)
REMARK    1  A    between atoms: C2_2  and  C3_3 
REMARK    2  A    between atoms: C4_4  and  C5_5 
REMARK    3  A    between atoms: C4_4  and  N4_19 
REMARK    4  A    between atoms: C9_11  and  N3_12 
REMARK    5  A    between atoms: N3_12  and  C10_13 
REMARK       I    between atoms: N4_19  and  C15_20 
REMARK    6  A    between atoms: C15_20  and  C16_22 
REMARK    7  A    between atoms: C16_22  and  O2_23 
REMARK    8  A    between atoms: O2_23  and  C17_24 
ROOT
HETATM    1  C3  UNL     1      26.288   2.736  50.834  1.00  0.00     0.002 C 
HETATM    2  C4  UNL     1      25.533   3.730  50.435  1.00  0.00     0.031 C 
ENDROOT
BRANCH   2   3
HETATM    3  C5  UNL     1      25.977   4.984  49.841  1.00  0.00     0.042 C 
HETATM    4  C6  UNL     1      25.405   5.797  49.016  1.00  0.00     0.010 A 
HETATM    5  C7  UNL     1      24.066   5.608  48.459  1.00  0.00     0.192 A 
HETATM    6  C9  UNL     1      26.242   6.958  48.640  1.00  0.00     0.137 A 
HETATM    7  N1  UNL     1      23.746   6.644  47.536  1.00  0.00    -0.278 NA
HETATM    8  C8  UNL     1      24.514   7.617  47.247  1.00  0.00     0.229 A 
HETATM    9  N2  UNL     1      25.805   7.820  47.793  1.00  0.00    -0.224 NA
BRANCH   6  10
HETATM   10  N3  UNL     1      27.556   7.212  49.155  1.00  0.00    -0.343 N 
HETATM   11  H11 UNL     1      27.600   7.685  50.098  1.00  0.00     0.167 HD
BRANCH  10  12
HETATM   12  C10 UNL     1      28.754   6.842  48.439  1.00  0.00     0.029 A 
HETATM   13  C11 UNL     1      29.169   5.605  48.281  1.00  0.00     0.026 A 
HETATM   14  C12 UNL     1      30.406   5.608  47.509  1.00  0.00    -0.001 A 
HETATM   15  C13 UNL     1      30.712   6.876  47.212  1.00  0.00    -0.005 A 
HETATM   16  C14 UNL     1      29.663   7.786  47.793  1.00  0.00     0.130 A 
HETATM   17 BR1  UNL     1      30.546   8.974  49.021  1.00  0.00    -0.080 Br
ENDBRANCH  10  12
ENDBRANCH   6  10
ENDBRANCH   2   3
BRANCH   2  18
HETATM   18  N4  UNL     1      24.259   3.194  50.745  1.00  0.00    -0.326 N 
HETATM   19  C15 UNL     1      23.362   3.667  51.728  1.00  0.00     0.246 C 
HETATM   20  O1  UNL     1      23.046   4.459  52.637  1.00  0.00    -0.271 OA
HETATM   21  H16 UNL     1      23.765   2.383  50.310  1.00  0.00     0.169 HD
BRANCH  19  22
HETATM   22  C16 UNL     1      22.023   3.175  52.116  1.00  0.00     0.278 C 
BRANCH  22  23
HETATM   23  O2  UNL     1      21.895   1.814  51.832  1.00  0.00    -0.342 OA
BRANCH  23  24
HETATM   24  C17 UNL     1      22.023   0.892  52.859  1.00  0.00     0.069 A 
HETATM   25  C18 UNL     1      21.117   0.495  53.817  1.00  0.00     0.040 A 
HETATM   26  C19 UNL     1      21.458  -0.451  54.758  1.00  0.00     0.045 A 
HETATM   27  C20 UNL     1      22.733  -1.026  54.754  1.00  0.00     0.116 A 
HETATM   28  F1  UNL     1      22.981  -1.948  55.716  1.00  0.00    -0.206 F 
HETATM   29  C21 UNL     1      23.645  -0.634  53.799  1.00  0.00     0.045 A 
HETATM   30  C22 UNL     1      23.304   0.327  52.840  1.00  0.00     0.040 A 
ENDBRANCH  23  24
ENDBRANCH  22  23
ENDBRANCH  19  22
ENDBRANCH   2  18
BRANCH   1  31
HETATM   31  C2  UNL     1      26.491   1.416  51.416  1.00  0.00     0.025 C 
HETATM   32  C1  UNL     1      27.255   1.410  52.733  1.00  0.00     0.009 C 
ENDBRANCH   1  31
TORSDOF 8
ENDMDL
MODEL 8
REMARK VINA RESULT:      -8.1      3.081      5.791
REMARK  8 active torsions:
REMARK  status: ('A' for Active; 'I' for Inactive)
REMARK    1  A    between atoms: C2_2  and  C3_3 
REMARK    2  A    between atoms: C4_4  and  C5_5 
REMARK    3  A    between atoms: C4_4  and  N4_19 
REMARK    4  A    between atoms: C9_11  and  N3_12 
REMARK    5  A    between atoms: N3_12  and  C10_13 
REMARK       I    between atoms: N4_19  and  C15_20 
REMARK    6  A    between atoms: C15_20  and  C16_22 
REMARK    7  A    between atoms: C16_22  and  O2_23 
REMARK    8  A    between atoms: O2_23  and  C17_24 
ROOT
HETATM    1  C3  UNL     1      26.409   3.205  50.132  1.00  0.00     0.002 C 
HETATM    2  C4  UNL     1      25.410   2.824  50.889  1.00  0.00     0.031 C 
ENDROOT
BRANCH   2   3
HETATM    3  C5  UNL     1      25.387   1.693  51.806  1.00  0.00     0.042 C 
HETATM    4  C6  UNL     1      26.169   1.355  52.778  1.00  0.00     0.010 A 
HETATM    5  C7  UNL     1      27.347   2.114  53.196  1.00  0.00     0.192 A 
HETATM    6  C9  UNL     1      25.792   0.087  53.439  1.00  0.00     0.137 A 
HETATM    7  N1  UNL     1      28.033   1.450  54.254  1.00  0.00    -0.278 NA
HETATM    8  C8  UNL     1      27.661   0.352  54.780  1.00  0.00     0.229 A 
HETATM    9  N2  UNL     1      26.513  -0.383  54.394  1.00  0.00    -0.224 NA
BRANCH   6  10
HETATM   10  N3  UNL     1      24.646  -0.702  53.089  1.00  0.00    -0.343 N 
HETATM   11  H11 UNL     1      24.807  -1.458  52.369  1.00  0.00     0.167 HD
BRANCH  10  12
HETATM   12  C10 UNL     1      23.347  -0.488  53.682  1.00  0.00     0.029 A 
HETATM   13  C11 UNL     1      22.837  -1.237  54.634  1.00  0.00     0.026 A 
HETATM   14  C12 UNL     1      21.516  -0.730  54.988  1.00  0.00    -0.001 A 
HETATM   15  C13 UNL     1      21.258   0.337  54.224  1.00  0.00    -0.005 A 
HETATM   16  C14 UNL     1      22.427   0.584  53.309  1.00  0.00     0.130 A 
HETATM   17 BR1  UNL     1      21.782   0.456  51.502  1.00  0.00    -0.080 Br
ENDBRANCH  10  12
ENDBRANCH   6  10
ENDBRANCH   2   3
BRANCH   2  18
HETATM   18  N4  UNL     1      24.461   3.816  50.540  1.00  0.00    -0.326 N 
HETATM   19  C15 UNL     1      23.711   4.616  51.431  1.00  0.00     0.246 C 
HETATM   20  O1  UNL     1      23.387   4.970  52.581  1.00  0.00    -0.271 OA
HETATM   21  H16 UNL     1      24.162   4.133  49.591  1.00  0.00     0.169 HD
BRANCH  19  22
HETATM   22  C16 UNL     1      22.709   5.668  51.159  1.00  0.00     0.278 C 
BRANCH  22  23
HETATM   23  O2  UNL     1      21.881   5.299  50.098  1.00  0.00    -0.342 OA
BRANCH  23  24
HETATM   24  C17 UNL     1      20.843   4.408  50.324  1.00  0.00     0.069 A 
HETATM   25  C18 UNL     1      20.121   4.155  51.468  1.00  0.00     0.040 A 
HETATM   26  C19 UNL     1      19.117   3.212  51.472  1.00  0.00     0.045 A 
HETATM   27  C20 UNL     1      18.814   2.495  50.310  1.00  0.00     0.116 A 
HETATM   28  F1  UNL     1      17.811   1.589  50.405  1.00  0.00    -0.206 F 
HETATM   29  C21 UNL     1      19.532   2.743  49.160  1.00  0.00     0.045 A 
HETATM   30  C22 UNL     1      20.553   3.700  49.151  1.00  0.00     0.040 A 
ENDBRANCH  23  24
ENDBRANCH  22  23
ENDBRANCH  19  22
ENDBRANCH   2  18
BRANCH   1  31
HETATM   31  C2  UNL     1      27.026   4.085  49.149  1.00  0.00     0.025 C 
HETATM   32  C1  UNL     1      26.525   5.522  49.174  1.00  0.00     0.009 C 
ENDBRANCH   1  31
TORSDOF 8
ENDMDL
MODEL 9
REMARK VINA RESULT:      -8.0      2.806      5.158
REMARK  8 active torsions:
REMARK  status: ('A' for Active; 'I' for Inactive)
REMARK    1  A    between atoms: C2_2  and  C3_3 
REMARK    2  A    between atoms: C4_4  and  C5_5 
REMARK    3  A    between atoms: C4_4  and  N4_19 
REMARK    4  A    between atoms: C9_11  and  N3_12 
REMARK    5  A    between atoms: N3_12  and  C10_13 
REMARK       I    between atoms: N4_19  and  C15_20 
REMARK    6  A    between atoms: C15_20  and  C16_22 
REMARK    7  A    between atoms: C16_22  and  O2_23 
REMARK    8  A    between atoms: O2_23  and  C17_24 
ROOT
HETATM    1  C3  UNL     1      25.770   2.758  50.789  1.00  0.00     0.002 C 
HETATM    2  C4  UNL     1      25.024   2.249  51.739  1.00  0.00     0.031 C 
ENDROOT
BRANCH   2   3
HETATM    3  C5  UNL     1      25.476   1.486  52.894  1.00  0.00     0.042 C 
HETATM    4  C6  UNL     1      24.911   0.553  53.586  1.00  0.00     0.010 A 
HETATM    5  C7  UNL     1      23.574   0.020  53.323  1.00  0.00     0.192 A 
HETATM    6  C9  UNL     1      25.728   0.066  54.719  1.00  0.00     0.137 A 
HETATM    7  N1  UNL     1      23.213  -0.955  54.297  1.00  0.00    -0.278 NA
HETATM    8  C8  UNL     1      23.960  -1.329  55.257  1.00  0.00     0.229 A 
HETATM    9  N2  UNL     1      25.262  -0.833  55.511  1.00  0.00    -0.224 NA
BRANCH   6  10
HETATM   10  N3  UNL     1      27.048   0.534  55.027  1.00  0.00    -0.343 N 
HETATM   11  H11 UNL     1      27.115   1.258  55.794  1.00  0.00     0.167 HD
BRANCH  10  12
HETATM   12  C10 UNL     1      28.222   0.049  54.343  1.00  0.00     0.029 A 
HETATM   13  C11 UNL     1      29.265   0.793  54.045  1.00  0.00     0.026 A 
HETATM   14  C12 UNL     1      30.258  -0.026  53.359  1.00  0.00    -0.001 A 
HETATM   15  C13 UNL     1      29.780  -1.271  53.259  1.00  0.00    -0.005 A 
HETATM   16  C14 UNL     1      28.414  -1.327  53.891  1.00  0.00     0.130 A 
HETATM   17 BR1  UNL     1      27.172  -1.874  52.528  1.00  0.00    -0.080 Br
ENDBRANCH  10  12
ENDBRANCH   6  10
ENDBRANCH   2   3
BRANCH   2  18
HETATM   18  N4  UNL     1      23.751   2.679  51.290  1.00  0.00    -0.326 N 
HETATM   19  C15 UNL     1      22.965   3.712  51.848  1.00  0.00     0.246 C 
HETATM   20  O1  UNL     1      22.770   4.612  52.687  1.00  0.00    -0.271 OA
HETATM   21  H16 UNL     1      23.185   2.327  50.486  1.00  0.00     0.169 HD
BRANCH  19  22
HETATM   22  C16 UNL     1      21.637   4.224  51.448  1.00  0.00     0.278 C 
BRANCH  22  23
HETATM   23  O2  UNL     1      20.647   3.766  52.319  1.00  0.00    -0.342 OA
BRANCH  23  24
HETATM   24  C17 UNL     1      19.983   2.584  52.031  1.00  0.00     0.069 A 
HETATM   25  C18 UNL     1      20.402   1.278  52.144  1.00  0.00     0.040 A 
HETATM   26  C19 UNL     1      19.568   0.239  51.796  1.00  0.00     0.045 A 
HETATM   27  C20 UNL     1      18.277   0.496  51.321  1.00  0.00     0.116 A 
HETATM   28  F1  UNL     1      17.526  -0.586  51.004  1.00  0.00    -0.206 F 
HETATM   29  C21 UNL     1      17.850   1.800  51.205  1.00  0.00     0.045 A 
HETATM   30  C22 UNL     1      18.694   2.860  51.557  1.00  0.00     0.040 A 
ENDBRANCH  23  24
ENDBRANCH  22  23
ENDBRANCH  19  22
ENDBRANCH   2  18
BRANCH   1  31
HETATM   31  C2  UNL     1      25.962   3.503  49.553  1.00  0.00     0.025 C 
HETATM   32  C1  UNL     1      25.782   5.010  49.681  1.00  0.00     0.009 C 
ENDBRANCH   1  31
TORSDOF 8
ENDMDL
