MODEL 1
REMARK VINA RESULT:      -7.7      0.000      0.000
REMARK  3 active torsions:
REMARK  status: ('A' for Active; 'I' for Inactive)
REMARK    1  A    between atoms: P1_2  and  C2_3 
REMARK    2  A    between atoms: C2_3  and  C4_5 
REMARK    3  A    between atoms: C5_6  and  C6_7 
ROOT
HETATM    1  C4  UNL     1      25.112   1.875  51.988  1.00  0.00     0.002 C 
HETATM    2  C5  UNL     1      24.312   1.069  52.659  1.00  0.00     0.058 C 
HETATM    3  N3  UNL     1      24.739   0.265  53.720  1.00  0.00    -0.227 NA
HETATM    4  C12 UNL     1      25.953   0.319  54.058  1.00  0.00     0.175 C 
HETATM    5  N4  UNL     1      26.981  -0.193  54.930  1.00  0.00    -0.236 NA
HETATM    6  C13 UNL     1      28.205   0.184  54.890  1.00  0.00     0.120 C 
HETATM    7  C14 UNL     1      28.739   1.215  54.027  1.00  0.00     0.025 C 
HETATM    8  C15 UNL     1      28.057   1.990  53.209  1.00  0.00     0.036 C 
HETATM    9  S1  UNL     1      26.416   1.914  53.137  1.00  0.00    -0.150 SA
HETATM   10  H20 UNL     1      25.804   3.064  54.338  1.00  0.00     0.098 HD
ENDROOT
BRANCH   2  11
HETATM   11  C6  UNL     1      22.882   0.676  52.373  1.00  0.00     0.067 C 
HETATM   12  C7  UNL     1      22.358  -0.447  53.090  1.00  0.00    -0.002 C 
HETATM   13  C8  UNL     1      21.750  -1.453  53.758  1.00  0.00     0.078 C 
HETATM   14  N1  UNL     1      20.333  -1.527  54.066  1.00  0.00    -0.197 NA
HETATM   15  N2  UNL     1      19.019  -1.919  53.986  1.00  0.00    -0.219 NA
HETATM   16  H12 UNL     1      20.257  -2.256  53.277  1.00  0.00     0.153 HD
HETATM   17  C9  UNL     1      18.086  -1.361  53.302  1.00  0.00     0.230 C 
HETATM   18  C10 UNL     1      19.068  -0.547  52.968  1.00  0.00    -0.123 C 
HETATM   19  P2  UNL     1      20.104   0.297  52.640  1.00  0.00    -0.057 P 
HETATM   20  C11 UNL     1      21.985   1.797  52.089  1.00  0.00     0.058 C 
HETATM   21  H14 UNL     1      20.445   0.579  52.524  1.00  0.00     0.070 HD
ENDBRANCH   2  11
BRANCH   1  22
HETATM   22  C2  UNL     1      25.056   2.679  50.792  1.00  0.00     0.048 C 
HETATM   23  C3  UNL     1      26.434   2.918  50.166  1.00  0.00     0.020 C 
BRANCH  22  24
HETATM   24  P1  UNL     1      24.381   4.357  51.223  1.00  0.00    -0.124 P 
HETATM   25  C1  UNL     1      25.174   5.624  50.132  1.00  0.00     0.041 C 
HETATM   26  H4  UNL     1      22.934   4.412  51.139  1.00  0.00     0.058 HD
ENDBRANCH  22  24
ENDBRANCH   1  22
TORSDOF 3
ENDMDL
MODEL 2
REMARK VINA RESULT:      -7.6      2.440      6.566
REMARK  3 active torsions:
REMARK  status: ('A' for Active; 'I' for Inactive)
REMARK    1  A    between atoms: P1_2  and  C2_3 
REMARK    2  A    between atoms: C2_3  and  C4_5 
REMARK    3  A    between atoms: C5_6  and  C6_7 
ROOT
HETATM    1  C4  UNL     1      22.203   1.515  51.164  1.00  0.00     0.002 C 
HETATM    2  C5  UNL     1      22.913   1.021  52.161  1.00  0.00     0.058 C 
HETATM    3  N3  UNL     1      22.380   0.187  53.149  1.00  0.00    -0.227 NA
HETATM    4  C12 UNL     1      21.158  -0.114  53.080  1.00  0.00     0.175 C 
HETATM    5  N4  UNL     1      20.056  -0.812  53.694  1.00  0.00    -0.236 NA
HETATM    6  C13 UNL     1      18.863  -0.820  53.225  1.00  0.00     0.120 C 
HETATM    7  C14 UNL     1      18.444  -0.199  51.987  1.00  0.00     0.025 C 
HETATM    8  C15 UNL     1      19.217   0.396  51.102  1.00  0.00     0.036 C 
HETATM    9  S1  UNL     1      20.850   0.430  51.286  1.00  0.00    -0.150 SA
HETATM   10  H20 UNL     1      21.479  -1.021  50.489  1.00  0.00     0.098 HD
ENDROOT
BRANCH   2  11
HETATM   11  C6  UNL     1      24.325   1.343  52.588  1.00  0.00     0.067 C 
HETATM   12  C7  UNL     1      24.957   0.432  53.494  1.00  0.00    -0.002 C 
HETATM   13  C8  UNL     1      25.663  -0.396  54.297  1.00  0.00     0.078 C 
HETATM   14  N1  UNL     1      27.103  -0.572  54.271  1.00  0.00    -0.197 NA
HETATM   15  N2  UNL     1      28.420  -0.461  54.649  1.00  0.00    -0.219 NA
HETATM   16  H12 UNL     1      27.136   0.021  55.169  1.00  0.00     0.153 HD
HETATM   17  C9  UNL     1      29.263   0.426  54.259  1.00  0.00     0.230 C 
HETATM   18  C10 UNL     1      28.223   0.848  53.566  1.00  0.00    -0.123 C 
HETATM   19  P2  UNL     1      27.129   1.266  52.845  1.00  0.00    -0.057 P 
HETATM   20  C11 UNL     1      25.147   1.975  51.556  1.00  0.00     0.058 C 
HETATM   21  H14 UNL     1      26.768   1.413  52.605  1.00  0.00     0.070 HD
ENDBRANCH   2  11
BRANCH   1  22
HETATM   22  C2  UNL     1      22.373   2.492  50.118  1.00  0.00     0.048 C 
HETATM   23  C3  UNL     1      21.564   3.771  50.356  1.00  0.00     0.020 C 
BRANCH  22  24
HETATM   24  P1  UNL     1      21.755   1.775  48.517  1.00  0.00    -0.124 P 
HETATM   25  C1  UNL     1      20.161   2.598  48.064  1.00  0.00     0.041 C 
HETATM   26  H4  UNL     1      22.731   1.880  47.449  1.00  0.00     0.058 HD
ENDBRANCH  22  24
ENDBRANCH   1  22
TORSDOF 3
ENDMDL
MODEL 3
REMARK VINA RESULT:      -7.3      3.749      7.354
REMARK  3 active torsions:
REMARK  status: ('A' for Active; 'I' for Inactive)
REMARK    1  A    between atoms: P1_2  and  C2_3 
REMARK    2  A    between atoms: C2_3  and  C4_5 
REMARK    3  A    between atoms: C5_6  and  C6_7 
ROOT
HETATM    1  C4  UNL     1      24.489   2.816  51.032  1.00  0.00     0.002 C 
HETATM    2  C5  UNL     1      25.631   3.326  50.612  1.00  0.00     0.058 C 
HETATM    3  N3  UNL     1      26.881   2.917  51.086  1.00  0.00    -0.227 NA
HETATM    4  C12 UNL     1      26.918   2.006  51.957  1.00  0.00     0.175 C 
HETATM    5  N4  UNL     1      27.748   1.204  52.823  1.00  0.00    -0.236 NA
HETATM    6  C13 UNL     1      27.293   0.327  53.638  1.00  0.00     0.120 C 
HETATM    7  C14 UNL     1      25.903  -0.049  53.778  1.00  0.00     0.025 C 
HETATM    8  C15 UNL     1      24.894   0.375  53.045  1.00  0.00     0.036 C 
HETATM    9  S1  UNL     1      25.136   1.379  51.765  1.00  0.00    -0.150 SA
HETATM   10  H20 UNL     1      25.402   0.343  50.354  1.00  0.00     0.098 HD
ENDROOT
BRANCH   2  11
HETATM   11  C6  UNL     1      25.881   4.522  49.725  1.00  0.00     0.067 C 
HETATM   12  C7  UNL     1      25.428   5.795  50.201  1.00  0.00    -0.002 C 
HETATM   13  C8  UNL     1      25.096   7.047  50.586  1.00  0.00     0.078 C 
HETATM   14  N1  UNL     1      25.793   8.261  50.203  1.00  0.00    -0.197 NA
HETATM   15  N2  UNL     1      26.056   9.442  49.551  1.00  0.00    -0.219 NA
HETATM   16  H12 UNL     1      24.974   8.452  49.530  1.00  0.00     0.153 HD
HETATM   17  C9  UNL     1      26.731   9.594  48.470  1.00  0.00     0.230 C 
HETATM   18  C10 UNL     1      26.839   8.283  48.568  1.00  0.00    -0.123 C 
HETATM   19  P2  UNL     1      26.947   6.917  48.695  1.00  0.00    -0.057 P 
HETATM   20  C11 UNL     1      27.132   4.471  48.967  1.00  0.00     0.058 C 
HETATM   21  H14 UNL     1      26.985   6.463  48.730  1.00  0.00     0.070 HD
ENDBRANCH   2  11
BRANCH   1  22
HETATM   22  C2  UNL     1      23.082   3.100  50.897  1.00  0.00     0.048 C 
HETATM   23  C3  UNL     1      22.464   3.686  52.171  1.00  0.00     0.020 C 
BRANCH  22  24
HETATM   24  P1  UNL     1      22.175   1.511  50.561  1.00  0.00    -0.124 P 
HETATM   25  C1  UNL     1      21.733   1.439  48.766  1.00  0.00     0.041 C 
HETATM   26  H4  UNL     1      22.932   0.343  50.971  1.00  0.00     0.058 HD
ENDBRANCH  22  24
ENDBRANCH   1  22
TORSDOF 3
ENDMDL
MODEL 4
REMARK VINA RESULT:      -7.3      1.836      2.355
REMARK  3 active torsions:
REMARK  status: ('A' for Active; 'I' for Inactive)
REMARK    1  A    between atoms: P1_2  and  C2_3 
REMARK    2  A    between atoms: C2_3  and  C4_5 
REMARK    3  A    between atoms: C5_6  and  C6_7 
ROOT
HETATM    1  C4  UNL     1      23.303   1.495  52.543  1.00  0.00     0.002 C 
HETATM    2  C5  UNL     1      22.818   0.509  53.274  1.00  0.00     0.058 C 
HETATM    3  N3  UNL     1      23.606  -0.515  53.808  1.00  0.00    -0.227 NA
HETATM    4  C12 UNL     1      24.847  -0.490  53.586  1.00  0.00     0.175 C 
HETATM    5  N4  UNL     1      26.114  -1.155  53.768  1.00  0.00    -0.236 NA
HETATM    6  C13 UNL     1      27.223  -0.723  53.293  1.00  0.00     0.120 C 
HETATM    7  C14 UNL     1      27.401   0.516  52.568  1.00  0.00     0.025 C 
HETATM    8  C15 UNL     1      26.486   1.439  52.348  1.00  0.00     0.036 C 
HETATM    9  S1  UNL     1      24.975   1.306  52.981  1.00  0.00    -0.150 SA
HETATM   10  H20 UNL     1      25.022   2.086  54.570  1.00  0.00     0.098 HD
ENDROOT
BRANCH   2  11
HETATM   11  C6  UNL     1      21.383   0.133  53.551  1.00  0.00     0.067 C 
HETATM   12  C7  UNL     1      20.432   0.373  52.508  1.00  0.00    -0.002 C 
HETATM   13  C8  UNL     1      19.469   0.502  51.567  1.00  0.00     0.078 C 
HETATM   14  N1  UNL     1      18.296  -0.343  51.439  1.00  0.00    -0.197 NA
HETATM   15  N2  UNL     1      16.983  -0.741  51.516  1.00  0.00    -0.219 NA
HETATM   16  H12 UNL     1      17.732   0.473  51.859  1.00  0.00     0.153 HD
HETATM   17  C9  UNL     1      16.423  -1.376  52.481  1.00  0.00     0.230 C 
HETATM   18  C10 UNL     1      17.636  -1.298  52.994  1.00  0.00    -0.123 C 
HETATM   19  P2  UNL     1      18.910  -1.214  53.506  1.00  0.00    -0.057 P 
HETATM   20  C11 UNL     1      21.212  -1.058  54.384  1.00  0.00     0.058 C 
HETATM   21  H14 UNL     1      19.331  -1.188  53.684  1.00  0.00     0.070 HD
ENDBRANCH   2  11
BRANCH   1  22
HETATM   22  C2  UNL     1      22.790   2.570  51.730  1.00  0.00     0.048 C 
HETATM   23  C3  UNL     1      23.205   2.459  50.259  1.00  0.00     0.020 C 
BRANCH  22  24
HETATM   24  P1  UNL     1      23.486   4.180  52.348  1.00  0.00    -0.124 P 
HETATM   25  C1  UNL     1      23.439   5.422  50.978  1.00  0.00     0.041 C 
HETATM   26  H4  UNL     1      22.800   4.664  53.531  1.00  0.00     0.058 HD
ENDBRANCH  22  24
ENDBRANCH   1  22
TORSDOF 3
ENDMDL
MODEL 5
REMARK VINA RESULT:      -7.3      2.856      6.947
REMARK  3 active torsions:
REMARK  status: ('A' for Active; 'I' for Inactive)
REMARK    1  A    between atoms: P1_2  and  C2_3 
REMARK    2  A    between atoms: C2_3  and  C4_5 
REMARK    3  A    between atoms: C5_6  and  C6_7 
ROOT
HETATM    1  C4  UNL     1      24.400   0.855  52.965  1.00  0.00     0.002 C 
HETATM    2  C5  UNL     1      23.785   1.953  52.569  1.00  0.00     0.058 C 
HETATM    3  N3  UNL     1      22.394   2.098  52.562  1.00  0.00    -0.227 NA
HETATM    4  C12 UNL     1      21.691   1.132  52.962  1.00  0.00     0.175 C 
HETATM    5  N4  UNL     1      20.359   0.620  53.173  1.00  0.00    -0.236 NA
HETATM    6  C13 UNL     1      20.107  -0.550  53.629  1.00  0.00     0.120 C 
HETATM    7  C14 UNL     1      21.094  -1.513  54.066  1.00  0.00     0.025 C 
HETATM    8  C15 UNL     1      22.395  -1.325  54.150  1.00  0.00     0.036 C 
HETATM    9  S1  UNL     1      23.066   0.139  53.819  1.00  0.00    -0.150 SA
HETATM   10  H20 UNL     1      23.089   1.040  55.344  1.00  0.00     0.098 HD
ENDROOT
BRANCH   2  11
HETATM   11  C6  UNL     1      24.347   3.178  51.889  1.00  0.00     0.067 C 
HETATM   12  C7  UNL     1      25.643   3.057  51.292  1.00  0.00    -0.002 C 
HETATM   13  C8  UNL     1      26.830   3.029  50.646  1.00  0.00     0.078 C 
HETATM   14  N1  UNL     1      27.180   3.830  49.487  1.00  0.00    -0.197 NA
HETATM   15  N2  UNL     1      27.758   4.829  48.742  1.00  0.00    -0.219 NA
HETATM   16  H12 UNL     1      27.770   4.435  50.154  1.00  0.00     0.153 HD
HETATM   17  C9  UNL     1      27.250   5.974  48.457  1.00  0.00     0.230 C 
HETATM   18  C10 UNL     1      26.244   5.501  49.169  1.00  0.00    -0.123 C 
HETATM   19  P2  UNL     1      25.204   4.985  49.906  1.00  0.00    -0.057 P 
HETATM   20  C11 UNL     1      23.353   4.017  51.221  1.00  0.00     0.058 C 
HETATM   21  H14 UNL     1      24.855   4.821  50.153  1.00  0.00     0.070 HD
ENDBRANCH   2  11
BRANCH   1  22
HETATM   22  C2  UNL     1      25.738   0.318  52.948  1.00  0.00     0.048 C 
HETATM   23  C3  UNL     1      25.770  -1.213  52.989  1.00  0.00     0.020 C 
BRANCH  22  24
HETATM   24  P1  UNL     1      26.642   0.899  54.467  1.00  0.00    -0.124 P 
HETATM   25  C1  UNL     1      28.256   0.003  54.587  1.00  0.00     0.041 C 
HETATM   26  H4  UNL     1      26.828   2.338  54.485  1.00  0.00     0.058 HD
ENDBRANCH  22  24
ENDBRANCH   1  22
TORSDOF 3
ENDMDL
MODEL 6
REMARK VINA RESULT:      -7.2      3.270      6.761
REMARK  3 active torsions:
REMARK  status: ('A' for Active; 'I' for Inactive)
REMARK    1  A    between atoms: P1_2  and  C2_3 
REMARK    2  A    between atoms: C2_3  and  C4_5 
REMARK    3  A    between atoms: C5_6  and  C6_7 
ROOT
HETATM    1  C4  UNL     1      22.826   1.586  52.509  1.00  0.00     0.002 C 
HETATM    2  C5  UNL     1      23.978   2.167  52.785  1.00  0.00     0.058 C 
HETATM    3  N3  UNL     1      24.257   3.506  52.494  1.00  0.00    -0.227 NA
HETATM    4  C12 UNL     1      23.357   4.197  51.944  1.00  0.00     0.175 C 
HETATM    5  N4  UNL     1      22.996   5.478  51.388  1.00  0.00    -0.236 NA
HETATM    6  C13 UNL     1      21.854   5.734  50.867  1.00  0.00     0.120 C 
HETATM    7  C14 UNL     1      20.732   4.823  50.810  1.00  0.00     0.025 C 
HETATM    8  C15 UNL     1      20.663   3.624  51.350  1.00  0.00     0.036 C 
HETATM    9  S1  UNL     1      21.891   3.032  52.268  1.00  0.00    -0.150 SA
HETATM   10  H20 UNL     1      21.561   3.529  53.936  1.00  0.00     0.098 HD
ENDROOT
BRANCH   2  11
HETATM   11  C6  UNL     1      25.271   1.557  53.271  1.00  0.00     0.067 C 
HETATM   12  C7  UNL     1      25.424   0.142  53.116  1.00  0.00    -0.002 C 
HETATM   13  C8  UNL     1      25.692  -1.174  52.958  1.00  0.00     0.078 C 
HETATM   14  N1  UNL     1      27.010  -1.751  52.772  1.00  0.00    -0.197 NA
HETATM   15  N2  UNL     1      28.177  -2.415  53.066  1.00  0.00    -0.219 NA
HETATM   16  H12 UNL     1      26.951  -2.078  53.796  1.00  0.00     0.153 HD
HETATM   17  C9  UNL     1      29.273  -1.900  53.492  1.00  0.00     0.230 C 
HETATM   18  C10 UNL     1      28.569  -0.787  53.411  1.00  0.00    -0.123 C 
HETATM   19  P2  UNL     1      27.821   0.362  53.309  1.00  0.00    -0.057 P 
HETATM   20  C11 UNL     1      26.451   2.404  53.098  1.00  0.00     0.058 C 
HETATM   21  H14 UNL     1      27.577   0.748  53.281  1.00  0.00     0.070 HD
ENDBRANCH   2  11
BRANCH   1  22
HETATM   22  C2  UNL     1      22.278   0.253  52.511  1.00  0.00     0.048 C 
HETATM   23  C3  UNL     1      21.288   0.010  51.367  1.00  0.00     0.020 C 
BRANCH  22  24
HETATM   24  P1  UNL     1      21.328  -0.007  54.088  1.00  0.00    -0.124 P 
HETATM   25  C1  UNL     1      20.978  -1.813  54.290  1.00  0.00     0.041 C 
HETATM   26  H4  UNL     1      22.014   0.536  55.246  1.00  0.00     0.058 HD
ENDBRANCH  22  24
ENDBRANCH   1  22
TORSDOF 3
ENDMDL
MODEL 7
REMARK VINA RESULT:      -7.1      3.234      7.157
REMARK  3 active torsions:
REMARK  status: ('A' for Active; 'I' for Inactive)
REMARK    1  A    between atoms: P1_2  and  C2_3 
REMARK    2  A    between atoms: C2_3  and  C4_5 
REMARK    3  A    between atoms: C5_6  and  C6_7 
ROOT
HETATM    1  C4  UNL     1      25.127   1.468  51.831  1.00  0.00     0.002 C 
HETATM    2  C5  UNL     1      24.390   2.414  51.282  1.00  0.00     0.058 C 
HETATM    3  N3  UNL     1      22.993   2.431  51.332  1.00  0.00    -0.227 NA
HETATM    4  C12 UNL     1      22.406   1.496  51.941  1.00  0.00     0.175 C 
HETATM    5  N4  UNL     1      21.141   0.915  52.319  1.00  0.00    -0.236 NA
HETATM    6  C13 UNL     1      21.026  -0.170  52.992  1.00  0.00     0.120 C 
HETATM    7  C14 UNL     1      22.121  -0.944  53.534  1.00  0.00     0.025 C 
HETATM    8  C15 UNL     1      23.399  -0.628  53.505  1.00  0.00     0.036 C 
HETATM    9  S1  UNL     1      23.907   0.805  52.878  1.00  0.00    -0.150 SA
HETATM   10  H20 UNL     1      23.906   1.969  54.213  1.00  0.00     0.098 HD
ENDROOT
BRANCH   2  11
HETATM   11  C6  UNL     1      24.799   3.539  50.362  1.00  0.00     0.067 C 
HETATM   12  C7  UNL     1      24.571   4.876  50.822  1.00  0.00    -0.002 C 
HETATM   13  C8  UNL     1      24.455   6.172  51.189  1.00  0.00     0.078 C 
HETATM   14  N1  UNL     1      25.324   7.252  50.759  1.00  0.00    -0.197 NA
HETATM   15  N2  UNL     1      25.751   8.363  50.073  1.00  0.00    -0.219 NA
HETATM   16  H12 UNL     1      24.525   7.560  50.106  1.00  0.00     0.153 HD
HETATM   17  C9  UNL     1      26.407   8.386  48.970  1.00  0.00     0.230 C 
HETATM   18  C10 UNL     1      26.307   7.077  49.094  1.00  0.00    -0.123 C 
HETATM   19  P2  UNL     1      26.200   5.714  49.248  1.00  0.00    -0.057 P 
HETATM   20  C11 UNL     1      26.000   3.275  49.570  1.00  0.00     0.058 C 
HETATM   21  H14 UNL     1      26.165   5.260  49.292  1.00  0.00     0.070 HD
ENDBRANCH   2  11
BRANCH   1  22
HETATM   22  C2  UNL     1      26.510   1.059  51.831  1.00  0.00     0.048 C 
HETATM   23  C3  UNL     1      26.688  -0.451  52.015  1.00  0.00     0.020 C 
BRANCH  22  24
HETATM   24  P1  UNL     1      27.378   1.866  53.264  1.00  0.00    -0.124 P 
HETATM   25  C1  UNL     1      28.091   0.550  54.353  1.00  0.00     0.041 C 
HETATM   26  H4  UNL     1      28.391   2.813  52.838  1.00  0.00     0.058 HD
ENDBRANCH  22  24
ENDBRANCH   1  22
TORSDOF 3
ENDMDL
MODEL 8
REMARK VINA RESULT:      -7.0      2.443      2.732
REMARK  3 active torsions:
REMARK  status: ('A' for Active; 'I' for Inactive)
REMARK    1  A    between atoms: P1_2  and  C2_3 
REMARK    2  A    between atoms: C2_3  and  C4_5 
REMARK    3  A    between atoms: C5_6  and  C6_7 
ROOT
HETATM    1  C4  UNL     1      24.620   2.140  51.444  1.00  0.00     0.002 C 
HETATM    2  C5  UNL     1      23.709   1.400  52.048  1.00  0.00     0.058 C 
HETATM    3  N3  UNL     1      24.014   0.439  53.017  1.00  0.00    -0.227 NA
HETATM    4  C12 UNL     1      25.223   0.275  53.335  1.00  0.00     0.175 C 
HETATM    5  N4  UNL     1      26.165  -0.470  54.134  1.00  0.00    -0.236 NA
HETATM    6  C13 UNL     1      27.432  -0.279  54.108  1.00  0.00     0.120 C 
HETATM    7  C14 UNL     1      28.113   0.741  53.340  1.00  0.00     0.025 C 
HETATM    8  C15 UNL     1      27.552   1.688  52.616  1.00  0.00     0.036 C 
HETATM    9  S1  UNL     1      25.919   1.867  52.568  1.00  0.00    -0.150 SA
HETATM   10  H20 UNL     1      25.492   2.969  53.887  1.00  0.00     0.098 HD
ENDROOT
BRANCH   2  11
HETATM   11  C6  UNL     1      22.236   1.257  51.752  1.00  0.00     0.067 C 
HETATM   12  C7  UNL     1      21.358   2.239  52.315  1.00  0.00    -0.002 C 
HETATM   13  C8  UNL     1      20.455   3.147  52.747  1.00  0.00     0.078 C 
HETATM   14  N1  UNL     1      19.223   3.503  52.066  1.00  0.00    -0.197 NA
HETATM   15  N2  UNL     1      17.880   3.557  51.783  1.00  0.00    -0.219 NA
HETATM   16  H12 UNL     1      18.710   2.917  52.809  1.00  0.00     0.153 HD
HETATM   17  C9  UNL     1      17.224   2.784  50.995  1.00  0.00     0.230 C 
HETATM   18  C10 UNL     1      18.414   2.235  50.839  1.00  0.00    -0.123 C 
HETATM   19  P2  UNL     1      19.665   1.684  50.684  1.00  0.00    -0.057 P 
HETATM   20  C11 UNL     1      21.928   0.734  50.421  1.00  0.00     0.058 C 
HETATM   21  H14 UNL     1      20.077   1.494  50.630  1.00  0.00     0.070 HD
ENDBRANCH   2  11
BRANCH   1  22
HETATM   22  C2  UNL     1      24.682   3.058  50.335  1.00  0.00     0.048 C 
HETATM   23  C3  UNL     1      26.109   3.288  49.827  1.00  0.00     0.020 C 
BRANCH  22  24
HETATM   24  P1  UNL     1      24.051   4.718  50.888  1.00  0.00    -0.124 P 
HETATM   25  C1  UNL     1      22.407   5.030  50.099  1.00  0.00     0.041 C 
HETATM   26  H4  UNL     1      23.979   4.831  52.333  1.00  0.00     0.058 HD
ENDBRANCH  22  24
ENDBRANCH   1  22
TORSDOF 3
ENDMDL
MODEL 9
REMARK VINA RESULT:      -6.9      3.247      5.669
REMARK  3 active torsions:
REMARK  status: ('A' for Active; 'I' for Inactive)
REMARK    1  A    between atoms: P1_2  and  C2_3 
REMARK    2  A    between atoms: C2_3  and  C4_5 
REMARK    3  A    between atoms: C5_6  and  C6_7 
ROOT
HETATM    1  C4  UNL     1      24.256   1.076  52.144  1.00  0.00     0.002 C 
HETATM    2  C5  UNL     1      24.589   2.154  51.460  1.00  0.00     0.058 C 
HETATM    3  N3  UNL     1      25.869   2.716  51.479  1.00  0.00    -0.227 NA
HETATM    4  C12 UNL     1      26.754   2.158  52.181  1.00  0.00     0.175 C 
HETATM    5  N4  UNL     1      28.118   2.197  52.650  1.00  0.00    -0.236 NA
HETATM    6  C13 UNL     1      28.622   1.336  53.455  1.00  0.00     0.120 C 
HETATM    7  C14 UNL     1      27.944   0.165  53.965  1.00  0.00     0.025 C 
HETATM    8  C15 UNL     1      26.743  -0.259  53.631  1.00  0.00     0.036 C 
HETATM    9  S1  UNL     1      25.865   0.504  52.468  1.00  0.00    -0.150 SA
HETATM   10  H20 UNL     1      26.292  -0.262  50.929  1.00  0.00     0.098 HD
ENDROOT
BRANCH   2  11
HETATM   11  C6  UNL     1      23.712   3.112  50.689  1.00  0.00     0.067 C 
HETATM   12  C7  UNL     1      23.079   4.160  51.431  1.00  0.00    -0.002 C 
HETATM   13  C8  UNL     1      22.487   5.219  52.027  1.00  0.00     0.078 C 
HETATM   14  N1  UNL     1      22.192   6.490  51.391  1.00  0.00    -0.197 NA
HETATM   15  N2  UNL     1      21.463   7.493  50.798  1.00  0.00    -0.219 NA
HETATM   16  H12 UNL     1      21.163   6.171  51.359  1.00  0.00     0.153 HD
HETATM   17  C9  UNL     1      21.253   7.657  49.542  1.00  0.00     0.230 C 
HETATM   18  C10 UNL     1      21.988   6.564  49.462  1.00  0.00    -0.123 C 
HETATM   19  P2  UNL     1      22.764   5.430  49.401  1.00  0.00    -0.057 P 
HETATM   20  C11 UNL     1      24.174   3.405  49.332  1.00  0.00     0.058 C 
HETATM   21  H14 UNL     1      23.019   5.051  49.373  1.00  0.00     0.070 HD
ENDBRANCH   2  11
BRANCH   1  22
HETATM   22  C2  UNL     1      23.052   0.356  52.479  1.00  0.00     0.048 C 
HETATM   23  C3  UNL     1      21.890   1.278  52.863  1.00  0.00     0.020 C 
BRANCH  22  24
HETATM   24  P1  UNL     1      23.382  -0.714  53.964  1.00  0.00    -0.124 P 
HETATM   25  C1  UNL     1      21.800  -1.514  54.493  1.00  0.00     0.041 C 
HETATM   26  H4  UNL     1      24.422  -1.696  53.721  1.00  0.00     0.058 HD
ENDBRANCH  22  24
ENDBRANCH   1  22
TORSDOF 3
ENDMDL
