MODEL 1
REMARK VINA RESULT:      -7.8      0.000      0.000
REMARK  10 active torsions:
REMARK  status: ('A' for Active; 'I' for Inactive)
REMARK    1  A    between atoms: C2_2  and  C3_3 
REMARK    2  A    between atoms: C5_7  and  N3_8 
REMARK    3  A    between atoms: N3_8  and  C6_9 
REMARK    4  A    between atoms: C12_16  and  C13_17 
REMARK    5  A    between atoms: C13_17  and  C14_18 
REMARK    6  A    between atoms: C14_18  and  N4_19 
REMARK       I    between atoms: N4_19  and  C15_20 
REMARK    7  A    between atoms: C15_20  and  C16_22 
REMARK    8  A    between atoms: C17_23  and  C18_24 
REMARK    9  A    between atoms: C18_24  and  N5_25 
REMARK   10  A    between atoms: N5_25  and  C19_27 
ROOT
HETATM    1  C3  UNL     1      21.420  -0.700  53.760  1.00  0.00     0.082 A 
HETATM    2  N1  UNL     1      21.631  -1.320  54.950  1.00  0.00    -0.240 NA
HETATM    3  C4  UNL     1      22.898  -1.409  55.391  1.00  0.00     0.236 A 
HETATM    4  N2  UNL     1      23.845  -0.879  54.623  1.00  0.00    -0.224 NA
HETATM    5  C5  UNL     1      23.648  -0.270  53.458  1.00  0.00     0.141 A 
HETATM    6  C12 UNL     1      22.385  -0.146  52.953  1.00  0.00     0.037 A 
ENDROOT
BRANCH   6   7
HETATM    7  C13 UNL     1      22.144   0.476  51.824  1.00  0.00     0.010 C 
BRANCH   7   8
HETATM    8  C14 UNL     1      21.903   1.889  51.458  1.00  0.00     0.151 C 
BRANCH   8   9
HETATM    9  N4  UNL     1      22.969   2.440  50.620  1.00  0.00    -0.347 N 
HETATM   10  C15 UNL     1      24.123   3.089  51.175  1.00  0.00     0.296 C 
HETATM   11  O1  UNL     1      24.264   3.212  52.434  1.00  0.00    -0.258 OA
HETATM   12  H12 UNL     1      22.996   2.417  49.557  1.00  0.00     0.163 HD
BRANCH  10  13
HETATM   13  C16 UNL     1      25.173   3.630  50.356  1.00  0.00    -0.004 C 
HETATM   14  C17 UNL     1      26.063   4.074  49.685  1.00  0.00    -0.080 C 
BRANCH  14  15
HETATM   15  C18 UNL     1      27.159   4.604  48.876  1.00  0.00     0.220 C 
BRANCH  15  16
HETATM   16  N5  UNL     1      26.911   6.003  48.582  1.00  0.00    -0.144 NA
HETATM   17  F1  UNL     1      26.405   6.671  49.643  1.00  0.00    -0.133 F 
BRANCH  16  18
HETATM   18  C19 UNL     1      28.110   6.702  48.146  1.00  0.00     0.122 C 
HETATM   19  C20 UNL     1      29.283   5.752  48.153  1.00  0.00     0.023 C 
ENDBRANCH  16  18
ENDBRANCH  15  16
ENDBRANCH  14  15
ENDBRANCH  10  13
ENDBRANCH   8   9
ENDBRANCH   7   8
ENDBRANCH   6   7
BRANCH   1  20
HETATM   20  C2  UNL     1      20.139  -0.668  53.372  1.00  0.00    -0.004 C 
HETATM   21  C1  UNL     1      18.855  -1.052  53.454  1.00  0.00     0.026 C 
ENDBRANCH   1  20
BRANCH   5  22
HETATM   22  N3  UNL     1      24.801   0.220  52.803  1.00  0.00    -0.340 N 
HETATM   23  H4  UNL     1      24.717   0.868  51.997  1.00  0.00     0.167 HD
BRANCH  22  24
HETATM   24  C6  UNL     1      26.160  -0.036  53.070  1.00  0.00     0.035 A 
HETATM   25  C7  UNL     1      26.757  -1.287  52.857  1.00  0.00     0.029 A 
HETATM   26  C8  UNL     1      28.069  -1.584  53.106  1.00  0.00     0.004 A 
HETATM   27  C9  UNL     1      28.887  -0.601  53.603  1.00  0.00     0.024 A 
HETATM   28  C10 UNL     1      28.395   0.661  53.846  1.00  0.00     0.036 A 
HETATM   29 CL1  UNL     1      29.486   1.872  54.477  1.00  0.00    -0.084 Cl
HETATM   30  C11 UNL     1      27.067   0.871  53.567  1.00  0.00     0.053 A 
ENDBRANCH  22  24
ENDBRANCH   5  22
TORSDOF 10
ENDMDL
MODEL 2
REMARK VINA RESULT:      -7.7      3.912      7.541
REMARK  10 active torsions:
REMARK  status: ('A' for Active; 'I' for Inactive)
REMARK    1  A    between atoms: C2_2  and  C3_3 
REMARK    2  A    between atoms: C5_7  and  N3_8 
REMARK    3  A    between atoms: N3_8  and  C6_9 
REMARK    4  A    between atoms: C12_16  and  C13_17 
REMARK    5  A    between atoms: C13_17  and  C14_18 
REMARK    6  A    between atoms: C14_18  and  N4_19 
REMARK       I    between atoms: N4_19  and  C15_20 
REMARK    7  A    between atoms: C15_20  and  C16_22 
REMARK    8  A    between atoms: C17_23  and  C18_24 
REMARK    9  A    between atoms: C18_24  and  N5_25 
REMARK   10  A    between atoms: N5_25  and  C19_27 
ROOT
HETATM    1  C3  UNL     1      28.287   0.157  53.726  1.00  0.00     0.082 A 
HETATM    2  N1  UNL     1      29.365   0.970  53.871  1.00  0.00    -0.240 NA
HETATM    3  C4  UNL     1      29.143   2.294  53.943  1.00  0.00     0.236 A 
HETATM    4  N2  UNL     1      27.879   2.700  53.866  1.00  0.00    -0.224 NA
HETATM    5  C5  UNL     1      26.818   1.912  53.725  1.00  0.00     0.141 A 
HETATM    6  C12 UNL     1      26.975   0.557  53.646  1.00  0.00     0.037 A 
ENDROOT
BRANCH   6   7
HETATM    7  C13 UNL     1      25.953  -0.258  53.540  1.00  0.00     0.010 C 
BRANCH   7   8
HETATM    8  C14 UNL     1      24.919  -0.739  54.481  1.00  0.00     0.151 C 
BRANCH   8   9
HETATM    9  N4  UNL     1      23.563  -0.575  53.954  1.00  0.00    -0.347 N 
HETATM   10  C15 UNL     1      22.423  -1.204  54.559  1.00  0.00     0.296 C 
HETATM   11  O1  UNL     1      22.551  -1.939  55.591  1.00  0.00    -0.258 OA
HETATM   12  H12 UNL     1      23.294   0.003  53.102  1.00  0.00     0.163 HD
BRANCH  10  13
HETATM   13  C16 UNL     1      21.090  -1.045  54.047  1.00  0.00    -0.004 C 
HETATM   14  C17 UNL     1      19.973  -0.931  53.625  1.00  0.00    -0.080 C 
BRANCH  14  15
HETATM   15  C18 UNL     1      18.606  -0.808  53.119  1.00  0.00     0.220 C 
BRANCH  15  16
HETATM   16  N5  UNL     1      18.638  -0.326  51.751  1.00  0.00    -0.144 NA
HETATM   17  F1  UNL     1      17.491  -0.591  51.084  1.00  0.00    -0.133 F 
BRANCH  16  18
HETATM   18  C19 UNL     1      18.880   1.106  51.669  1.00  0.00     0.122 C 
HETATM   19  C20 UNL     1      19.889   1.389  50.583  1.00  0.00     0.023 C 
ENDBRANCH  16  18
ENDBRANCH  15  16
ENDBRANCH  14  15
ENDBRANCH  10  13
ENDBRANCH   8   9
ENDBRANCH   7   8
ENDBRANCH   6   7
BRANCH   1  20
HETATM   20  C2  UNL     1      28.585  -1.146  53.640  1.00  0.00    -0.004 C 
HETATM   21  C1  UNL     1      29.319  -2.178  53.191  1.00  0.00     0.026 C 
ENDBRANCH   1  20
BRANCH   5  22
HETATM   22  N3  UNL     1      25.561   2.555  53.663  1.00  0.00    -0.340 N 
HETATM   23  H4  UNL     1      25.047   2.798  54.532  1.00  0.00     0.167 HD
BRANCH  22  24
HETATM   24  C6  UNL     1      24.815   2.959  52.538  1.00  0.00     0.035 A 
HETATM   25  C7  UNL     1      25.178   2.627  51.224  1.00  0.00     0.029 A 
HETATM   26  C8  UNL     1      24.490   3.000  50.102  1.00  0.00     0.004 A 
HETATM   27  C9  UNL     1      23.353   3.756  50.243  1.00  0.00     0.024 A 
HETATM   28  C10 UNL     1      22.915   4.132  51.493  1.00  0.00     0.036 A 
HETATM   29 CL1  UNL     1      21.460   5.094  51.610  1.00  0.00    -0.084 Cl
HETATM   30  C11 UNL     1      23.667   3.714  52.564  1.00  0.00     0.053 A 
ENDBRANCH  22  24
ENDBRANCH   5  22
TORSDOF 10
ENDMDL
MODEL 3
REMARK VINA RESULT:      -7.5      2.369      3.380
REMARK  10 active torsions:
REMARK  status: ('A' for Active; 'I' for Inactive)
REMARK    1  A    between atoms: C2_2  and  C3_3 
REMARK    2  A    between atoms: C5_7  and  N3_8 
REMARK    3  A    between atoms: N3_8  and  C6_9 
REMARK    4  A    between atoms: C12_16  and  C13_17 
REMARK    5  A    between atoms: C13_17  and  C14_18 
REMARK    6  A    between atoms: C14_18  and  N4_19 
REMARK       I    between atoms: N4_19  and  C15_20 
REMARK    7  A    between atoms: C15_20  and  C16_22 
REMARK    8  A    between atoms: C17_23  and  C18_24 
REMARK    9  A    between atoms: C18_24  and  N5_25 
REMARK   10  A    between atoms: N5_25  and  C19_27 
ROOT
HETATM    1  C3  UNL     1      22.436   1.065  51.103  1.00  0.00     0.082 A 
HETATM    2  N1  UNL     1      21.610   0.211  51.761  1.00  0.00    -0.240 NA
HETATM    3  C4  UNL     1      21.983  -0.199  52.986  1.00  0.00     0.236 A 
HETATM    4  N2  UNL     1      23.136   0.269  53.455  1.00  0.00    -0.224 NA
HETATM    5  C5  UNL     1      23.950   1.105  52.820  1.00  0.00     0.141 A 
HETATM    6  C12 UNL     1      23.630   1.560  51.572  1.00  0.00     0.037 A 
ENDROOT
BRANCH   6   7
HETATM    7  C13 UNL     1      24.388   2.411  50.924  1.00  0.00     0.010 C 
BRANCH   7   8
HETATM    8  C14 UNL     1      24.646   3.862  51.048  1.00  0.00     0.151 C 
BRANCH   8   9
HETATM    9  N4  UNL     1      25.941   4.251  50.487  1.00  0.00    -0.347 N 
HETATM   10  C15 UNL     1      26.053   5.048  49.299  1.00  0.00     0.296 C 
HETATM   11  O1  UNL     1      25.016   5.451  48.678  1.00  0.00    -0.258 OA
HETATM   12  H12 UNL     1      26.892   3.994  50.887  1.00  0.00     0.163 HD
BRANCH  10  13
HETATM   13  C16 UNL     1      27.322   5.434  48.744  1.00  0.00    -0.004 C 
HETATM   14  C17 UNL     1      28.390   5.747  48.297  1.00  0.00    -0.080 C 
BRANCH  14  15
HETATM   15  C18 UNL     1      29.700   6.117  47.762  1.00  0.00     0.220 C 
BRANCH  15  16
HETATM   16  N5  UNL     1      30.697   5.171  48.226  1.00  0.00    -0.144 NA
HETATM   17  F1  UNL     1      31.002   4.243  47.290  1.00  0.00    -0.133 F 
BRANCH  16  18
HETATM   18  C19 UNL     1      31.934   5.819  48.631  1.00  0.00     0.122 C 
HETATM   19  C20 UNL     1      31.955   5.983  50.132  1.00  0.00     0.023 C 
ENDBRANCH  16  18
ENDBRANCH  15  16
ENDBRANCH  14  15
ENDBRANCH  10  13
ENDBRANCH   8   9
ENDBRANCH   7   8
ENDBRANCH   6   7
BRANCH   1  20
HETATM   20  C2  UNL     1      22.013   1.412  49.881  1.00  0.00    -0.004 C 
HETATM   21  C1  UNL     1      21.464   1.146  48.685  1.00  0.00     0.026 C 
ENDBRANCH   1  20
BRANCH   5  22
HETATM   22  N3  UNL     1      25.130   1.476  53.504  1.00  0.00    -0.340 N 
HETATM   23  H4  UNL     1      25.135   2.288  54.150  1.00  0.00     0.167 HD
BRANCH  22  24
HETATM   24  C6  UNL     1      26.411   0.890  53.463  1.00  0.00     0.035 A 
HETATM   25  C7  UNL     1      27.590   1.623  53.661  1.00  0.00     0.029 A 
HETATM   26  C8  UNL     1      28.855   1.101  53.625  1.00  0.00     0.004 A 
HETATM   27  C9  UNL     1      29.010  -0.240  53.379  1.00  0.00     0.024 A 
HETATM   28  C10 UNL     1      27.911  -1.044  53.172  1.00  0.00     0.036 A 
HETATM   29 CL1  UNL     1      28.173  -2.746  52.865  1.00  0.00    -0.084 Cl
HETATM   30  C11 UNL     1      26.681  -0.436  53.226  1.00  0.00     0.053 A 
ENDBRANCH  22  24
ENDBRANCH   5  22
TORSDOF 10
ENDMDL
MODEL 4
REMARK VINA RESULT:      -7.3      3.001      4.620
REMARK  10 active torsions:
REMARK  status: ('A' for Active; 'I' for Inactive)
REMARK    1  A    between atoms: C2_2  and  C3_3 
REMARK    2  A    between atoms: C5_7  and  N3_8 
REMARK    3  A    between atoms: N3_8  and  C6_9 
REMARK    4  A    between atoms: C12_16  and  C13_17 
REMARK    5  A    between atoms: C13_17  and  C14_18 
REMARK    6  A    between atoms: C14_18  and  N4_19 
REMARK       I    between atoms: N4_19  and  C15_20 
REMARK    7  A    between atoms: C15_20  and  C16_22 
REMARK    8  A    between atoms: C17_23  and  C18_24 
REMARK    9  A    between atoms: C18_24  and  N5_25 
REMARK   10  A    between atoms: N5_25  and  C19_27 
ROOT
HETATM    1  C3  UNL     1      23.070   2.373  50.554  1.00  0.00     0.082 A 
HETATM    2  N1  UNL     1      22.210   1.864  51.474  1.00  0.00    -0.240 NA
HETATM    3  C4  UNL     1      22.692   1.607  52.702  1.00  0.00     0.236 A 
HETATM    4  N2  UNL     1      23.976   1.874  52.917  1.00  0.00    -0.224 NA
HETATM    5  C5  UNL     1      24.825   2.372  52.023  1.00  0.00     0.141 A 
HETATM    6  C12 UNL     1      24.400   2.656  50.757  1.00  0.00     0.037 A 
ENDROOT
BRANCH   6   7
HETATM    7  C13 UNL     1      25.195   3.179  49.855  1.00  0.00     0.010 C 
BRANCH   7   8
HETATM    8  C14 UNL     1      25.783   4.521  49.656  1.00  0.00     0.151 C 
BRANCH   8   9
HETATM    9  N4  UNL     1      27.195   4.463  49.275  1.00  0.00    -0.347 N 
HETATM   10  C15 UNL     1      27.831   5.509  48.525  1.00  0.00     0.296 C 
HETATM   11  O1  UNL     1      27.181   6.540  48.157  1.00  0.00    -0.258 OA
HETATM   12  H12 UNL     1      27.868   3.672  49.506  1.00  0.00     0.163 HD
BRANCH  10  13
HETATM   13  C16 UNL     1      29.217   5.458  48.150  1.00  0.00    -0.004 C 
HETATM   14  C17 UNL     1      30.377   5.399  47.849  1.00  0.00    -0.080 C 
BRANCH  14  15
HETATM   15  C18 UNL     1      31.793   5.313  47.491  1.00  0.00     0.220 C 
BRANCH  15  16
HETATM   16  N5  UNL     1      32.140   3.931  47.220  1.00  0.00    -0.144 NA
HETATM   17  F1  UNL     1      32.128   3.646  45.897  1.00  0.00    -0.133 F 
BRANCH  16  18
HETATM   18  C19 UNL     1      33.450   3.573  47.740  1.00  0.00     0.122 C 
HETATM   19  C20 UNL     1      34.239   4.825  48.038  1.00  0.00     0.023 C 
ENDBRANCH  16  18
ENDBRANCH  15  16
ENDBRANCH  14  15
ENDBRANCH  10  13
ENDBRANCH   8   9
ENDBRANCH   7   8
ENDBRANCH   6   7
BRANCH   1  20
HETATM   20  C2  UNL     1      22.528   2.582  49.347  1.00  0.00    -0.004 C 
HETATM   21  C1  UNL     1      21.547   2.458  48.438  1.00  0.00     0.026 C 
ENDBRANCH   1  20
BRANCH   5  22
HETATM   22  N3  UNL     1      26.152   2.578  52.464  1.00  0.00    -0.340 N 
HETATM   23  H4  UNL     1      26.554   3.534  52.505  1.00  0.00     0.167 HD
BRANCH  22  24
HETATM   24  C6  UNL     1      27.110   1.638  52.893  1.00  0.00     0.035 A 
HETATM   25  C7  UNL     1      28.270   1.998  53.593  1.00  0.00     0.029 A 
HETATM   26  C8  UNL     1      29.231   1.123  54.024  1.00  0.00     0.004 A 
HETATM   27  C9  UNL     1      29.070  -0.215  53.765  1.00  0.00     0.024 A 
HETATM   28  C10 UNL     1      27.963  -0.667  53.083  1.00  0.00     0.036 A 
HETATM   29 CL1  UNL     1      27.814  -2.384  52.785  1.00  0.00    -0.084 Cl
HETATM   30  C11 UNL     1      27.051   0.280  52.689  1.00  0.00     0.053 A 
ENDBRANCH  22  24
ENDBRANCH   5  22
TORSDOF 10
ENDMDL
MODEL 5
REMARK VINA RESULT:      -7.2      3.188      5.648
REMARK  10 active torsions:
REMARK  status: ('A' for Active; 'I' for Inactive)
REMARK    1  A    between atoms: C2_2  and  C3_3 
REMARK    2  A    between atoms: C5_7  and  N3_8 
REMARK    3  A    between atoms: N3_8  and  C6_9 
REMARK    4  A    between atoms: C12_16  and  C13_17 
REMARK    5  A    between atoms: C13_17  and  C14_18 
REMARK    6  A    between atoms: C14_18  and  N4_19 
REMARK       I    between atoms: N4_19  and  C15_20 
REMARK    7  A    between atoms: C15_20  and  C16_22 
REMARK    8  A    between atoms: C17_23  and  C18_24 
REMARK    9  A    between atoms: C18_24  and  N5_25 
REMARK   10  A    between atoms: N5_25  and  C19_27 
ROOT
HETATM    1  C3  UNL     1      26.540  -0.410  53.382  1.00  0.00     0.082 A 
HETATM    2  N1  UNL     1      25.987  -1.175  54.360  1.00  0.00    -0.240 NA
HETATM    3  C4  UNL     1      24.692  -0.969  54.656  1.00  0.00     0.236 A 
HETATM    4  N2  UNL     1      24.055  -0.029  53.963  1.00  0.00    -0.224 NA
HETATM    5  C5  UNL     1      24.587   0.723  53.005  1.00  0.00     0.141 A 
HETATM    6  C12 UNL     1      25.898   0.564  52.656  1.00  0.00     0.037 A 
ENDROOT
BRANCH   6   7
HETATM    7  C13 UNL     1      26.453   1.262  51.694  1.00  0.00     0.010 C 
BRANCH   7   8
HETATM    8  C14 UNL     1      27.044   2.615  51.614  1.00  0.00     0.151 C 
BRANCH   8   9
HETATM    9  N4  UNL     1      26.120   3.597  51.043  1.00  0.00    -0.347 N 
HETATM   10  C15 UNL     1      26.308   4.157  49.735  1.00  0.00     0.296 C 
HETATM   11  O1  UNL     1      27.300   3.817  49.012  1.00  0.00    -0.258 OA
HETATM   12  H12 UNL     1      25.250   3.980  51.520  1.00  0.00     0.163 HD
BRANCH  10  13
HETATM   13  C16 UNL     1      25.404   5.120  49.169  1.00  0.00    -0.004 C 
HETATM   14  C17 UNL     1      24.648   5.933  48.715  1.00  0.00    -0.080 C 
BRANCH  14  15
HETATM   15  C18 UNL     1      23.727   6.934  48.176  1.00  0.00     0.220 C 
BRANCH  15  16
HETATM   16  N5  UNL     1      22.642   7.149  49.114  1.00  0.00    -0.144 NA
HETATM   17  F1  UNL     1      22.301   8.454  49.218  1.00  0.00    -0.133 F 
BRANCH  16  18
HETATM   18  C19 UNL     1      21.444   6.403  48.761  1.00  0.00     0.122 C 
HETATM   19  C20 UNL     1      21.078   5.467  49.887  1.00  0.00     0.023 C 
ENDBRANCH  16  18
ENDBRANCH  15  16
ENDBRANCH  14  15
ENDBRANCH  10  13
ENDBRANCH   8   9
ENDBRANCH   7   8
ENDBRANCH   6   7
BRANCH   1  20
HETATM   20  C2  UNL     1      27.837  -0.653  53.157  1.00  0.00    -0.004 C 
HETATM   21  C1  UNL     1      29.134  -0.643  53.505  1.00  0.00     0.026 C 
ENDBRANCH   1  20
BRANCH   5  22
HETATM   22  N3  UNL     1      23.728   1.666  52.398  1.00  0.00    -0.340 N 
HETATM   23  H4  UNL     1      23.653   2.632  52.769  1.00  0.00     0.167 HD
BRANCH  22  24
HETATM   24  C6  UNL     1      22.879   1.517  51.282  1.00  0.00     0.035 A 
HETATM   25  C7  UNL     1      21.757   0.676  51.285  1.00  0.00     0.029 A 
HETATM   26  C8  UNL     1      20.909   0.494  50.227  1.00  0.00     0.004 A 
HETATM   27  C9  UNL     1      21.151   1.176  49.061  1.00  0.00     0.024 A 
HETATM   28  C10 UNL     1      22.229   2.027  48.959  1.00  0.00     0.036 A 
HETATM   29 CL1  UNL     1      22.484   2.869  47.449  1.00  0.00    -0.084 Cl
HETATM   30  C11 UNL     1      23.027   2.148  50.070  1.00  0.00     0.053 A 
ENDBRANCH  22  24
ENDBRANCH   5  22
TORSDOF 10
ENDMDL
MODEL 6
REMARK VINA RESULT:      -7.1      1.928      2.705
REMARK  10 active torsions:
REMARK  status: ('A' for Active; 'I' for Inactive)
REMARK    1  A    between atoms: C2_2  and  C3_3 
REMARK    2  A    between atoms: C5_7  and  N3_8 
REMARK    3  A    between atoms: N3_8  and  C6_9 
REMARK    4  A    between atoms: C12_16  and  C13_17 
REMARK    5  A    between atoms: C13_17  and  C14_18 
REMARK    6  A    between atoms: C14_18  and  N4_19 
REMARK       I    between atoms: N4_19  and  C15_20 
REMARK    7  A    between atoms: C15_20  and  C16_22 
REMARK    8  A    between atoms: C17_23  and  C18_24 
REMARK    9  A    between atoms: C18_24  and  N5_25 
REMARK   10  A    between atoms: N5_25  and  C19_27 
ROOT
HETATM    1  C3  UNL     1      22.213   1.613  52.738  1.00  0.00     0.082 A 
HETATM    2  N1  UNL     1      21.882   0.596  53.575  1.00  0.00    -0.240 NA
HETATM    3  C4  UNL     1      22.823  -0.326  53.839  1.00  0.00     0.236 A 
HETATM    4  N2  UNL     1      24.008  -0.165  53.258  1.00  0.00    -0.224 NA
HETATM    5  C5  UNL     1      24.342   0.827  52.439  1.00  0.00     0.141 A 
HETATM    6  C12 UNL     1      23.432   1.797  52.129  1.00  0.00     0.037 A 
ENDROOT
BRANCH   6   7
HETATM    7  C13 UNL     1      23.730   2.811  51.353  1.00  0.00     0.010 C 
BRANCH   7   8
HETATM    8  C14 UNL     1      23.740   3.017  49.888  1.00  0.00     0.151 C 
BRANCH   8   9
HETATM    9  N4  UNL     1      24.736   4.005  49.469  1.00  0.00    -0.347 N 
HETATM   10  C15 UNL     1      26.129   3.682  49.340  1.00  0.00     0.296 C 
HETATM   11  O1  UNL     1      26.556   2.508  49.590  1.00  0.00    -0.258 OA
HETATM   12  H12 UNL     1      24.538   5.021  49.226  1.00  0.00     0.163 HD
BRANCH  10  13
HETATM   13  C16 UNL     1      27.111   4.646  48.927  1.00  0.00    -0.004 C 
HETATM   14  C17 UNL     1      27.916   5.466  48.582  1.00  0.00    -0.080 C 
BRANCH  14  15
HETATM   15  C18 UNL     1      28.886   6.478  48.165  1.00  0.00     0.220 C 
BRANCH  15  16
HETATM   16  N5  UNL     1      28.316   7.799  48.345  1.00  0.00    -0.144 NA
HETATM   17  F1  UNL     1      28.981   8.526  49.273  1.00  0.00    -0.133 F 
BRANCH  16  18
HETATM   18  C19 UNL     1      28.290   8.568  47.111  1.00  0.00     0.122 C 
HETATM   19  C20 UNL     1      29.671   9.103  46.816  1.00  0.00     0.023 C 
ENDBRANCH  16  18
ENDBRANCH  15  16
ENDBRANCH  14  15
ENDBRANCH  10  13
ENDBRANCH   8   9
ENDBRANCH   7   8
ENDBRANCH   6   7
BRANCH   1  20
HETATM   20  C2  UNL     1      21.221   2.481  52.502  1.00  0.00    -0.004 C 
HETATM   21  C1  UNL     1      20.085   2.863  51.895  1.00  0.00     0.026 C 
ENDBRANCH   1  20
BRANCH   5  22
HETATM   22  N3  UNL     1      25.660   0.805  51.930  1.00  0.00    -0.340 N 
HETATM   23  H4  UNL     1      25.835   0.672  50.916  1.00  0.00     0.167 HD
BRANCH  22  24
HETATM   24  C6  UNL     1      26.886   0.941  52.611  1.00  0.00     0.035 A 
HETATM   25  C7  UNL     1      27.373   2.176  53.066  1.00  0.00     0.029 A 
HETATM   26  C8  UNL     1      28.558   2.358  53.725  1.00  0.00     0.004 A 
HETATM   27  C9  UNL     1      29.350   1.266  53.976  1.00  0.00     0.024 A 
HETATM   28  C10 UNL     1      28.959   0.011  53.569  1.00  0.00     0.036 A 
HETATM   29 CL1  UNL     1      30.010  -1.342  53.919  1.00  0.00    -0.084 Cl
HETATM   30  C11 UNL     1      27.755  -0.080  52.914  1.00  0.00     0.053 A 
ENDBRANCH  22  24
ENDBRANCH   5  22
TORSDOF 10
ENDMDL
MODEL 7
REMARK VINA RESULT:      -7.0      3.205      5.910
REMARK  10 active torsions:
REMARK  status: ('A' for Active; 'I' for Inactive)
REMARK    1  A    between atoms: C2_2  and  C3_3 
REMARK    2  A    between atoms: C5_7  and  N3_8 
REMARK    3  A    between atoms: N3_8  and  C6_9 
REMARK    4  A    between atoms: C12_16  and  C13_17 
REMARK    5  A    between atoms: C13_17  and  C14_18 
REMARK    6  A    between atoms: C14_18  and  N4_19 
REMARK       I    between atoms: N4_19  and  C15_20 
REMARK    7  A    between atoms: C15_20  and  C16_22 
REMARK    8  A    between atoms: C17_23  and  C18_24 
REMARK    9  A    between atoms: C18_24  and  N5_25 
REMARK   10  A    between atoms: N5_25  and  C19_27 
ROOT
HETATM    1  C3  UNL     1      26.643  -0.127  54.080  1.00  0.00     0.082 A 
HETATM    2  N1  UNL     1      26.002  -0.818  55.059  1.00  0.00    -0.240 NA
HETATM    3  C4  UNL     1      24.669  -0.957  54.954  1.00  0.00     0.236 A 
HETATM    4  N2  UNL     1      24.085  -0.403  53.895  1.00  0.00    -0.224 NA
HETATM    5  C5  UNL     1      24.703   0.274  52.933  1.00  0.00     0.141 A 
HETATM    6  C12 UNL     1      26.057   0.450  52.979  1.00  0.00     0.037 A 
ENDROOT
BRANCH   6   7
HETATM    7  C13 UNL     1      26.711   1.083  52.034  1.00  0.00     0.010 C 
BRANCH   7   8
HETATM    8  C14 UNL     1      27.081   2.497  51.809  1.00  0.00     0.151 C 
BRANCH   8   9
HETATM    9  N4  UNL     1      26.003   3.264  51.180  1.00  0.00    -0.347 N 
HETATM   10  C15 UNL     1      26.169   3.927  49.918  1.00  0.00     0.296 C 
HETATM   11  O1  UNL     1      27.275   3.873  49.289  1.00  0.00    -0.258 OA
HETATM   12  H12 UNL     1      25.027   3.402  51.579  1.00  0.00     0.163 HD
BRANCH  10  13
HETATM   13  C16 UNL     1      25.115   4.680  49.296  1.00  0.00    -0.004 C 
HETATM   14  C17 UNL     1      24.230   5.316  48.795  1.00  0.00    -0.080 C 
BRANCH  14  15
HETATM   15  C18 UNL     1      23.150   6.102  48.199  1.00  0.00     0.220 C 
BRANCH  15  16
HETATM   16  N5  UNL     1      22.094   5.213  47.754  1.00  0.00    -0.144 NA
HETATM   17  F1  UNL     1      22.554   4.228  46.948  1.00  0.00    -0.133 F 
BRANCH  16  18
HETATM   18  C19 UNL     1      21.386   4.589  48.861  1.00  0.00     0.122 C 
HETATM   19  C20 UNL     1      21.290   3.100  48.628  1.00  0.00     0.023 C 
ENDBRANCH  16  18
ENDBRANCH  15  16
ENDBRANCH  14  15
ENDBRANCH  10  13
ENDBRANCH   8   9
ENDBRANCH   7   8
ENDBRANCH   6   7
BRANCH   1  20
HETATM   20  C2  UNL     1      27.965  -0.010  54.261  1.00  0.00    -0.004 C 
HETATM   21  C1  UNL     1      29.233   0.033  53.822  1.00  0.00     0.026 C 
ENDBRANCH   1  20
BRANCH   5  22
HETATM   22  N3  UNL     1      23.887   0.780  51.897  1.00  0.00    -0.340 N 
HETATM   23  H4  UNL     1      24.245   0.848  50.925  1.00  0.00     0.167 HD
BRANCH  22  24
HETATM   24  C6  UNL     1      22.560   1.251  51.950  1.00  0.00     0.035 A 
HETATM   25  C7  UNL     1      22.234   2.573  52.288  1.00  0.00     0.029 A 
HETATM   26  C8  UNL     1      20.963   3.075  52.359  1.00  0.00     0.004 A 
HETATM   27  C9  UNL     1      19.907   2.243  52.082  1.00  0.00     0.024 A 
HETATM   28  C10 UNL     1      20.125   0.927  51.740  1.00  0.00     0.036 A 
HETATM   29 CL1  UNL     1      18.740  -0.083  51.397  1.00  0.00    -0.084 Cl
HETATM   30  C11 UNL     1      21.432   0.509  51.693  1.00  0.00     0.053 A 
ENDBRANCH  22  24
ENDBRANCH   5  22
TORSDOF 10
ENDMDL
MODEL 8
REMARK VINA RESULT:      -6.9      3.801      7.064
REMARK  10 active torsions:
REMARK  status: ('A' for Active; 'I' for Inactive)
REMARK    1  A    between atoms: C2_2  and  C3_3 
REMARK    2  A    between atoms: C5_7  and  N3_8 
REMARK    3  A    between atoms: N3_8  and  C6_9 
REMARK    4  A    between atoms: C12_16  and  C13_17 
REMARK    5  A    between atoms: C13_17  and  C14_18 
REMARK    6  A    between atoms: C14_18  and  N4_19 
REMARK       I    between atoms: N4_19  and  C15_20 
REMARK    7  A    between atoms: C15_20  and  C16_22 
REMARK    8  A    between atoms: C17_23  and  C18_24 
REMARK    9  A    between atoms: C18_24  and  N5_25 
REMARK   10  A    between atoms: N5_25  and  C19_27 
ROOT
HETATM    1  C3  UNL     1      21.780   4.012  47.845  1.00  0.00     0.082 A 
HETATM    2  N1  UNL     1      20.469   3.939  47.495  1.00  0.00    -0.240 NA
HETATM    3  C4  UNL     1      19.749   2.914  47.983  1.00  0.00     0.236 A 
HETATM    4  N2  UNL     1      20.382   2.052  48.773  1.00  0.00    -0.224 NA
HETATM    5  C5  UNL     1      21.663   2.115  49.122  1.00  0.00     0.141 A 
HETATM    6  C12 UNL     1      22.451   3.132  48.661  1.00  0.00     0.037 A 
ENDROOT
BRANCH   6   7
HETATM    7  C13 UNL     1      23.710   3.250  49.007  1.00  0.00     0.010 C 
BRANCH   7   8
HETATM    8  C14 UNL     1      24.419   3.989  50.073  1.00  0.00     0.151 C 
BRANCH   8   9
HETATM    9  N4  UNL     1      24.638   3.174  51.269  1.00  0.00    -0.347 N 
HETATM   10  C15 UNL     1      25.916   2.603  51.584  1.00  0.00     0.296 C 
HETATM   11  O1  UNL     1      26.922   2.785  50.824  1.00  0.00    -0.258 OA
HETATM   12  H12 UNL     1      23.902   2.932  51.998  1.00  0.00     0.163 HD
BRANCH  10  13
HETATM   13  C16 UNL     1      26.137   1.803  52.757  1.00  0.00    -0.004 C 
HETATM   14  C17 UNL     1      26.336   1.125  53.727  1.00  0.00    -0.080 C 
BRANCH  14  15
HETATM   15  C18 UNL     1      26.594   0.293  54.902  1.00  0.00     0.220 C 
BRANCH  15  16
HETATM   16  N5  UNL     1      27.691  -0.614  54.622  1.00  0.00    -0.144 NA
HETATM   17  F1  UNL     1      27.547  -1.246  53.434  1.00  0.00    -0.133 F 
BRANCH  16  18
HETATM   18  C19 UNL     1      28.981   0.056  54.616  1.00  0.00     0.122 C 
HETATM   19  C20 UNL     1      29.859  -0.540  53.541  1.00  0.00     0.023 C 
ENDBRANCH  16  18
ENDBRANCH  15  16
ENDBRANCH  14  15
ENDBRANCH  10  13
ENDBRANCH   8   9
ENDBRANCH   7   8
ENDBRANCH   6   7
BRANCH   1  20
HETATM   20  C2  UNL     1      22.440   5.044  47.305  1.00  0.00    -0.004 C 
HETATM   21  C1  UNL     1      22.938   6.291  47.331  1.00  0.00     0.026 C 
ENDBRANCH   1  20
BRANCH   5  22
HETATM   22  N3  UNL     1      22.133   1.090  49.973  1.00  0.00    -0.340 N 
HETATM   23  H4  UNL     1      22.926   0.484  49.686  1.00  0.00     0.167 HD
BRANCH  22  24
HETATM   24  C6  UNL     1      21.680   0.709  51.252  1.00  0.00     0.035 A 
HETATM   25  C7  UNL     1      22.474   0.808  52.403  1.00  0.00     0.029 A 
HETATM   26  C8  UNL     1      22.080   0.445  53.663  1.00  0.00     0.004 A 
HETATM   27  C9  UNL     1      20.816  -0.056  53.842  1.00  0.00     0.024 A 
HETATM   28  C10 UNL     1      19.960  -0.193  52.771  1.00  0.00     0.036 A 
HETATM   29 CL1  UNL     1      18.361  -0.837  53.062  1.00  0.00    -0.084 Cl
HETATM   30  C11 UNL     1      20.438   0.196  51.544  1.00  0.00     0.053 A 
ENDBRANCH  22  24
ENDBRANCH   5  22
TORSDOF 10
ENDMDL
MODEL 9
REMARK VINA RESULT:      -6.9      3.944      6.506
REMARK  10 active torsions:
REMARK  status: ('A' for Active; 'I' for Inactive)
REMARK    1  A    between atoms: C2_2  and  C3_3 
REMARK    2  A    between atoms: C5_7  and  N3_8 
REMARK    3  A    between atoms: N3_8  and  C6_9 
REMARK    4  A    between atoms: C12_16  and  C13_17 
REMARK    5  A    between atoms: C13_17  and  C14_18 
REMARK    6  A    between atoms: C14_18  and  N4_19 
REMARK       I    between atoms: N4_19  and  C15_20 
REMARK    7  A    between atoms: C15_20  and  C16_22 
REMARK    8  A    between atoms: C17_23  and  C18_24 
REMARK    9  A    between atoms: C18_24  and  N5_25 
REMARK   10  A    between atoms: N5_25  and  C19_27 
ROOT
HETATM    1  C3  UNL     1      21.281  -0.575  53.772  1.00  0.00     0.082 A 
HETATM    2  N1  UNL     1      21.553  -1.061  55.011  1.00  0.00    -0.240 NA
HETATM    3  C4  UNL     1      22.844  -1.210  55.353  1.00  0.00     0.236 A 
HETATM    4  N2  UNL     1      23.754  -0.866  54.446  1.00  0.00    -0.224 NA
HETATM    5  C5  UNL     1      23.497  -0.389  53.232  1.00  0.00     0.141 A 
HETATM    6  C12 UNL     1      22.206  -0.213  52.822  1.00  0.00     0.037 A 
ENDROOT
BRANCH   6   7
HETATM    7  C13 UNL     1      21.909   0.285  51.646  1.00  0.00     0.010 C 
BRANCH   7   8
HETATM    8  C14 UNL     1      21.758   1.659  51.119  1.00  0.00     0.151 C 
BRANCH   8   9
HETATM    9  N4  UNL     1      20.355   2.033  50.928  1.00  0.00    -0.347 N 
HETATM   10  C15 UNL     1      19.631   2.812  51.892  1.00  0.00     0.296 C 
HETATM   11  O1  UNL     1      20.189   3.211  52.965  1.00  0.00    -0.258 OA
HETATM   12  H12 UNL     1      19.754   1.777  50.089  1.00  0.00     0.163 HD
BRANCH  10  13
HETATM   13  C16 UNL     1      18.255   3.184  51.708  1.00  0.00    -0.004 C 
HETATM   14  C17 UNL     1      17.109   3.508  51.569  1.00  0.00    -0.080 C 
BRANCH  14  15
HETATM   15  C18 UNL     1      15.714   3.918  51.410  1.00  0.00     0.220 C 
BRANCH  15  16
HETATM   16  N5  UNL     1      14.990   3.661  52.640  1.00  0.00    -0.144 NA
HETATM   17  F1  UNL     1      13.902   4.454  52.774  1.00  0.00    -0.133 F 
BRANCH  16  18
HETATM   18  C19 UNL     1      14.550   2.279  52.751  1.00  0.00     0.122 C 
HETATM   19  C20 UNL     1      13.764   1.896  51.520  1.00  0.00     0.023 C 
ENDBRANCH  16  18
ENDBRANCH  15  16
ENDBRANCH  14  15
ENDBRANCH  10  13
ENDBRANCH   8   9
ENDBRANCH   7   8
ENDBRANCH   6   7
BRANCH   1  20
HETATM   20  C2  UNL     1      19.975  -0.475  53.492  1.00  0.00    -0.004 C 
HETATM   21  C1  UNL     1      18.768  -0.995  53.216  1.00  0.00     0.026 C 
ENDBRANCH   1  20
BRANCH   5  22
HETATM   22  N3  UNL     1      24.618  -0.088  52.426  1.00  0.00    -0.340 N 
HETATM   23  H4  UNL     1      24.554  -0.134  51.391  1.00  0.00     0.167 HD
BRANCH  22  24
HETATM   24  C6  UNL     1      25.919   0.294  52.807  1.00  0.00     0.035 A 
HETATM   25  C7  UNL     1      26.265   1.618  53.117  1.00  0.00     0.029 A 
HETATM   26  C8  UNL     1      27.514   2.038  53.485  1.00  0.00     0.004 A 
HETATM   27  C9  UNL     1      28.525   1.113  53.568  1.00  0.00     0.024 A 
HETATM   28  C10 UNL     1      28.285  -0.212  53.283  1.00  0.00     0.036 A 
HETATM   29 CL1  UNL     1      29.613  -1.343  53.407  1.00  0.00    -0.084 Cl
HETATM   30  C11 UNL     1      27.003  -0.544  52.921  1.00  0.00     0.053 A 
ENDBRANCH  22  24
ENDBRANCH   5  22
TORSDOF 10
ENDMDL
