MODEL 1
REMARK VINA RESULT:      -8.1      0.000      0.000
REMARK  5 active torsions:
REMARK  status: ('A' for Active; 'I' for Inactive)
REMARK    1  A    between atoms: C6_9  and  N4_10 
REMARK       I    between atoms: N4_10  and  C7_11 
REMARK    2  A    between atoms: C7_11  and  C8_13 
REMARK    3  A    between atoms: C9_14  and  C10_15 
REMARK    4  A    between atoms: C10_15  and  C11_16 
REMARK    5  A    between atoms: C11_16  and  N5_17 
ROOT
HETATM    1  N4  UNL     1      26.970   3.354  50.820  1.00  0.00    -0.301 N 
HETATM    2  C7  UNL     1      26.271   3.856  49.688  1.00  0.00     0.302 C 
HETATM    3  O1  UNL     1      25.167   3.416  49.322  1.00  0.00    -0.258 OA
HETATM    4  H6  UNL     1      27.902   3.730  51.125  1.00  0.00     0.171 HD
ENDROOT
BRANCH   1   5
HETATM    5  C6  UNL     1      26.858   2.382  51.848  1.00  0.00     0.131 A 
HETATM    6  N3  UNL     1      27.850   1.952  52.652  1.00  0.00    -0.241 NA
HETATM    7  C5  UNL     1      27.635   1.024  53.598  1.00  0.00     0.151 A 
HETATM    8  C4  UNL     1      26.370   0.494  53.754  1.00  0.00     0.088 A 
HETATM    9  N2  UNL     1      26.135  -0.442  54.703  1.00  0.00    -0.240 NA
HETATM   10  C17 UNL     1      25.293   0.867  52.986  1.00  0.00     0.022 A 
HETATM   11  C3  UNL     1      24.886  -0.957  54.849  1.00  0.00     0.234 A 
HETATM   12  N1  UNL     1      23.860  -0.561  54.070  1.00  0.00    -0.246 NA
HETATM   13  C2  UNL     1      24.026   0.358  53.118  1.00  0.00     0.044 A 
HETATM   14  C1  UNL     1      22.964   0.872  52.200  1.00  0.00     0.071 C 
HETATM   15  C16 UNL     1      25.585   1.832  52.025  1.00  0.00     0.066 A 
ENDBRANCH   1   5
BRANCH   2  16
HETATM   16  C8  UNL     1      26.938   4.929  48.982  1.00  0.00    -0.005 C 
HETATM   17  C9  UNL     1      27.503   5.847  48.403  1.00  0.00    -0.095 C 
BRANCH  17  18
HETATM   18  C10 UNL     1      28.159   6.961  47.715  1.00  0.00     0.124 C 
BRANCH  18  19
HETATM   19  C11 UNL     1      29.216   7.517  48.605  1.00  0.00     0.284 C 
BRANCH  19  20
HETATM   20  N5  UNL     1      30.514   7.612  48.055  1.00  0.00     0.093 N 
HETATM   21  C12 UNL     1      30.937   6.565  47.171  1.00  0.00     0.298 C 
HETATM   22  C13 UNL     1      31.189   5.251  47.872  1.00  0.00     0.198 C 
HETATM   23  O2  UNL     1      31.139   5.360  49.269  1.00  0.00    -0.388 OA
HETATM   24  C14 UNL     1      31.917   6.409  49.689  1.00  0.00     0.198 C 
HETATM   25  C15 UNL     1      31.528   7.746  49.079  1.00  0.00     0.298 C 
ENDBRANCH  19  20
ENDBRANCH  18  19
ENDBRANCH  17  18
ENDBRANCH   2  16
TORSDOF 5
ENDMDL
MODEL 2
REMARK VINA RESULT:      -7.8      1.730      2.698
REMARK  5 active torsions:
REMARK  status: ('A' for Active; 'I' for Inactive)
REMARK    1  A    between atoms: C6_9  and  N4_10 
REMARK       I    between atoms: N4_10  and  C7_11 
REMARK    2  A    between atoms: C7_11  and  C8_13 
REMARK    3  A    between atoms: C9_14  and  C10_15 
REMARK    4  A    between atoms: C10_15  and  C11_16 
REMARK    5  A    between atoms: C11_16  and  N5_17 
ROOT
HETATM    1  N4  UNL     1      26.798   3.573  50.188  1.00  0.00    -0.301 N 
HETATM    2  C7  UNL     1      26.579   4.606  49.236  1.00  0.00     0.302 C 
HETATM    3  O1  UNL     1      25.445   4.994  48.905  1.00  0.00    -0.258 OA
HETATM    4  H6  UNL     1      27.758   3.248  50.464  1.00  0.00     0.171 HD
ENDROOT
BRANCH   1   5
HETATM    5  C6  UNL     1      26.091   2.678  51.033  1.00  0.00     0.131 A 
HETATM    6  N3  UNL     1      24.756   2.501  51.070  1.00  0.00    -0.241 NA
HETATM    7  C5  UNL     1      24.186   1.624  51.911  1.00  0.00     0.151 A 
HETATM    8  C4  UNL     1      24.983   0.883  52.761  1.00  0.00     0.088 A 
HETATM    9  N2  UNL     1      24.426  -0.006  53.616  1.00  0.00    -0.240 NA
HETATM   10  C17 UNL     1      26.353   0.990  52.799  1.00  0.00     0.022 A 
HETATM   11  C3  UNL     1      25.220  -0.730  54.449  1.00  0.00     0.234 A 
HETATM   12  N1  UNL     1      26.560  -0.590  54.452  1.00  0.00    -0.246 NA
HETATM   13  C2  UNL     1      27.169   0.268  53.633  1.00  0.00     0.044 A 
HETATM   14  C1  UNL     1      28.643   0.505  53.548  1.00  0.00     0.071 C 
HETATM   15  C16 UNL     1      26.877   1.917  51.902  1.00  0.00     0.066 A 
ENDBRANCH   1   5
BRANCH   2  16
HETATM   16  C8  UNL     1      27.780   5.185  48.672  1.00  0.00    -0.005 C 
HETATM   17  C9  UNL     1      28.806   5.665  48.210  1.00  0.00    -0.095 C 
BRANCH  17  18
HETATM   18  C10 UNL     1      30.036   6.255  47.680  1.00  0.00     0.124 C 
BRANCH  18  19
HETATM   19  C11 UNL     1      31.168   5.326  47.951  1.00  0.00     0.284 C 
BRANCH  19  20
HETATM   20  N5  UNL     1      32.430   5.709  47.443  1.00  0.00     0.093 N 
HETATM   21  C12 UNL     1      32.651   5.554  46.034  1.00  0.00     0.298 C 
HETATM   22  C13 UNL     1      32.767   4.113  45.598  1.00  0.00     0.198 C 
HETATM   23  O2  UNL     1      32.821   3.219  46.677  1.00  0.00    -0.388 OA
HETATM   24  C14 UNL     1      33.758   3.635  47.589  1.00  0.00     0.198 C 
HETATM   25  C15 UNL     1      33.516   5.036  48.125  1.00  0.00     0.298 C 
ENDBRANCH  19  20
ENDBRANCH  18  19
ENDBRANCH  17  18
ENDBRANCH   2  16
TORSDOF 5
ENDMDL
MODEL 3
REMARK VINA RESULT:      -7.8      1.932      3.077
REMARK  5 active torsions:
REMARK  status: ('A' for Active; 'I' for Inactive)
REMARK    1  A    between atoms: C6_9  and  N4_10 
REMARK       I    between atoms: N4_10  and  C7_11 
REMARK    2  A    between atoms: C7_11  and  C8_13 
REMARK    3  A    between atoms: C9_14  and  C10_15 
REMARK    4  A    between atoms: C10_15  and  C11_16 
REMARK    5  A    between atoms: C11_16  and  N5_17 
ROOT
HETATM    1  N4  UNL     1      26.793   3.604  50.314  1.00  0.00    -0.301 N 
HETATM    2  C7  UNL     1      26.443   4.559  49.320  1.00  0.00     0.302 C 
HETATM    3  O1  UNL     1      25.268   4.800  48.994  1.00  0.00    -0.258 OA
HETATM    4  H6  UNL     1      27.788   3.404  50.586  1.00  0.00     0.171 HD
ENDROOT
BRANCH   1   5
HETATM    5  C6  UNL     1      26.204   2.675  51.212  1.00  0.00     0.131 A 
HETATM    6  N3  UNL     1      24.920   2.268  51.212  1.00  0.00    -0.241 NA
HETATM    7  C5  UNL     1      24.465   1.381  52.111  1.00  0.00     0.151 A 
HETATM    8  C4  UNL     1      25.328   0.872  53.060  1.00  0.00     0.088 A 
HETATM    9  N2  UNL     1      24.886  -0.023  53.974  1.00  0.00    -0.240 NA
HETATM   10  C17 UNL     1      26.655   1.224  53.143  1.00  0.00     0.022 A 
HETATM   11  C3  UNL     1      25.745  -0.518  54.905  1.00  0.00     0.234 A 
HETATM   12  N1  UNL     1      27.039  -0.143  54.947  1.00  0.00    -0.246 NA
HETATM   13  C2  UNL     1      27.535   0.735  54.074  1.00  0.00     0.044 A 
HETATM   14  C1  UNL     1      28.948   1.221  54.027  1.00  0.00     0.071 C 
HETATM   15  C16 UNL     1      27.060   2.146  52.182  1.00  0.00     0.066 A 
ENDBRANCH   1   5
BRANCH   2  16
HETATM   16  C8  UNL     1      27.562   5.243  48.707  1.00  0.00    -0.005 C 
HETATM   17  C9  UNL     1      28.513   5.828  48.207  1.00  0.00    -0.095 C 
BRANCH  17  18
HETATM   18  C10 UNL     1      29.641   6.551  47.617  1.00  0.00     0.124 C 
BRANCH  18  19
HETATM   19  C11 UNL     1      29.411   8.013  47.783  1.00  0.00     0.284 C 
BRANCH  19  20
HETATM   20  N5  UNL     1      29.467   8.512  49.104  1.00  0.00     0.093 N 
HETATM   21  C12 UNL     1      28.346   9.274  49.573  1.00  0.00     0.298 C 
HETATM   22  C13 UNL     1      28.231  10.634  48.926  1.00  0.00     0.198 C 
HETATM   23  O2  UNL     1      29.342  10.957  48.135  1.00  0.00    -0.388 OA
HETATM   24  C14 UNL     1      30.501  10.735  48.834  1.00  0.00     0.198 C 
HETATM   25  C15 UNL     1      30.654   9.308  49.334  1.00  0.00     0.298 C 
ENDBRANCH  19  20
ENDBRANCH  18  19
ENDBRANCH  17  18
ENDBRANCH   2  16
TORSDOF 5
ENDMDL
MODEL 4
REMARK VINA RESULT:      -7.8      1.424      2.563
REMARK  5 active torsions:
REMARK  status: ('A' for Active; 'I' for Inactive)
REMARK    1  A    between atoms: C6_9  and  N4_10 
REMARK       I    between atoms: N4_10  and  C7_11 
REMARK    2  A    between atoms: C7_11  and  C8_13 
REMARK    3  A    between atoms: C9_14  and  C10_15 
REMARK    4  A    between atoms: C10_15  and  C11_16 
REMARK    5  A    between atoms: C11_16  and  N5_17 
ROOT
HETATM    1  N4  UNL     1      26.738   3.668  50.341  1.00  0.00    -0.301 N 
HETATM    2  C7  UNL     1      26.365   4.599  49.333  1.00  0.00     0.302 C 
HETATM    3  O1  UNL     1      25.189   4.770  48.969  1.00  0.00    -0.258 OA
HETATM    4  H6  UNL     1      27.734   3.528  50.645  1.00  0.00     0.171 HD
ENDROOT
BRANCH   1   5
HETATM    5  C6  UNL     1      26.177   2.709  51.224  1.00  0.00     0.131 A 
HETATM    6  N3  UNL     1      24.908   2.259  51.212  1.00  0.00    -0.241 NA
HETATM    7  C5  UNL     1      24.478   1.345  52.097  1.00  0.00     0.151 A 
HETATM    8  C4  UNL     1      25.353   0.854  53.044  1.00  0.00     0.088 A 
HETATM    9  N2  UNL     1      24.937  -0.068  53.945  1.00  0.00    -0.240 NA
HETATM   10  C17 UNL     1      26.666   1.249  53.139  1.00  0.00     0.022 A 
HETATM   11  C3  UNL     1      25.807  -0.545  54.874  1.00  0.00     0.234 A 
HETATM   12  N1  UNL     1      27.087  -0.126  54.929  1.00  0.00    -0.246 NA
HETATM   13  C2  UNL     1      27.558   0.779  54.070  1.00  0.00     0.044 A 
HETATM   14  C1  UNL     1      28.954   1.314  54.036  1.00  0.00     0.071 C 
HETATM   15  C16 UNL     1      27.046   2.197  52.192  1.00  0.00     0.066 A 
ENDBRANCH   1   5
BRANCH   2  16
HETATM   16  C8  UNL     1      27.461   5.346  48.752  1.00  0.00    -0.005 C 
HETATM   17  C9  UNL     1      28.387   5.990  48.279  1.00  0.00    -0.095 C 
BRANCH  17  18
HETATM   18  C10 UNL     1      29.481   6.781  47.711  1.00  0.00     0.124 C 
BRANCH  18  19
HETATM   19  C11 UNL     1      30.680   5.909  47.572  1.00  0.00     0.284 C 
BRANCH  19  20
HETATM   20  N5  UNL     1      31.469   5.737  48.732  1.00  0.00     0.093 N 
HETATM   21  C12 UNL     1      31.797   6.911  49.490  1.00  0.00     0.298 C 
HETATM   22  C13 UNL     1      32.784   7.818  48.796  1.00  0.00     0.198 C 
HETATM   23  O2  UNL     1      33.325   7.249  47.634  1.00  0.00    -0.388 OA
HETATM   24  C14 UNL     1      33.777   5.980  47.896  1.00  0.00     0.198 C 
HETATM   25  C15 UNL     1      32.710   5.049  48.447  1.00  0.00     0.298 C 
ENDBRANCH  19  20
ENDBRANCH  18  19
ENDBRANCH  17  18
ENDBRANCH   2  16
TORSDOF 5
ENDMDL
MODEL 5
REMARK VINA RESULT:      -7.7      2.006      2.788
REMARK  5 active torsions:
REMARK  status: ('A' for Active; 'I' for Inactive)
REMARK    1  A    between atoms: C6_9  and  N4_10 
REMARK       I    between atoms: N4_10  and  C7_11 
REMARK    2  A    between atoms: C7_11  and  C8_13 
REMARK    3  A    between atoms: C9_14  and  C10_15 
REMARK    4  A    between atoms: C10_15  and  C11_16 
REMARK    5  A    between atoms: C11_16  and  N5_17 
ROOT
HETATM    1  N4  UNL     1      26.932   3.146  51.001  1.00  0.00    -0.301 N 
HETATM    2  C7  UNL     1      26.291   3.633  49.829  1.00  0.00     0.302 C 
HETATM    3  O1  UNL     1      25.197   3.201  49.424  1.00  0.00    -0.258 OA
HETATM    4  H6  UNL     1      27.856   3.515  51.338  1.00  0.00     0.171 HD
ENDROOT
BRANCH   1   5
HETATM    5  C6  UNL     1      26.759   2.200  52.045  1.00  0.00     0.131 A 
HETATM    6  N3  UNL     1      27.705   1.784  52.909  1.00  0.00    -0.241 NA
HETATM    7  C5  UNL     1      27.434   0.880  53.864  1.00  0.00     0.151 A 
HETATM    8  C4  UNL     1      26.160   0.360  53.966  1.00  0.00     0.088 A 
HETATM    9  N2  UNL     1      25.869  -0.552  54.923  1.00  0.00    -0.240 NA
HETATM   10  C17 UNL     1      25.127   0.721  53.133  1.00  0.00     0.022 A 
HETATM   11  C3  UNL     1      24.610  -1.057  55.015  1.00  0.00     0.234 A 
HETATM   12  N1  UNL     1      23.629  -0.674  54.173  1.00  0.00    -0.246 NA
HETATM   13  C2  UNL     1      23.851   0.222  53.211  1.00  0.00     0.044 A 
HETATM   14  C1  UNL     1      22.843   0.719  52.226  1.00  0.00     0.071 C 
HETATM   15  C16 UNL     1      25.476   1.661  52.167  1.00  0.00     0.066 A 
ENDBRANCH   1   5
BRANCH   2  16
HETATM   16  C8  UNL     1      27.005   4.680  49.129  1.00  0.00    -0.005 C 
HETATM   17  C9  UNL     1      27.617   5.549  48.525  1.00  0.00    -0.095 C 
BRANCH  17  18
HETATM   18  C10 UNL     1      28.373   6.580  47.811  1.00  0.00     0.124 C 
BRANCH  18  19
HETATM   19  C11 UNL     1      27.469   7.732  47.535  1.00  0.00     0.284 C 
BRANCH  19  20
HETATM   20  N5  UNL     1      27.971   9.014  47.853  1.00  0.00     0.093 N 
HETATM   21  C12 UNL     1      28.471   9.219  49.182  1.00  0.00     0.298 C 
HETATM   22  C13 UNL     1      27.389   9.239  50.235  1.00  0.00     0.198 C 
HETATM   23  O2  UNL     1      26.097   9.237  49.690  1.00  0.00    -0.388 OA
HETATM   24  C14 UNL     1      25.992  10.204  48.722  1.00  0.00     0.198 C 
HETATM   25  C15 UNL     1      27.000  10.056  47.594  1.00  0.00     0.298 C 
ENDBRANCH  19  20
ENDBRANCH  18  19
ENDBRANCH  17  18
ENDBRANCH   2  16
TORSDOF 5
ENDMDL
MODEL 6
REMARK VINA RESULT:      -7.4      2.225      9.105
REMARK  5 active torsions:
REMARK  status: ('A' for Active; 'I' for Inactive)
REMARK    1  A    between atoms: C6_9  and  N4_10 
REMARK       I    between atoms: N4_10  and  C7_11 
REMARK    2  A    between atoms: C7_11  and  C8_13 
REMARK    3  A    between atoms: C9_14  and  C10_15 
REMARK    4  A    between atoms: C10_15  and  C11_16 
REMARK    5  A    between atoms: C11_16  and  N5_17 
ROOT
HETATM    1  N4  UNL     1      28.149   5.108  48.897  1.00  0.00    -0.301 N 
HETATM    2  C7  UNL     1      26.761   4.874  49.096  1.00  0.00     0.302 C 
HETATM    3  O1  UNL     1      25.873   5.578  48.583  1.00  0.00    -0.258 OA
HETATM    4  H6  UNL     1      28.895   4.511  49.332  1.00  0.00     0.171 HD
ENDROOT
BRANCH   1   5
HETATM    5  C6  UNL     1      29.038   5.988  48.224  1.00  0.00     0.131 A 
HETATM    6  N3  UNL     1      28.786   7.265  47.876  1.00  0.00    -0.241 NA
HETATM    7  C5  UNL     1      29.702   8.012  47.239  1.00  0.00     0.151 A 
HETATM    8  C4  UNL     1      30.930   7.464  46.931  1.00  0.00     0.088 A 
HETATM    9  N2  UNL     1      31.865   8.203  46.289  1.00  0.00    -0.240 NA
HETATM   10  C17 UNL     1      31.283   6.173  47.243  1.00  0.00     0.022 A 
HETATM   11  C3  UNL     1      33.072   7.654  45.990  1.00  0.00     0.234 A 
HETATM   12  N1  UNL     1      33.372   6.381  46.316  1.00  0.00    -0.246 NA
HETATM   13  C2  UNL     1      32.495   5.602  46.949  1.00  0.00     0.044 A 
HETATM   14  C1  UNL     1      32.719   4.182  47.359  1.00  0.00     0.071 C 
HETATM   15  C16 UNL     1      30.288   5.454  47.902  1.00  0.00     0.066 A 
ENDBRANCH   1   5
BRANCH   2  16
HETATM   16  C8  UNL     1      26.446   3.745  49.946  1.00  0.00    -0.005 C 
HETATM   17  C9  UNL     1      26.174   2.805  50.680  1.00  0.00    -0.095 C 
BRANCH  17  18
HETATM   18  C10 UNL     1      25.870   1.686  51.574  1.00  0.00     0.124 C 
BRANCH  18  19
HETATM   19  C11 UNL     1      27.125   1.264  52.256  1.00  0.00     0.284 C 
BRANCH  19  20
HETATM   20  N5  UNL     1      27.179  -0.077  52.697  1.00  0.00     0.093 N 
HETATM   21  C12 UNL     1      26.182  -0.506  53.636  1.00  0.00     0.298 C 
HETATM   22  C13 UNL     1      26.356   0.091  55.013  1.00  0.00     0.198 C 
HETATM   23  O2  UNL     1      27.559   0.798  55.152  1.00  0.00    -0.388 OA
HETATM   24  C14 UNL     1      28.609   0.038  54.704  1.00  0.00     0.198 C 
HETATM   25  C15 UNL     1      28.470  -0.412  53.259  1.00  0.00     0.298 C 
ENDBRANCH  19  20
ENDBRANCH  18  19
ENDBRANCH  17  18
ENDBRANCH   2  16
TORSDOF 5
ENDMDL
MODEL 7
REMARK VINA RESULT:      -7.0      1.377      2.492
REMARK  5 active torsions:
REMARK  status: ('A' for Active; 'I' for Inactive)
REMARK    1  A    between atoms: C6_9  and  N4_10 
REMARK       I    between atoms: N4_10  and  C7_11 
REMARK    2  A    between atoms: C7_11  and  C8_13 
REMARK    3  A    between atoms: C9_14  and  C10_15 
REMARK    4  A    between atoms: C10_15  and  C11_16 
REMARK    5  A    between atoms: C11_16  and  N5_17 
ROOT
HETATM    1  N4  UNL     1      25.762   3.789  50.546  1.00  0.00    -0.301 N 
HETATM    2  C7  UNL     1      25.402   5.060  50.021  1.00  0.00     0.302 C 
HETATM    3  O1  UNL     1      24.308   5.604  50.249  1.00  0.00    -0.258 OA
HETATM    4  H6  UNL     1      26.688   3.334  50.350  1.00  0.00     0.171 HD
ENDROOT
BRANCH   1   5
HETATM    5  C6  UNL     1      25.253   2.744  51.362  1.00  0.00     0.131 A 
HETATM    6  N3  UNL     1      23.994   2.265  51.354  1.00  0.00    -0.241 NA
HETATM    7  C5  UNL     1      23.616   1.270  52.171  1.00  0.00     0.151 A 
HETATM    8  C4  UNL     1      24.534   0.722  53.044  1.00  0.00     0.088 A 
HETATM    9  N2  UNL     1      24.171  -0.283  53.875  1.00  0.00    -0.240 NA
HETATM   10  C17 UNL     1      25.841   1.140  53.128  1.00  0.00     0.022 A 
HETATM   11  C3  UNL     1      25.083  -0.815  54.730  1.00  0.00     0.234 A 
HETATM   12  N1  UNL     1      26.355  -0.371  54.778  1.00  0.00    -0.246 NA
HETATM   13  C2  UNL     1      26.776   0.615  53.985  1.00  0.00     0.044 A 
HETATM   14  C1  UNL     1      28.157   1.185  53.951  1.00  0.00     0.071 C 
HETATM   15  C16 UNL     1      26.166   2.174  52.254  1.00  0.00     0.066 A 
ENDBRANCH   1   5
BRANCH   2  16
HETATM   16  C8  UNL     1      26.410   5.689  49.193  1.00  0.00    -0.005 C 
HETATM   17  C9  UNL     1      27.246   6.233  48.486  1.00  0.00    -0.095 C 
BRANCH  17  18
HETATM   18  C10 UNL     1      28.235   6.877  47.618  1.00  0.00     0.124 C 
BRANCH  18  19
HETATM   19  C11 UNL     1      29.409   7.274  48.444  1.00  0.00     0.284 C 
BRANCH  19  20
HETATM   20  N5  UNL     1      30.565   6.472  48.319  1.00  0.00     0.093 N 
HETATM   21  C12 UNL     1      31.578   6.607  49.326  1.00  0.00     0.298 C 
HETATM   22  C13 UNL     1      32.323   7.919  49.258  1.00  0.00     0.198 C 
HETATM   23  O2  UNL     1      32.007   8.666  48.114  1.00  0.00    -0.388 OA
HETATM   24  C14 UNL     1      32.099   7.879  46.994  1.00  0.00     0.198 C 
HETATM   25  C15 UNL     1      31.211   6.646  47.035  1.00  0.00     0.298 C 
ENDBRANCH  19  20
ENDBRANCH  18  19
ENDBRANCH  17  18
ENDBRANCH   2  16
TORSDOF 5
ENDMDL
MODEL 8
REMARK VINA RESULT:      -7.0      2.270      9.187
REMARK  5 active torsions:
REMARK  status: ('A' for Active; 'I' for Inactive)
REMARK    1  A    between atoms: C6_9  and  N4_10 
REMARK       I    between atoms: N4_10  and  C7_11 
REMARK    2  A    between atoms: C7_11  and  C8_13 
REMARK    3  A    between atoms: C9_14  and  C10_15 
REMARK    4  A    between atoms: C10_15  and  C11_16 
REMARK    5  A    between atoms: C11_16  and  N5_17 
ROOT
HETATM    1  N4  UNL     1      28.440   5.238  48.899  1.00  0.00    -0.301 N 
HETATM    2  C7  UNL     1      27.040   5.007  48.966  1.00  0.00     0.302 C 
HETATM    3  O1  UNL     1      26.205   5.718  48.378  1.00  0.00    -0.258 OA
HETATM    4  H6  UNL     1      29.141   4.635  49.397  1.00  0.00     0.171 HD
ENDROOT
BRANCH   1   5
HETATM    5  C6  UNL     1      29.391   6.120  48.318  1.00  0.00     0.131 A 
HETATM    6  N3  UNL     1      30.472   5.766  47.597  1.00  0.00    -0.241 NA
HETATM    7  C5  UNL     1      31.310   6.684  47.091  1.00  0.00     0.151 A 
HETATM    8  C4  UNL     1      31.064   8.023  47.314  1.00  0.00     0.088 A 
HETATM    9  N2  UNL     1      31.899   8.963  46.811  1.00  0.00    -0.240 NA
HETATM   10  C17 UNL     1      29.989   8.486  48.035  1.00  0.00     0.022 A 
HETATM   11  C3  UNL     1      31.647  10.280  47.036  1.00  0.00     0.234 A 
HETATM   12  N1  UNL     1      30.579  10.686  47.752  1.00  0.00    -0.246 NA
HETATM   13  C2  UNL     1      29.719   9.810  48.273  1.00  0.00     0.044 A 
HETATM   14  C1  UNL     1      28.506  10.145  49.079  1.00  0.00     0.071 C 
HETATM   15  C16 UNL     1      29.161   7.482  48.531  1.00  0.00     0.066 A 
ENDBRANCH   1   5
BRANCH   2  16
HETATM   16  C8  UNL     1      26.643   3.874  49.775  1.00  0.00    -0.005 C 
HETATM   17  C9  UNL     1      26.327   2.908  50.455  1.00  0.00    -0.095 C 
BRANCH  17  18
HETATM   18  C10 UNL     1      25.951   1.735  51.248  1.00  0.00     0.124 C 
BRANCH  18  19
HETATM   19  C11 UNL     1      27.050   1.434  52.207  1.00  0.00     0.284 C 
BRANCH  19  20
HETATM   20  N5  UNL     1      27.215   0.078  52.568  1.00  0.00     0.093 N 
HETATM   21  C12 UNL     1      26.135  -0.556  53.269  1.00  0.00     0.298 C 
HETATM   22  C13 UNL     1      25.966  -0.063  54.686  1.00  0.00     0.198 C 
HETATM   23  O2  UNL     1      27.008   0.779  55.099  1.00  0.00    -0.388 OA
HETATM   24  C14 UNL     1      28.221   0.203  54.818  1.00  0.00     0.198 C 
HETATM   25  C15 UNL     1      28.415  -0.134  53.348  1.00  0.00     0.298 C 
ENDBRANCH  19  20
ENDBRANCH  18  19
ENDBRANCH  17  18
ENDBRANCH   2  16
TORSDOF 5
ENDMDL
MODEL 9
REMARK VINA RESULT:      -6.9      1.893      3.078
REMARK  5 active torsions:
REMARK  status: ('A' for Active; 'I' for Inactive)
REMARK    1  A    between atoms: C6_9  and  N4_10 
REMARK       I    between atoms: N4_10  and  C7_11 
REMARK    2  A    between atoms: C7_11  and  C8_13 
REMARK    3  A    between atoms: C9_14  and  C10_15 
REMARK    4  A    between atoms: C10_15  and  C11_16 
REMARK    5  A    between atoms: C11_16  and  N5_17 
ROOT
HETATM    1  N4  UNL     1      25.004   3.722  49.537  1.00  0.00    -0.301 N 
HETATM    2  C7  UNL     1      26.403   3.902  49.713  1.00  0.00     0.302 C 
HETATM    3  O1  UNL     1      27.094   3.173  50.448  1.00  0.00    -0.258 OA
HETATM    4  H6  UNL     1      24.425   4.341  48.916  1.00  0.00     0.171 HD
ENDROOT
BRANCH   1   5
HETATM    5  C6  UNL     1      23.933   2.889  49.956  1.00  0.00     0.131 A 
HETATM    6  N3  UNL     1      22.743   2.749  49.340  1.00  0.00    -0.241 NA
HETATM    7  C5  UNL     1      21.795   1.930  49.823  1.00  0.00     0.151 A 
HETATM    8  C4  UNL     1      22.040   1.213  50.977  1.00  0.00     0.088 A 
HETATM    9  N2  UNL     1      21.096   0.383  51.478  1.00  0.00    -0.240 NA
HETATM   10  C17 UNL     1      23.221   1.287  51.677  1.00  0.00     0.022 A 
HETATM   11  C3  UNL     1      21.348  -0.318  52.615  1.00  0.00     0.234 A 
HETATM   12  N1  UNL     1      22.522  -0.212  53.269  1.00  0.00    -0.246 NA
HETATM   13  C2  UNL     1      23.493   0.588  52.826  1.00  0.00     0.044 A 
HETATM   14  C1  UNL     1      24.830   0.783  53.466  1.00  0.00     0.071 C 
HETATM   15  C16 UNL     1      24.159   2.154  51.123  1.00  0.00     0.066 A 
ENDBRANCH   1   5
BRANCH   2  16
HETATM   16  C8  UNL     1      26.979   5.003  48.970  1.00  0.00    -0.005 C 
HETATM   17  C9  UNL     1      27.484   5.929  48.351  1.00  0.00    -0.095 C 
BRANCH  17  18
HETATM   18  C10 UNL     1      28.093   7.050  47.633  1.00  0.00     0.124 C 
BRANCH  18  19
HETATM   19  C11 UNL     1      29.386   7.392  48.289  1.00  0.00     0.284 C 
BRANCH  19  20
HETATM   20  N5  UNL     1      30.551   6.851  47.700  1.00  0.00     0.093 N 
HETATM   21  C12 UNL     1      31.156   5.721  48.345  1.00  0.00     0.298 C 
HETATM   22  C13 UNL     1      31.820   6.062  49.658  1.00  0.00     0.198 C 
HETATM   23  O2  UNL     1      31.876   7.442  49.898  1.00  0.00    -0.388 OA
HETATM   24  C14 UNL     1      32.378   8.093  48.799  1.00  0.00     0.198 C 
HETATM   25  C15 UNL     1      31.585   7.850  47.526  1.00  0.00     0.298 C 
ENDBRANCH  19  20
ENDBRANCH  18  19
ENDBRANCH  17  18
ENDBRANCH   2  16
TORSDOF 5
ENDMDL
