MODEL 1
REMARK VINA RESULT:      -8.1      0.000      0.000
REMARK  6 active torsions:
REMARK  status: ('A' for Active; 'I' for Inactive)
REMARK    1  A    between atoms: C3_3  and  C4_4 
REMARK    2  A    between atoms: N1_6  and  C6_7 
REMARK    3  A    between atoms: C6_7  and  C7_8 
REMARK    4  A    between atoms: C7_8  and  O1_9 
REMARK    5  A    between atoms: C8_11  and  C9_12 
REMARK    6  A    between atoms: C17_21  and  N4_22 
ROOT
HETATM    1  C4  UNL     1      24.571   0.017  53.045  1.00  0.00     0.019 A 
HETATM    2  C5  UNL     1      23.363  -0.342  53.616  1.00  0.00     0.126 A 
HETATM    3  N1  UNL     1      22.315   0.378  53.247  1.00  0.00    -0.278 N 
HETATM    4  N2  UNL     1      22.821   1.255  52.402  1.00  0.00    -0.171 NA
HETATM    5  C8  UNL     1      24.163   1.061  52.268  1.00  0.00     0.099 A 
ENDROOT
BRANCH   1   6
HETATM    6  C3  UNL     1      25.965  -0.462  53.166  1.00  0.00    -0.033 A 
HETATM    7  C2  UNL     1      26.716   0.280  54.147  1.00  0.00     0.024 A 
HETATM    8  C1  UNL     1      26.070  -0.432  55.532  1.00  0.00     0.024 C 
HETATM    9  C16 UNL     1      28.119  -0.391  53.834  1.00  0.00     0.031 A 
HETATM   10  C17 UNL     1      27.878   0.835  54.631  1.00  0.00     0.167 A 
HETATM   11  C15 UNL     1      27.870  -1.297  52.909  1.00  0.00    -0.012 A 
HETATM   12  C14 UNL     1      26.515  -1.389  52.438  1.00  0.00     0.006 A 
BRANCH  10  13
HETATM   13  N4  UNL     1      28.486   2.069  54.125  1.00  0.00    -0.133 NA
HETATM   14  O2  UNL     1      29.473   2.460  54.694  1.00  0.00    -0.066 OA
ENDBRANCH  10  13
ENDBRANCH   1   6
BRANCH   5  15
HETATM   15  C9  UNL     1      24.807   1.999  51.383  1.00  0.00    -0.002 A 
HETATM   16  C10 UNL     1      26.150   2.380  51.239  1.00  0.00     0.033 A 
HETATM   17  C11 UNL     1      26.579   3.301  50.313  1.00  0.00     0.117 A 
HETATM   18  N3  UNL     1      25.728   3.902  49.475  1.00  0.00    -0.273 NA
HETATM   19  C12 UNL     1      24.423   3.621  49.516  1.00  0.00     0.117 A 
HETATM   20  C13 UNL     1      24.017   2.696  50.452  1.00  0.00     0.033 A 
ENDBRANCH   5  15
BRANCH   3  21
HETATM   21  C6  UNL     1      20.956   0.200  53.698  1.00  0.00     0.176 C 
BRANCH  21  22
HETATM   22  C7  UNL     1      20.825  -1.239  54.142  1.00  0.00     0.185 C 
BRANCH  22  23
HETATM   23  O1  UNL     1      19.510  -1.648  54.096  1.00  0.00    -0.399 OA
HETATM   24  H9  UNL     1      19.435  -2.602  53.927  1.00  0.00     0.209 HD
ENDBRANCH  22  23
ENDBRANCH  21  22
ENDBRANCH   3  21
TORSDOF 6
ENDMDL
MODEL 2
REMARK VINA RESULT:      -8.0      2.394      6.570
REMARK  6 active torsions:
REMARK  status: ('A' for Active; 'I' for Inactive)
REMARK    1  A    between atoms: C3_3  and  C4_4 
REMARK    2  A    between atoms: N1_6  and  C6_7 
REMARK    3  A    between atoms: C6_7  and  C7_8 
REMARK    4  A    between atoms: C7_8  and  O1_9 
REMARK    5  A    between atoms: C8_11  and  C9_12 
REMARK    6  A    between atoms: C17_21  and  N4_22 
ROOT
HETATM    1  C4  UNL     1      24.308   2.120  51.700  1.00  0.00     0.019 A 
HETATM    2  C5  UNL     1      24.385   3.249  50.904  1.00  0.00     0.126 A 
HETATM    3  N1  UNL     1      25.604   3.614  50.539  1.00  0.00    -0.278 N 
HETATM    4  N2  UNL     1      26.382   2.710  51.102  1.00  0.00    -0.171 NA
HETATM    5  C8  UNL     1      25.632   1.812  51.801  1.00  0.00     0.099 A 
ENDROOT
BRANCH   1   6
HETATM    6  C3  UNL     1      23.207   1.375  52.349  1.00  0.00    -0.033 A 
HETATM    7  C2  UNL     1      21.913   1.760  51.843  1.00  0.00     0.024 A 
HETATM    8  C1  UNL     1      21.971   0.925  50.379  1.00  0.00     0.024 C 
HETATM    9  C16 UNL     1      21.063   0.913  52.881  1.00  0.00     0.031 A 
HETATM   10  C17 UNL     1      20.563   1.983  51.987  1.00  0.00     0.167 A 
HETATM   11  C15 UNL     1      21.952   0.266  53.609  1.00  0.00    -0.012 A 
HETATM   12  C14 UNL     1      23.337   0.521  53.321  1.00  0.00     0.006 A 
BRANCH  10  13
HETATM   13  N4  UNL     1      19.979   3.158  52.643  1.00  0.00    -0.133 NA
HETATM   14  O2  UNL     1      18.934   3.561  52.200  1.00  0.00    -0.066 OA
ENDBRANCH  10  13
ENDBRANCH   1   6
BRANCH   5  15
HETATM   15  C9  UNL     1      26.405   0.801  52.478  1.00  0.00    -0.002 A 
HETATM   16  C10 UNL     1      26.692  -0.533  52.152  1.00  0.00     0.033 A 
HETATM   17  C11 UNL     1      27.473  -1.351  52.934  1.00  0.00     0.117 A 
HETATM   18  N3  UNL     1      28.018  -0.919  54.075  1.00  0.00    -0.273 NA
HETATM   19  C12 UNL     1      27.816   0.334  54.491  1.00  0.00     0.117 A 
HETATM   20  C13 UNL     1      27.031   1.135  53.692  1.00  0.00     0.033 A 
ENDBRANCH   5  15
BRANCH   3  21
HETATM   21  C6  UNL     1      25.944   4.748  49.715  1.00  0.00     0.176 C 
BRANCH  21  22
HETATM   22  C7  UNL     1      27.164   4.357  48.911  1.00  0.00     0.185 C 
BRANCH  22  23
HETATM   23  O1  UNL     1      28.252   5.124  49.269  1.00  0.00    -0.399 OA
HETATM   24  H9  UNL     1      28.396   5.856  48.647  1.00  0.00     0.209 HD
ENDBRANCH  22  23
ENDBRANCH  21  22
ENDBRANCH   3  21
TORSDOF 6
ENDMDL
MODEL 3
REMARK VINA RESULT:      -7.9      2.262      4.381
REMARK  6 active torsions:
REMARK  status: ('A' for Active; 'I' for Inactive)
REMARK    1  A    between atoms: C3_3  and  C4_4 
REMARK    2  A    between atoms: N1_6  and  C6_7 
REMARK    3  A    between atoms: C6_7  and  C7_8 
REMARK    4  A    between atoms: C7_8  and  O1_9 
REMARK    5  A    between atoms: C8_11  and  C9_12 
REMARK    6  A    between atoms: C17_21  and  N4_22 
ROOT
HETATM    1  C4  UNL     1      25.292   1.065  52.426  1.00  0.00     0.019 A 
HETATM    2  C5  UNL     1      25.498   2.307  51.851  1.00  0.00     0.126 A 
HETATM    3  N1  UNL     1      24.428   3.078  51.745  1.00  0.00    -0.278 N 
HETATM    4  N2  UNL     1      23.462   2.343  52.260  1.00  0.00    -0.171 NA
HETATM    5  C8  UNL     1      23.953   1.139  52.670  1.00  0.00     0.099 A 
ENDROOT
BRANCH   1   6
HETATM    6  C3  UNL     1      26.150  -0.103  52.721  1.00  0.00    -0.033 A 
HETATM    7  C2  UNL     1      27.188   0.207  53.671  1.00  0.00     0.024 A 
HETATM    8  C1  UNL     1      26.244   0.201  55.068  1.00  0.00     0.024 C 
HETATM    9  C16 UNL     1      27.944  -1.184  53.560  1.00  0.00     0.031 A 
HETATM   10  C17 UNL     1      28.455   0.057  54.187  1.00  0.00     0.167 A 
HETATM   11  C15 UNL     1      27.219  -1.905  52.727  1.00  0.00    -0.012 A 
HETATM   12  C14 UNL     1      26.064  -1.270  52.155  1.00  0.00     0.006 A 
BRANCH  10  13
HETATM   13  N4  UNL     1      29.668   0.633  53.597  1.00  0.00    -0.133 NA
HETATM   14  O2  UNL     1      30.560  -0.133  53.339  1.00  0.00    -0.066 OA
ENDBRANCH  10  13
ENDBRANCH   1   6
BRANCH   5  15
HETATM   15  C9  UNL     1      22.956   0.254  53.220  1.00  0.00    -0.002 A 
HETATM   16  C10 UNL     1      23.040  -0.778  54.166  1.00  0.00     0.033 A 
HETATM   17  C11 UNL     1      21.956  -1.516  54.578  1.00  0.00     0.117 A 
HETATM   18  N3  UNL     1      20.730  -1.292  54.095  1.00  0.00    -0.273 NA
HETATM   19  C12 UNL     1      20.524  -0.334  53.187  1.00  0.00     0.117 A 
HETATM   20  C13 UNL     1      21.624   0.392  52.789  1.00  0.00     0.033 A 
ENDBRANCH   5  15
BRANCH   3  21
HETATM   21  C6  UNL     1      24.386   4.407  51.186  1.00  0.00     0.176 C 
BRANCH  21  22
HETATM   22  C7  UNL     1      23.446   5.218  52.050  1.00  0.00     0.185 C 
BRANCH  22  23
HETATM   23  O1  UNL     1      23.886   5.248  53.356  1.00  0.00    -0.399 OA
HETATM   24  H9  UNL     1      24.741   5.701  53.437  1.00  0.00     0.209 HD
ENDBRANCH  22  23
ENDBRANCH  21  22
ENDBRANCH   3  21
TORSDOF 6
ENDMDL
MODEL 4
REMARK VINA RESULT:      -7.8      2.293      5.036
REMARK  6 active torsions:
REMARK  status: ('A' for Active; 'I' for Inactive)
REMARK    1  A    between atoms: C3_3  and  C4_4 
REMARK    2  A    between atoms: N1_6  and  C6_7 
REMARK    3  A    between atoms: C6_7  and  C7_8 
REMARK    4  A    between atoms: C7_8  and  O1_9 
REMARK    5  A    between atoms: C8_11  and  C9_12 
REMARK    6  A    between atoms: C17_21  and  N4_22 
ROOT
HETATM    1  C4  UNL     1      24.694   1.130  52.157  1.00  0.00     0.019 A 
HETATM    2  C5  UNL     1      23.450   0.553  52.346  1.00  0.00     0.126 A 
HETATM    3  N1  UNL     1      23.406  -0.454  53.204  1.00  0.00    -0.278 N 
HETATM    4  N2  UNL     1      24.655  -0.570  53.613  1.00  0.00    -0.171 NA
HETATM    5  C8  UNL     1      25.440   0.360  53.000  1.00  0.00     0.099 A 
ENDROOT
BRANCH   1   6
HETATM    6  C3  UNL     1      25.219   2.224  51.311  1.00  0.00    -0.033 A 
HETATM    7  C2  UNL     1      24.189   3.153  50.920  1.00  0.00     0.024 A 
HETATM    8  C1  UNL     1      24.053   3.988  52.378  1.00  0.00     0.024 C 
HETATM    9  C16 UNL     1      25.092   4.001  49.928  1.00  0.00     0.031 A 
HETATM   10  C17 UNL     1      23.615   4.036  50.034  1.00  0.00     0.167 A 
HETATM   11  C15 UNL     1      26.296   3.472  50.018  1.00  0.00    -0.012 A 
HETATM   12  C14 UNL     1      26.441   2.332  50.882  1.00  0.00     0.006 A 
BRANCH  10  13
HETATM   13  N4  UNL     1      22.867   3.645  48.835  1.00  0.00    -0.133 NA
HETATM   14  O2  UNL     1      23.088   2.547  48.393  1.00  0.00    -0.066 OA
ENDBRANCH  10  13
ENDBRANCH   1   6
BRANCH   5  15
HETATM   15  C9  UNL     1      26.833   0.286  53.365  1.00  0.00    -0.002 A 
HETATM   16  C10 UNL     1      27.676   1.190  54.028  1.00  0.00     0.033 A 
HETATM   17  C11 UNL     1      28.999   0.930  54.299  1.00  0.00     0.117 A 
HETATM   18  N3  UNL     1      29.575  -0.222  53.942  1.00  0.00    -0.273 NA
HETATM   19  C12 UNL     1      28.873  -1.162  53.304  1.00  0.00     0.117 A 
HETATM   20  C13 UNL     1      27.551  -0.879  53.043  1.00  0.00     0.033 A 
ENDBRANCH   5  15
BRANCH   3  21
HETATM   21  C6  UNL     1      22.236  -1.213  53.570  1.00  0.00     0.176 C 
BRANCH  21  22
HETATM   22  C7  UNL     1      22.050  -1.044  55.061  1.00  0.00     0.185 C 
BRANCH  22  23
HETATM   23  O1  UNL     1      22.871  -1.904  55.757  1.00  0.00    -0.399 OA
HETATM   24  H9  UNL     1      22.612  -1.971  56.691  1.00  0.00     0.209 HD
ENDBRANCH  22  23
ENDBRANCH  21  22
ENDBRANCH   3  21
TORSDOF 6
ENDMDL
MODEL 5
REMARK VINA RESULT:      -7.8      2.128      4.671
REMARK  6 active torsions:
REMARK  status: ('A' for Active; 'I' for Inactive)
REMARK    1  A    between atoms: C3_3  and  C4_4 
REMARK    2  A    between atoms: N1_6  and  C6_7 
REMARK    3  A    between atoms: C6_7  and  C7_8 
REMARK    4  A    between atoms: C7_8  and  O1_9 
REMARK    5  A    between atoms: C8_11  and  C9_12 
REMARK    6  A    between atoms: C17_21  and  N4_22 
ROOT
HETATM    1  C4  UNL     1      23.803   1.714  52.557  1.00  0.00     0.019 A 
HETATM    2  C5  UNL     1      22.753   0.829  52.728  1.00  0.00     0.126 A 
HETATM    3  N1  UNL     1      23.065  -0.339  53.268  1.00  0.00    -0.278 N 
HETATM    4  N2  UNL     1      24.366  -0.251  53.470  1.00  0.00    -0.171 NA
HETATM    5  C8  UNL     1      24.827   0.962  53.051  1.00  0.00     0.099 A 
ENDROOT
BRANCH   1   6
HETATM    6  C3  UNL     1      23.938   3.075  51.995  1.00  0.00    -0.033 A 
HETATM    7  C2  UNL     1      24.613   3.077  50.722  1.00  0.00     0.024 A 
HETATM    8  C1  UNL     1      23.335   2.524  49.772  1.00  0.00     0.024 C 
HETATM    9  C16 UNL     1      24.710   4.654  50.580  1.00  0.00     0.031 A 
HETATM   10  C17 UNL     1      25.440   3.643  49.779  1.00  0.00     0.167 A 
HETATM   11  C15 UNL     1      24.087   5.135  51.638  1.00  0.00    -0.012 A 
HETATM   12  C14 UNL     1      23.575   4.178  52.580  1.00  0.00     0.006 A 
BRANCH  10  13
HETATM   13  N4  UNL     1      26.904   3.677  49.868  1.00  0.00    -0.133 NA
HETATM   14  O2  UNL     1      27.495   4.101  48.908  1.00  0.00    -0.066 OA
ENDBRANCH  10  13
ENDBRANCH   1   6
BRANCH   5  15
HETATM   15  C9  UNL     1      26.250   1.135  53.206  1.00  0.00    -0.002 A 
HETATM   16  C10 UNL     1      27.039   2.280  53.389  1.00  0.00     0.033 A 
HETATM   17  C11 UNL     1      28.406   2.241  53.530  1.00  0.00     0.117 A 
HETATM   18  N3  UNL     1      29.082   1.088  53.500  1.00  0.00    -0.273 NA
HETATM   19  C12 UNL     1      28.439  -0.070  53.331  1.00  0.00     0.117 A 
HETATM   20  C13 UNL     1      27.071  -0.007  53.192  1.00  0.00     0.033 A 
ENDBRANCH   5  15
BRANCH   3  21
HETATM   21  C6  UNL     1      22.154  -1.421  53.547  1.00  0.00     0.176 C 
BRANCH  21  22
HETATM   22  C7  UNL     1      21.875  -1.388  55.033  1.00  0.00     0.185 C 
BRANCH  22  23
HETATM   23  O1  UNL     1      22.991  -1.765  55.749  1.00  0.00    -0.399 OA
HETATM   24  H9  UNL     1      23.803  -1.388  55.372  1.00  0.00     0.209 HD
ENDBRANCH  22  23
ENDBRANCH  21  22
ENDBRANCH   3  21
TORSDOF 6
ENDMDL
MODEL 6
REMARK VINA RESULT:      -7.8      2.420      6.328
REMARK  6 active torsions:
REMARK  status: ('A' for Active; 'I' for Inactive)
REMARK    1  A    between atoms: C3_3  and  C4_4 
REMARK    2  A    between atoms: N1_6  and  C6_7 
REMARK    3  A    between atoms: C6_7  and  C7_8 
REMARK    4  A    between atoms: C7_8  and  O1_9 
REMARK    5  A    between atoms: C8_11  and  C9_12 
REMARK    6  A    between atoms: C17_21  and  N4_22 
ROOT
HETATM    1  C4  UNL     1      24.694   2.596  50.459  1.00  0.00     0.019 A 
HETATM    2  C5  UNL     1      25.213   3.539  49.589  1.00  0.00     0.126 A 
HETATM    3  N1  UNL     1      26.507   3.787  49.713  1.00  0.00    -0.278 N 
HETATM    4  N2  UNL     1      26.884   2.992  50.697  1.00  0.00    -0.171 NA
HETATM    5  C8  UNL     1      25.820   2.276  51.158  1.00  0.00     0.099 A 
ENDROOT
BRANCH   1   6
HETATM    6  C3  UNL     1      23.349   2.030  50.702  1.00  0.00    -0.033 A 
HETATM    7  C2  UNL     1      23.057   1.899  52.108  1.00  0.00     0.024 A 
HETATM    8  C1  UNL     1      22.725   3.519  52.435  1.00  0.00     0.024 C 
HETATM    9  C16 UNL     1      21.685   1.123  51.926  1.00  0.00     0.031 A 
HETATM   10  C17 UNL     1      22.465   1.268  53.178  1.00  0.00     0.167 A 
HETATM   11  C15 UNL     1      21.496   1.054  50.623  1.00  0.00    -0.012 A 
HETATM   12  C14 UNL     1      22.524   1.611  49.788  1.00  0.00     0.006 A 
BRANCH  10  13
HETATM   13  N4  UNL     1      22.953   0.027  53.787  1.00  0.00    -0.133 NA
HETATM   14  O2  UNL     1      23.195  -0.886  53.039  1.00  0.00    -0.066 OA
ENDBRANCH  10  13
ENDBRANCH   1   6
BRANCH   5  15
HETATM   15  C9  UNL     1      26.134   1.399  52.259  1.00  0.00    -0.002 A 
HETATM   16  C10 UNL     1      26.205   1.623  53.642  1.00  0.00     0.033 A 
HETATM   17  C11 UNL     1      26.517   0.640  54.551  1.00  0.00     0.117 A 
HETATM   18  N3  UNL     1      26.776  -0.614  54.168  1.00  0.00    -0.273 NA
HETATM   19  C12 UNL     1      26.739  -0.949  52.875  1.00  0.00     0.117 A 
HETATM   20  C13 UNL     1      26.425   0.052  51.983  1.00  0.00     0.033 A 
ENDBRANCH   5  15
BRANCH   3  21
HETATM   21  C6  UNL     1      27.276   4.720  48.928  1.00  0.00     0.176 C 
BRANCH  21  22
HETATM   22  C7  UNL     1      26.478   6.003  48.863  1.00  0.00     0.185 C 
BRANCH  22  23
HETATM   23  O1  UNL     1      27.063   6.983  49.636  1.00  0.00    -0.399 OA
HETATM   24  H9  UNL     1      27.908   6.687  50.012  1.00  0.00     0.209 HD
ENDBRANCH  22  23
ENDBRANCH  21  22
ENDBRANCH   3  21
TORSDOF 6
ENDMDL
MODEL 7
REMARK VINA RESULT:      -7.7      2.557      5.453
REMARK  6 active torsions:
REMARK  status: ('A' for Active; 'I' for Inactive)
REMARK    1  A    between atoms: C3_3  and  C4_4 
REMARK    2  A    between atoms: N1_6  and  C6_7 
REMARK    3  A    between atoms: C6_7  and  C7_8 
REMARK    4  A    between atoms: C7_8  and  O1_9 
REMARK    5  A    between atoms: C8_11  and  C9_12 
REMARK    6  A    between atoms: C17_21  and  N4_22 
ROOT
HETATM    1  C4  UNL     1      23.964   0.173  53.290  1.00  0.00     0.019 A 
HETATM    2  C5  UNL     1      25.044  -0.692  53.332  1.00  0.00     0.126 A 
HETATM    3  N1  UNL     1      26.184  -0.215  52.857  1.00  0.00    -0.278 N 
HETATM    4  N2  UNL     1      25.875   1.010  52.478  1.00  0.00    -0.171 NA
HETATM    5  C8  UNL     1      24.558   1.262  52.724  1.00  0.00     0.099 A 
ENDROOT
BRANCH   1   6
HETATM    6  C3  UNL     1      22.538   0.080  53.671  1.00  0.00    -0.033 A 
HETATM    7  C2  UNL     1      21.685   0.827  52.781  1.00  0.00     0.024 A 
HETATM    8  C1  UNL     1      21.685  -0.254  51.487  1.00  0.00     0.024 C 
HETATM    9  C16 UNL     1      20.350   0.627  53.615  1.00  0.00     0.031 A 
HETATM   10  C17 UNL     1      20.573   1.590  52.511  1.00  0.00     0.167 A 
HETATM   11  C15 UNL     1      20.688  -0.146  54.628  1.00  0.00    -0.012 A 
HETATM   12  C14 UNL     1      22.071  -0.526  54.722  1.00  0.00     0.006 A 
BRANCH  10  13
HETATM   13  N4  UNL     1      20.435   3.011  52.850  1.00  0.00    -0.133 NA
HETATM   14  O2  UNL     1      19.705   3.666  52.151  1.00  0.00    -0.066 OA
ENDBRANCH  10  13
ENDBRANCH   1   6
BRANCH   5  15
HETATM   15  C9  UNL     1      24.124   2.573  52.311  1.00  0.00    -0.002 A 
HETATM   16  C10 UNL     1      23.888   3.752  53.034  1.00  0.00     0.033 A 
HETATM   17  C11 UNL     1      23.480   4.928  52.449  1.00  0.00     0.117 A 
HETATM   18  N3  UNL     1      23.279   5.024  51.131  1.00  0.00    -0.273 NA
HETATM   19  C12 UNL     1      23.471   3.967  50.338  1.00  0.00     0.117 A 
HETATM   20  C13 UNL     1      23.879   2.800  50.945  1.00  0.00     0.033 A 
ENDBRANCH   5  15
BRANCH   3  21
HETATM   21  C6  UNL     1      27.442  -0.918  52.793  1.00  0.00     0.176 C 
BRANCH  21  22
HETATM   22  C7  UNL     1      27.123  -2.364  52.487  1.00  0.00     0.185 C 
BRANCH  22  23
HETATM   23  O1  UNL     1      28.180  -3.180  52.828  1.00  0.00    -0.399 OA
HETATM   24  H9  UNL     1      28.955  -2.667  53.111  1.00  0.00     0.209 HD
ENDBRANCH  22  23
ENDBRANCH  21  22
ENDBRANCH   3  21
TORSDOF 6
ENDMDL
MODEL 8
REMARK VINA RESULT:      -7.7      2.841      5.906
REMARK  6 active torsions:
REMARK  status: ('A' for Active; 'I' for Inactive)
REMARK    1  A    between atoms: C3_3  and  C4_4 
REMARK    2  A    between atoms: N1_6  and  C6_7 
REMARK    3  A    between atoms: C6_7  and  C7_8 
REMARK    4  A    between atoms: C7_8  and  O1_9 
REMARK    5  A    between atoms: C8_11  and  C9_12 
REMARK    6  A    between atoms: C17_21  and  N4_22 
ROOT
HETATM    1  C4  UNL     1      25.026   1.496  52.466  1.00  0.00     0.019 A 
HETATM    2  C5  UNL     1      26.314   0.989  52.489  1.00  0.00     0.126 A 
HETATM    3  N1  UNL     1      26.429  -0.276  52.859  1.00  0.00    -0.278 N 
HETATM    4  N2  UNL     1      25.185  -0.646  53.097  1.00  0.00    -0.171 NA
HETATM    5  C8  UNL     1      24.333   0.394  52.873  1.00  0.00     0.099 A 
ENDROOT
BRANCH   1   6
HETATM    6  C3  UNL     1      24.428   2.812  52.155  1.00  0.00    -0.033 A 
HETATM    7  C2  UNL     1      24.692   3.225  50.799  1.00  0.00     0.024 A 
HETATM    8  C1  UNL     1      23.569   2.235  50.025  1.00  0.00     0.024 C 
HETATM    9  C16 UNL     1      24.077   4.681  50.941  1.00  0.00     0.031 A 
HETATM   10  C17 UNL     1      24.934   4.181  49.840  1.00  0.00     0.167 A 
HETATM   11  C15 UNL     1      23.602   4.738  52.169  1.00  0.00    -0.012 A 
HETATM   12  C14 UNL     1      23.798   3.578  52.995  1.00  0.00     0.006 A 
BRANCH  10  13
HETATM   13  N4  UNL     1      26.216   4.867  49.651  1.00  0.00    -0.133 NA
HETATM   14  O2  UNL     1      27.018   4.327  48.933  1.00  0.00    -0.066 OA
ENDBRANCH  10  13
ENDBRANCH   1   6
BRANCH   5  15
HETATM   15  C9  UNL     1      22.950   0.088  53.139  1.00  0.00    -0.002 A 
HETATM   16  C10 UNL     1      21.763   0.498  52.514  1.00  0.00     0.033 A 
HETATM   17  C11 UNL     1      20.515   0.082  52.914  1.00  0.00     0.117 A 
HETATM   18  N3  UNL     1      20.351  -0.755  53.943  1.00  0.00    -0.273 NA
HETATM   19  C12 UNL     1      21.408  -1.215  54.618  1.00  0.00     0.117 A 
HETATM   20  C13 UNL     1      22.647  -0.785  54.199  1.00  0.00     0.033 A 
ENDBRANCH   5  15
BRANCH   3  21
HETATM   21  C6  UNL     1      27.656  -1.027  52.960  1.00  0.00     0.176 C 
BRANCH  21  22
HETATM   22  C7  UNL     1      27.333  -2.453  52.573  1.00  0.00     0.185 C 
BRANCH  22  23
HETATM   23  O1  UNL     1      28.371  -3.297  52.904  1.00  0.00    -0.399 OA
HETATM   24  H9  UNL     1      29.221  -2.827  52.932  1.00  0.00     0.209 HD
ENDBRANCH  22  23
ENDBRANCH  21  22
ENDBRANCH   3  21
TORSDOF 6
ENDMDL
MODEL 9
REMARK VINA RESULT:      -7.5      2.300      6.703
REMARK  6 active torsions:
REMARK  status: ('A' for Active; 'I' for Inactive)
REMARK    1  A    between atoms: C3_3  and  C4_4 
REMARK    2  A    between atoms: N1_6  and  C6_7 
REMARK    3  A    between atoms: C6_7  and  C7_8 
REMARK    4  A    between atoms: C7_8  and  O1_9 
REMARK    5  A    between atoms: C8_11  and  C9_12 
REMARK    6  A    between atoms: C17_21  and  N4_22 
ROOT
HETATM    1  C4  UNL     1      24.217   1.716  51.741  1.00  0.00     0.019 A 
HETATM    2  C5  UNL     1      25.595   1.791  51.855  1.00  0.00     0.126 A 
HETATM    3  N1  UNL     1      26.150   0.932  52.696  1.00  0.00    -0.278 N 
HETATM    4  N2  UNL     1      25.124   0.253  53.171  1.00  0.00    -0.171 NA
HETATM    5  C8  UNL     1      23.963   0.705  52.619  1.00  0.00     0.099 A 
ENDROOT
BRANCH   1   6
HETATM    6  C3  UNL     1      23.193   2.458  50.974  1.00  0.00    -0.033 A 
HETATM    7  C2  UNL     1      22.394   3.314  51.815  1.00  0.00     0.024 A 
HETATM    8  C1  UNL     1      23.515   4.554  52.029  1.00  0.00     0.024 C 
HETATM    9  C16 UNL     1      21.362   3.745  50.689  1.00  0.00     0.031 A 
HETATM   10  C17 UNL     1      21.215   3.938  52.151  1.00  0.00     0.167 A 
HETATM   11  C15 UNL     1      21.791   3.165  49.586  1.00  0.00    -0.012 A 
HETATM   12  C14 UNL     1      22.954   2.327  49.703  1.00  0.00     0.006 A 
BRANCH  10  13
HETATM   13  N4  UNL     1      20.070   3.272  52.782  1.00  0.00    -0.133 NA
HETATM   14  O2  UNL     1      19.068   3.176  52.122  1.00  0.00    -0.066 OA
ENDBRANCH  10  13
ENDBRANCH   1   6
BRANCH   5  15
HETATM   15  C9  UNL     1      22.782   0.037  53.106  1.00  0.00    -0.002 A 
HETATM   16  C10 UNL     1      21.454   0.037  52.655  1.00  0.00     0.033 A 
HETATM   17  C11 UNL     1      20.451  -0.685  53.258  1.00  0.00     0.117 A 
HETATM   18  N3  UNL     1      20.683  -1.448  54.331  1.00  0.00    -0.273 NA
HETATM   19  C12 UNL     1      21.910  -1.528  54.853  1.00  0.00     0.117 A 
HETATM   20  C13 UNL     1      22.898  -0.796  54.233  1.00  0.00     0.033 A 
ENDBRANCH   5  15
BRANCH   3  21
HETATM   21  C6  UNL     1      27.558   0.812  52.987  1.00  0.00     0.176 C 
BRANCH  21  22
HETATM   22  C7  UNL     1      28.127   2.213  52.991  1.00  0.00     0.185 C 
BRANCH  22  23
HETATM   23  O1  UNL     1      27.951   2.809  54.222  1.00  0.00    -0.399 OA
HETATM   24  H9  UNL     1      27.084   3.241  54.291  1.00  0.00     0.209 HD
ENDBRANCH  22  23
ENDBRANCH  21  22
ENDBRANCH   3  21
TORSDOF 6
ENDMDL
