MODEL 1
REMARK VINA RESULT:      -8.6      0.000      0.000
REMARK  5 active torsions:
REMARK  status: ('A' for Active; 'I' for Inactive)
REMARK    1  A    between atoms: C5_5  and  C6_6 
REMARK    2  A    between atoms: C8_8  and  C9_9 
REMARK    3  A    between atoms: C15_16  and  S1_18 
REMARK    4  A    between atoms: S1_18  and  C16_19 
REMARK    5  A    between atoms: C17_20  and  O1_21 
ROOT
HETATM    1  C6  UNL     1      24.187   1.008  51.902  1.00  0.00     0.098 C 
HETATM    2  C7  UNL     1      24.960   0.061  52.798  1.00  0.00     0.075 C 
HETATM    3  C8  UNL     1      26.255   0.820  52.880  1.00  0.00     0.044 C 
HETATM    4  N1  UNL     1      26.064   2.081  52.684  1.00  0.00    -0.239 NA
HETATM    5  C15 UNL     1      24.647   2.342  52.448  1.00  0.00     0.257 C 
HETATM    6  F1  UNL     1      23.986   2.630  53.616  1.00  0.00    -0.203 F 
ENDROOT
BRANCH   1   7
HETATM    7  C5  UNL     1      22.737   0.804  51.918  1.00  0.00    -0.048 A 
HETATM    8  C4  UNL     1      21.987   1.029  50.758  1.00  0.00     0.008 A 
HETATM    9  C3  UNL     1      20.629   0.840  50.758  1.00  0.00     0.007 A 
HETATM   10  C2  UNL     1      19.993   0.426  51.898  1.00  0.00    -0.062 A 
HETATM   11  C1  UNL     1      18.519   0.246  51.808  1.00  0.00     0.048 C 
HETATM   12  C19 UNL     1      20.727   0.197  53.060  1.00  0.00     0.007 A 
HETATM   13  C18 UNL     1      22.111   0.388  53.066  1.00  0.00     0.008 A 
ENDBRANCH   1   7
BRANCH   5  14
HETATM   14  S1  UNL     1      24.394   3.702  51.296  1.00  0.00    -0.072 SA
BRANCH  14  15
HETATM   15  C16 UNL     1      25.230   3.305  49.751  1.00  0.00     0.074 C 
HETATM   16  C17 UNL     1      26.517   3.366  49.427  1.00  0.00     0.138 C 
BRANCH  16  17
HETATM   17  O1  UNL     1      27.042   3.826  50.616  1.00  0.00    -0.372 OA
HETATM   18  H16 UNL     1      26.803   3.446  51.521  1.00  0.00     0.216 HD
ENDBRANCH  16  17
ENDBRANCH  14  15
ENDBRANCH   5  14
BRANCH   3  19
HETATM   19  C9  UNL     1      27.556   0.211  53.147  1.00  0.00    -0.012 A 
HETATM   20  C10 UNL     1      28.614   0.986  53.537  1.00  0.00     0.013 A 
HETATM   21  C11 UNL     1      29.853   0.403  53.790  1.00  0.00     0.001 A 
HETATM   22  C12 UNL     1      30.019  -0.971  53.646  1.00  0.00     0.000 A 
HETATM   23  C13 UNL     1      28.960  -1.787  53.249  1.00  0.00     0.001 A 
HETATM   24  C14 UNL     1      27.742  -1.148  53.010  1.00  0.00     0.013 A 
ENDBRANCH   3  19
TORSDOF 5
ENDMDL
MODEL 2
REMARK VINA RESULT:      -8.4      1.924      6.694
REMARK  5 active torsions:
REMARK  status: ('A' for Active; 'I' for Inactive)
REMARK    1  A    between atoms: C5_5  and  C6_6 
REMARK    2  A    between atoms: C8_8  and  C9_9 
REMARK    3  A    between atoms: C15_16  and  S1_18 
REMARK    4  A    between atoms: S1_18  and  C16_19 
REMARK    5  A    between atoms: C17_20  and  O1_21 
ROOT
HETATM    1  C6  UNL     1      24.101   0.570  53.505  1.00  0.00     0.098 C 
HETATM    2  C7  UNL     1      23.166  -0.558  53.117  1.00  0.00     0.075 C 
HETATM    3  C8  UNL     1      21.965   0.257  52.725  1.00  0.00     0.044 C 
HETATM    4  N1  UNL     1      22.315   1.443  52.351  1.00  0.00    -0.239 NA
HETATM    5  C15 UNL     1      23.765   1.588  52.437  1.00  0.00     0.257 C 
HETATM    6  F1  UNL     1      24.376   1.254  51.254  1.00  0.00    -0.203 F 
ENDROOT
BRANCH   1   7
HETATM    7  C5  UNL     1      25.513   0.187  53.566  1.00  0.00    -0.048 A 
HETATM    8  C4  UNL     1      25.985  -0.871  52.783  1.00  0.00     0.008 A 
HETATM    9  C3  UNL     1      27.306  -1.239  52.830  1.00  0.00     0.007 A 
HETATM   10  C2  UNL     1      28.177  -0.569  53.646  1.00  0.00    -0.062 A 
HETATM   11  C1  UNL     1      29.589  -1.034  53.634  1.00  0.00     0.048 C 
HETATM   12  C19 UNL     1      27.721   0.488  54.432  1.00  0.00     0.007 A 
HETATM   13  C18 UNL     1      26.377   0.867  54.389  1.00  0.00     0.008 A 
ENDBRANCH   1   7
BRANCH   5  14
HETATM   14  S1  UNL     1      24.250   3.264  52.880  1.00  0.00    -0.072 SA
BRANCH  14  15
HETATM   15  C16 UNL     1      23.815   4.362  51.521  1.00  0.00     0.074 C 
HETATM   16  C17 UNL     1      23.765   5.688  51.467  1.00  0.00     0.138 C 
BRANCH  16  17
HETATM   17  O1  UNL     1      24.142   5.996  52.757  1.00  0.00    -0.372 OA
HETATM   18  H16 UNL     1      24.242   5.310  53.493  1.00  0.00     0.216 HD
ENDBRANCH  16  17
ENDBRANCH  14  15
ENDBRANCH   5  14
BRANCH   3  19
HETATM   19  C9  UNL     1      20.588  -0.226  52.762  1.00  0.00    -0.012 A 
HETATM   20  C10 UNL     1      20.199  -1.135  53.708  1.00  0.00     0.013 A 
HETATM   21  C11 UNL     1      18.885  -1.594  53.741  1.00  0.00     0.001 A 
HETATM   22  C12 UNL     1      17.962  -1.130  52.808  1.00  0.00     0.000 A 
HETATM   23  C13 UNL     1      18.328  -0.204  51.831  1.00  0.00     0.001 A 
HETATM   24  C14 UNL     1      19.657   0.220  51.848  1.00  0.00     0.013 A 
ENDBRANCH   3  19
TORSDOF 5
ENDMDL
MODEL 3
REMARK VINA RESULT:      -8.4      1.932      6.167
REMARK  5 active torsions:
REMARK  status: ('A' for Active; 'I' for Inactive)
REMARK    1  A    between atoms: C5_5  and  C6_6 
REMARK    2  A    between atoms: C8_8  and  C9_9 
REMARK    3  A    between atoms: C15_16  and  S1_18 
REMARK    4  A    between atoms: S1_18  and  C16_19 
REMARK    5  A    between atoms: C17_20  and  O1_21 
ROOT
HETATM    1  C6  UNL     1      24.830   1.949  51.230  1.00  0.00     0.098 C 
HETATM    2  C7  UNL     1      23.384   2.054  51.671  1.00  0.00     0.075 C 
HETATM    3  C8  UNL     1      23.366   0.940  52.680  1.00  0.00     0.044 C 
HETATM    4  N1  UNL     1      24.547   0.732  53.158  1.00  0.00    -0.239 NA
HETATM    5  C15 UNL     1      25.502   1.654  52.552  1.00  0.00     0.257 C 
HETATM    6  F1  UNL     1      25.628   2.806  53.289  1.00  0.00    -0.203 F 
ENDROOT
BRANCH   1   7
HETATM    7  C5  UNL     1      25.335   3.136  50.535  1.00  0.00    -0.048 A 
HETATM    8  C4  UNL     1      26.506   3.055  49.775  1.00  0.00     0.008 A 
HETATM    9  C3  UNL     1      26.990   4.157  49.118  1.00  0.00     0.007 A 
HETATM   10  C2  UNL     1      26.325   5.351  49.199  1.00  0.00    -0.062 A 
HETATM   11  C1  UNL     1      26.919   6.494  48.455  1.00  0.00     0.048 C 
HETATM   12  C19 UNL     1      25.156   5.447  49.951  1.00  0.00     0.007 A 
HETATM   13  C18 UNL     1      24.660   4.327  50.623  1.00  0.00     0.008 A 
ENDBRANCH   1   7
BRANCH   5  14
HETATM   14  S1  UNL     1      27.132   0.911  52.366  1.00  0.00    -0.072 SA
BRANCH  14  15
HETATM   15  C16 UNL     1      28.087   1.251  53.854  1.00  0.00     0.074 C 
HETATM   16  C17 UNL     1      28.990   2.194  54.102  1.00  0.00     0.138 C 
BRANCH  16  17
HETATM   17  O1  UNL     1      28.994   2.848  52.888  1.00  0.00    -0.372 OA
HETATM   18  H16 UNL     1      28.828   2.391  52.002  1.00  0.00     0.216 HD
ENDBRANCH  16  17
ENDBRANCH  14  15
ENDBRANCH   5  14
BRANCH   3  19
HETATM   19  C9  UNL     1      22.172   0.194  53.069  1.00  0.00    -0.012 A 
HETATM   20  C10 UNL     1      22.263  -0.839  53.962  1.00  0.00     0.013 A 
HETATM   21  C11 UNL     1      21.124  -1.549  54.330  1.00  0.00     0.001 A 
HETATM   22  C12 UNL     1      19.886  -1.209  53.790  1.00  0.00     0.000 A 
HETATM   23  C13 UNL     1      19.762  -0.162  52.877  1.00  0.00     0.001 A 
HETATM   24  C14 UNL     1      20.937   0.513  52.546  1.00  0.00     0.013 A 
ENDBRANCH   3  19
TORSDOF 5
ENDMDL
MODEL 4
REMARK VINA RESULT:      -8.2      1.272      1.665
REMARK  5 active torsions:
REMARK  status: ('A' for Active; 'I' for Inactive)
REMARK    1  A    between atoms: C5_5  and  C6_6 
REMARK    2  A    between atoms: C8_8  and  C9_9 
REMARK    3  A    between atoms: C15_16  and  S1_18 
REMARK    4  A    between atoms: S1_18  and  C16_19 
REMARK    5  A    between atoms: C17_20  and  O1_21 
ROOT
HETATM    1  C6  UNL     1      23.876   0.557  52.050  1.00  0.00     0.098 C 
HETATM    2  C7  UNL     1      24.768  -0.155  53.047  1.00  0.00     0.075 C 
HETATM    3  C8  UNL     1      26.030   0.634  52.838  1.00  0.00     0.044 C 
HETATM    4  N1  UNL     1      25.766   1.818  52.397  1.00  0.00    -0.239 NA
HETATM    5  C15 UNL     1      24.323   1.988  52.251  1.00  0.00     0.257 C 
HETATM    6  F1  UNL     1      23.759   2.507  53.390  1.00  0.00    -0.203 F 
ENDROOT
BRANCH   1   7
HETATM    7  C5  UNL     1      22.443   0.326  52.252  1.00  0.00    -0.048 A 
HETATM    8  C4  UNL     1      21.550   0.513  51.192  1.00  0.00     0.008 A 
HETATM    9  C3  UNL     1      20.206   0.299  51.365  1.00  0.00     0.007 A 
HETATM   10  C2  UNL     1      19.727  -0.102  52.583  1.00  0.00    -0.062 A 
HETATM   11  C1  UNL     1      18.258  -0.310  52.682  1.00  0.00     0.048 C 
HETATM   12  C19 UNL     1      20.605  -0.292  53.648  1.00  0.00     0.007 A 
HETATM   13  C18 UNL     1      21.974  -0.075  53.477  1.00  0.00     0.008 A 
ENDBRANCH   1   7
BRANCH   5  14
HETATM   14  S1  UNL     1      23.907   3.060  50.865  1.00  0.00    -0.072 SA
BRANCH  14  15
HETATM   15  C16 UNL     1      23.266   4.611  51.517  1.00  0.00     0.074 C 
HETATM   16  C17 UNL     1      23.811   5.823  51.550  1.00  0.00     0.138 C 
BRANCH  16  17
HETATM   17  O1  UNL     1      25.020   5.559  50.941  1.00  0.00    -0.372 OA
HETATM   18  H16 UNL     1      25.890   6.004  51.199  1.00  0.00     0.216 HD
ENDBRANCH  16  17
ENDBRANCH  14  15
ENDBRANCH   5  14
BRANCH   3  19
HETATM   19  C9  UNL     1      27.375   0.129  53.099  1.00  0.00    -0.012 A 
HETATM   20  C10 UNL     1      27.648  -1.205  52.976  1.00  0.00     0.013 A 
HETATM   21  C11 UNL     1      28.932  -1.684  53.226  1.00  0.00     0.001 A 
HETATM   22  C12 UNL     1      29.943  -0.803  53.602  1.00  0.00     0.000 A 
HETATM   23  C13 UNL     1      29.695   0.563  53.736  1.00  0.00     0.001 A 
HETATM   24  C14 UNL     1      28.391   0.984  53.473  1.00  0.00     0.013 A 
ENDBRANCH   3  19
TORSDOF 5
ENDMDL
MODEL 5
REMARK VINA RESULT:      -8.2      2.434      5.196
REMARK  5 active torsions:
REMARK  status: ('A' for Active; 'I' for Inactive)
REMARK    1  A    between atoms: C5_5  and  C6_6 
REMARK    2  A    between atoms: C8_8  and  C9_9 
REMARK    3  A    between atoms: C15_16  and  S1_18 
REMARK    4  A    between atoms: S1_18  and  C16_19 
REMARK    5  A    between atoms: C17_20  and  O1_21 
ROOT
HETATM    1  C6  UNL     1      25.004   1.969  52.415  1.00  0.00     0.098 C 
HETATM    2  C7  UNL     1      24.731   2.565  51.049  1.00  0.00     0.075 C 
HETATM    3  C8  UNL     1      26.088   3.149  50.772  1.00  0.00     0.044 C 
HETATM    4  N1  UNL     1      27.004   2.516  51.424  1.00  0.00    -0.239 NA
HETATM    5  C15 UNL     1      26.407   1.441  52.211  1.00  0.00     0.257 C 
HETATM    6  F1  UNL     1      26.373   0.261  51.510  1.00  0.00    -0.203 F 
ENDROOT
BRANCH   1   7
HETATM    7  C5  UNL     1      24.025   0.965  52.841  1.00  0.00    -0.048 A 
HETATM    8  C4  UNL     1      24.319   0.114  53.911  1.00  0.00     0.008 A 
HETATM    9  C3  UNL     1      23.411  -0.829  54.321  1.00  0.00     0.007 A 
HETATM   10  C2  UNL     1      22.205  -0.944  53.685  1.00  0.00    -0.062 A 
HETATM   11  C1  UNL     1      21.282  -1.992  54.196  1.00  0.00     0.048 C 
HETATM   12  C19 UNL     1      21.899  -0.102  52.617  1.00  0.00     0.007 A 
HETATM   13  C18 UNL     1      22.819   0.860  52.195  1.00  0.00     0.008 A 
ENDBRANCH   1   7
BRANCH   5  14
HETATM   14  S1  UNL     1      27.290   1.165  53.756  1.00  0.00    -0.072 SA
BRANCH  14  15
HETATM   15  C16 UNL     1      29.020   0.843  53.375  1.00  0.00     0.074 C 
HETATM   16  C17 UNL     1      29.751  -0.252  53.549  1.00  0.00     0.138 C 
BRANCH  16  17
HETATM   17  O1  UNL     1      28.806  -1.085  54.110  1.00  0.00    -0.372 OA
HETATM   18  H16 UNL     1      29.012  -1.768  54.826  1.00  0.00     0.216 HD
ENDBRANCH  16  17
ENDBRANCH  14  15
ENDBRANCH   5  14
BRANCH   3  19
HETATM   19  C9  UNL     1      26.336   4.283  49.886  1.00  0.00    -0.012 A 
HETATM   20  C10 UNL     1      27.510   4.369  49.187  1.00  0.00     0.013 A 
HETATM   21  C11 UNL     1      27.744   5.451  48.343  1.00  0.00     0.001 A 
HETATM   22  C12 UNL     1      26.784   6.450  48.207  1.00  0.00     0.000 A 
HETATM   23  C13 UNL     1      25.578   6.390  48.905  1.00  0.00     0.001 A 
HETATM   24  C14 UNL     1      25.399   5.283  49.736  1.00  0.00     0.013 A 
ENDBRANCH   3  19
TORSDOF 5
ENDMDL
MODEL 6
REMARK VINA RESULT:      -7.8      2.839      4.369
REMARK  5 active torsions:
REMARK  status: ('A' for Active; 'I' for Inactive)
REMARK    1  A    between atoms: C5_5  and  C6_6 
REMARK    2  A    between atoms: C8_8  and  C9_9 
REMARK    3  A    between atoms: C15_16  and  S1_18 
REMARK    4  A    between atoms: S1_18  and  C16_19 
REMARK    5  A    between atoms: C17_20  and  O1_21 
ROOT
HETATM    1  C6  UNL     1      24.545   2.550  52.596  1.00  0.00     0.098 C 
HETATM    2  C7  UNL     1      25.975   2.290  52.166  1.00  0.00     0.075 C 
HETATM    3  C8  UNL     1      26.093   0.856  52.599  1.00  0.00     0.044 C 
HETATM    4  N1  UNL     1      24.935   0.285  52.626  1.00  0.00    -0.239 NA
HETATM    5  C15 UNL     1      23.900   1.234  52.224  1.00  0.00     0.257 C 
HETATM    6  F1  UNL     1      23.669   1.184  50.871  1.00  0.00    -0.203 F 
ENDROOT
BRANCH   1   7
HETATM    7  C5  UNL     1      23.936   3.730  51.978  1.00  0.00    -0.048 A 
HETATM    8  C4  UNL     1      24.523   4.309  50.849  1.00  0.00     0.008 A 
HETATM    9  C3  UNL     1      23.962   5.413  50.259  1.00  0.00     0.007 A 
HETATM   10  C2  UNL     1      22.816   5.958  50.773  1.00  0.00    -0.062 A 
HETATM   11  C1  UNL     1      22.277   7.154  50.070  1.00  0.00     0.048 C 
HETATM   12  C19 UNL     1      22.220   5.392  51.897  1.00  0.00     0.007 A 
HETATM   13  C18 UNL     1      22.787   4.268  52.502  1.00  0.00     0.008 A 
ENDBRANCH   1   7
BRANCH   5  14
HETATM   14  S1  UNL     1      22.345   0.940  53.083  1.00  0.00    -0.072 SA
BRANCH  14  15
HETATM   15  C16 UNL     1      22.235  -0.812  53.481  1.00  0.00     0.074 C 
HETATM   16  C17 UNL     1      21.519  -1.443  54.405  1.00  0.00     0.138 C 
BRANCH  16  17
HETATM   17  O1  UNL     1      20.875  -0.369  54.984  1.00  0.00    -0.372 OA
HETATM   18  H16 UNL     1      19.882  -0.342  55.172  1.00  0.00     0.216 HD
ENDBRANCH  16  17
ENDBRANCH  14  15
ENDBRANCH   5  14
BRANCH   3  19
HETATM   19  C9  UNL     1      27.349   0.195  52.944  1.00  0.00    -0.012 A 
HETATM   20  C10 UNL     1      28.422   0.929  53.370  1.00  0.00     0.013 A 
HETATM   21  C11 UNL     1      29.618   0.296  53.697  1.00  0.00     0.001 A 
HETATM   22  C12 UNL     1      29.725  -1.088  53.592  1.00  0.00     0.000 A 
HETATM   23  C13 UNL     1      28.649  -1.864  53.161  1.00  0.00     0.001 A 
HETATM   24  C14 UNL     1      27.477  -1.175  52.847  1.00  0.00     0.013 A 
ENDBRANCH   3  19
TORSDOF 5
ENDMDL
MODEL 7
REMARK VINA RESULT:      -7.7      3.339      6.337
REMARK  5 active torsions:
REMARK  status: ('A' for Active; 'I' for Inactive)
REMARK    1  A    between atoms: C5_5  and  C6_6 
REMARK    2  A    between atoms: C8_8  and  C9_9 
REMARK    3  A    between atoms: C15_16  and  S1_18 
REMARK    4  A    between atoms: S1_18  and  C16_19 
REMARK    5  A    between atoms: C17_20  and  O1_21 
ROOT
HETATM    1  C6  UNL     1      24.570   3.908  50.539  1.00  0.00     0.098 C 
HETATM    2  C7  UNL     1      25.048   2.616  51.171  1.00  0.00     0.075 C 
HETATM    3  C8  UNL     1      23.715   1.969  51.422  1.00  0.00     0.044 C 
HETATM    4  N1  UNL     1      22.825   2.412  50.597  1.00  0.00    -0.239 NA
HETATM    5  C15 UNL     1      23.422   3.395  49.698  1.00  0.00     0.257 C 
HETATM    6  F1  UNL     1      23.898   2.807  48.553  1.00  0.00    -0.203 F 
ENDROOT
BRANCH   1   7
HETATM    7  C5  UNL     1      25.602   4.633  49.795  1.00  0.00    -0.048 A 
HETATM    8  C4  UNL     1      25.431   5.990  49.505  1.00  0.00     0.008 A 
HETATM    9  C3  UNL     1      26.390   6.682  48.811  1.00  0.00     0.007 A 
HETATM   10  C2  UNL     1      27.529   6.047  48.395  1.00  0.00    -0.062 A 
HETATM   11  C1  UNL     1      28.515   6.873  47.648  1.00  0.00     0.048 C 
HETATM   12  C19 UNL     1      27.713   4.695  48.676  1.00  0.00     0.007 A 
HETATM   13  C18 UNL     1      26.740   3.985  49.383  1.00  0.00     0.008 A 
ENDBRANCH   1   7
BRANCH   5  14
HETATM   14  S1  UNL     1      22.252   4.684  49.237  1.00  0.00    -0.072 SA
BRANCH  14  15
HETATM   15  C16 UNL     1      21.848   5.641  50.708  1.00  0.00     0.074 C 
HETATM   16  C17 UNL     1      21.781   6.955  50.890  1.00  0.00     0.138 C 
BRANCH  16  17
HETATM   17  O1  UNL     1      22.112   7.390  49.624  1.00  0.00    -0.372 OA
HETATM   18  H16 UNL     1      22.719   8.177  49.440  1.00  0.00     0.216 HD
ENDBRANCH  16  17
ENDBRANCH  14  15
ENDBRANCH   5  14
BRANCH   3  19
HETATM   19  C9  UNL     1      23.459   0.973  52.458  1.00  0.00    -0.012 A 
HETATM   20  C10 UNL     1      24.500   0.339  53.080  1.00  0.00     0.013 A 
HETATM   21  C11 UNL     1      24.253  -0.610  54.068  1.00  0.00     0.001 A 
HETATM   22  C12 UNL     1      22.943  -0.918  54.426  1.00  0.00     0.000 A 
HETATM   23  C13 UNL     1      21.861  -0.289  53.811  1.00  0.00     0.001 A 
HETATM   24  C14 UNL     1      22.170   0.653  52.829  1.00  0.00     0.013 A 
ENDBRANCH   3  19
TORSDOF 5
ENDMDL
MODEL 8
REMARK VINA RESULT:      -7.6      3.579      5.232
REMARK  5 active torsions:
REMARK  status: ('A' for Active; 'I' for Inactive)
REMARK    1  A    between atoms: C5_5  and  C6_6 
REMARK    2  A    between atoms: C8_8  and  C9_9 
REMARK    3  A    between atoms: C15_16  and  S1_18 
REMARK    4  A    between atoms: S1_18  and  C16_19 
REMARK    5  A    between atoms: C17_20  and  O1_21 
ROOT
HETATM    1  C6  UNL     1      23.399   2.475  50.603  1.00  0.00     0.098 C 
HETATM    2  C7  UNL     1      24.828   2.961  50.734  1.00  0.00     0.075 C 
HETATM    3  C8  UNL     1      24.699   4.270  50.006  1.00  0.00     0.044 C 
HETATM    4  N1  UNL     1      23.484   4.705  50.052  1.00  0.00    -0.239 NA
HETATM    5  C15 UNL     1      22.646   3.772  50.800  1.00  0.00     0.257 C 
HETATM    6  F1  UNL     1      22.598   4.096  52.134  1.00  0.00    -0.203 F 
ENDROOT
BRANCH   1   7
HETATM    7  C5  UNL     1      23.037   1.406  51.537  1.00  0.00    -0.048 A 
HETATM    8  C4  UNL     1      21.809   0.750  51.406  1.00  0.00     0.008 A 
HETATM    9  C3  UNL     1      21.458  -0.254  52.273  1.00  0.00     0.007 A 
HETATM   10  C2  UNL     1      22.313  -0.623  53.277  1.00  0.00    -0.062 A 
HETATM   11  C1  UNL     1      21.852  -1.720  54.170  1.00  0.00     0.048 C 
HETATM   12  C19 UNL     1      23.540   0.021  53.419  1.00  0.00     0.007 A 
HETATM   13  C18 UNL     1      23.902   1.044  52.540  1.00  0.00     0.008 A 
ENDBRANCH   1   7
BRANCH   5  14
HETATM   14  S1  UNL     1      20.963   3.718  50.162  1.00  0.00    -0.072 SA
BRANCH  14  15
HETATM   15  C16 UNL     1      21.031   3.793  48.364  1.00  0.00     0.074 C 
HETATM   16  C17 UNL     1      20.706   2.884  47.451  1.00  0.00     0.138 C 
BRANCH  16  17
HETATM   17  O1  UNL     1      20.298   1.854  48.272  1.00  0.00    -0.372 OA
HETATM   18  H16 UNL     1      20.660   0.912  48.215  1.00  0.00     0.216 HD
ENDBRANCH  16  17
ENDBRANCH  14  15
ENDBRANCH   5  14
BRANCH   3  19
HETATM   19  C9  UNL     1      25.799   4.957  49.337  1.00  0.00    -0.012 A 
HETATM   20  C10 UNL     1      25.641   6.239  48.885  1.00  0.00     0.013 A 
HETATM   21  C11 UNL     1      26.692   6.892  48.246  1.00  0.00     0.001 A 
HETATM   22  C12 UNL     1      27.909   6.241  48.066  1.00  0.00     0.000 A 
HETATM   23  C13 UNL     1      28.102   4.935  48.516  1.00  0.00     0.001 A 
HETATM   24  C14 UNL     1      27.014   4.332  49.148  1.00  0.00     0.013 A 
ENDBRANCH   3  19
TORSDOF 5
ENDMDL
MODEL 9
REMARK VINA RESULT:      -7.6      3.813      6.533
REMARK  5 active torsions:
REMARK  status: ('A' for Active; 'I' for Inactive)
REMARK    1  A    between atoms: C5_5  and  C6_6 
REMARK    2  A    between atoms: C8_8  and  C9_9 
REMARK    3  A    between atoms: C15_16  and  S1_18 
REMARK    4  A    between atoms: S1_18  and  C16_19 
REMARK    5  A    between atoms: C17_20  and  O1_21 
ROOT
HETATM    1  C6  UNL     1      23.955   3.684  50.563  1.00  0.00     0.098 C 
HETATM    2  C7  UNL     1      24.344   2.476  51.391  1.00  0.00     0.075 C 
HETATM    3  C8  UNL     1      22.990   1.835  51.522  1.00  0.00     0.044 C 
HETATM    4  N1  UNL     1      22.224   2.172  50.539  1.00  0.00    -0.239 NA
HETATM    5  C15 UNL     1      22.938   3.064  49.630  1.00  0.00     0.257 C 
HETATM    6  F1  UNL     1      23.571   2.365  48.633  1.00  0.00    -0.203 F 
ENDROOT
BRANCH   1   7
HETATM    7  C5  UNL     1      25.080   4.343  49.895  1.00  0.00    -0.048 A 
HETATM    8  C4  UNL     1      24.988   5.694  49.543  1.00  0.00     0.008 A 
HETATM    9  C3  UNL     1      26.034   6.325  48.919  1.00  0.00     0.007 A 
HETATM   10  C2  UNL     1      27.182   5.634  48.636  1.00  0.00    -0.062 A 
HETATM   11  C1  UNL     1      28.264   6.397  47.958  1.00  0.00     0.048 C 
HETATM   12  C19 UNL     1      27.287   4.289  48.981  1.00  0.00     0.007 A 
HETATM   13  C18 UNL     1      26.225   3.641  49.616  1.00  0.00     0.008 A 
ENDBRANCH   1   7
BRANCH   5  14
HETATM   14  S1  UNL     1      21.841   4.276  48.875  1.00  0.00    -0.072 SA
BRANCH  14  15
HETATM   15  C16 UNL     1      20.761   4.943  50.152  1.00  0.00     0.074 C 
HETATM   16  C17 UNL     1      19.598   4.499  50.616  1.00  0.00     0.138 C 
BRANCH  16  17
HETATM   17  O1  UNL     1      19.445   3.371  49.838  1.00  0.00    -0.372 OA
HETATM   18  H16 UNL     1      19.842   2.470  50.067  1.00  0.00     0.216 HD
ENDBRANCH  16  17
ENDBRANCH  14  15
ENDBRANCH   5  14
BRANCH   3  19
HETATM   19  C9  UNL     1      22.594   0.951  52.615  1.00  0.00    -0.012 A 
HETATM   20  C10 UNL     1      21.325   1.006  53.123  1.00  0.00     0.013 A 
HETATM   21  C11 UNL     1      20.951   0.162  54.165  1.00  0.00     0.001 A 
HETATM   22  C12 UNL     1      21.868  -0.742  54.694  1.00  0.00     0.000 A 
HETATM   23  C13 UNL     1      23.169  -0.821  54.197  1.00  0.00     0.001 A 
HETATM   24  C14 UNL     1      23.487   0.048  53.153  1.00  0.00     0.013 A 
ENDBRANCH   3  19
TORSDOF 5
ENDMDL
