MODEL 1
REMARK VINA RESULT:      -8.2      0.000      0.000
REMARK  5 active torsions:
REMARK  status: ('A' for Active; 'I' for Inactive)
REMARK    1  A    between atoms: O1_2  and  C2_3 
REMARK    2  A    between atoms: C5_6  and  C6_7 
REMARK    3  A    between atoms: C9_12  and  N2_13 
REMARK    4  A    between atoms: N2_13  and  C10_14 
REMARK    5  A    between atoms: C13_18  and  C14_19 
ROOT
HETATM    1  N2  UNL     1      22.797   0.704  51.602  1.00  0.00    -0.186 N 
HETATM    2  H11 UNL     1      22.766   0.689  50.559  1.00  0.00     0.184 HD
ENDROOT
BRANCH   1   3
HETATM    3  C9  UNL     1      21.579   0.280  52.148  1.00  0.00     0.080 C 
HETATM    4  C2  UNL     1      20.396   0.765  51.407  1.00  0.00     0.095 C 
HETATM    5  C3  UNL     1      19.121   0.428  51.387  1.00  0.00     0.041 C 
HETATM    6  C4  UNL     1      18.308  -0.559  52.072  1.00  0.00     0.035 C 
HETATM    7  C5  UNL     1      18.435  -1.370  53.086  1.00  0.00     0.066 C 
HETATM    8  N1  UNL     1      19.553  -1.578  53.960  1.00  0.00    -0.384 N 
HETATM    9  C7  UNL     1      20.902  -1.222  54.249  1.00  0.00     0.149 C 
HETATM   10  H7  UNL     1      19.258  -2.289  54.696  1.00  0.00     0.160 HD
HETATM   11  C8  UNL     1      21.639  -0.487  53.238  1.00  0.00     0.025 C 
BRANCH   4  12
HETATM   12  O1  UNL     1      20.731   1.817  50.540  1.00  0.00    -0.354 OA
HETATM   13  C1  UNL     1      20.346   1.785  49.171  1.00  0.00     0.210 C 
ENDBRANCH   4  12
BRANCH   7  14
HETATM   14  C6  UNL     1      17.282  -2.224  53.425  1.00  0.00     0.287 C 
HETATM   15  O2  UNL     1      17.408  -3.395  53.868  1.00  0.00    -0.300 OA
ENDBRANCH   7  14
ENDBRANCH   1   3
BRANCH   1  16
HETATM   16  C10 UNL     1      23.939   1.107  52.309  1.00  0.00     0.727 A 
HETATM   17  N3  UNL     1      23.999   2.319  52.888  1.00  0.00    -0.075 NA
HETATM   18  C11 UNL     1      25.081   2.741  53.576  1.00  0.00     0.139 A 
HETATM   19  C12 UNL     1      26.127   1.842  53.648  1.00  0.00     0.053 A 
HETATM   20  C13 UNL     1      26.112   0.590  53.071  1.00  0.00     0.089 A 
HETATM   21  N5  UNL     1      24.982   0.262  52.404  1.00  0.00    -0.062 NA
BRANCH  20  22
HETATM   22  C14 UNL     1      27.228  -0.343  53.159  1.00  0.00     0.011 A 
HETATM   23  C15 UNL     1      28.520  -0.004  53.501  1.00  0.00     0.017 A 
HETATM   24  C16 UNL     1      29.520  -0.958  53.559  1.00  0.00     0.020 A 
HETATM   25  C17 UNL     1      29.231  -2.280  53.272  1.00  0.00     0.116 A 
HETATM   26  N4  UNL     1      27.967  -2.622  52.936  1.00  0.00    -0.272 NA
HETATM   27  C18 UNL     1      27.004  -1.672  52.885  1.00  0.00     0.130 A 
ENDBRANCH  20  22
ENDBRANCH   1  16
TORSDOF 5
ENDMDL
MODEL 2
REMARK VINA RESULT:      -8.1      4.370      7.386
REMARK  5 active torsions:
REMARK  status: ('A' for Active; 'I' for Inactive)
REMARK    1  A    between atoms: O1_2  and  C2_3 
REMARK    2  A    between atoms: C5_6  and  C6_7 
REMARK    3  A    between atoms: C9_12  and  N2_13 
REMARK    4  A    between atoms: N2_13  and  C10_14 
REMARK    5  A    between atoms: C13_18  and  C14_19 
ROOT
HETATM    1  N2  UNL     1      24.392   2.695  52.605  1.00  0.00    -0.186 N 
HETATM    2  H11 UNL     1      23.727   2.891  53.385  1.00  0.00     0.184 HD
ENDROOT
BRANCH   1   3
HETATM    3  C9  UNL     1      25.374   1.778  52.999  1.00  0.00     0.080 C 
HETATM    4  C2  UNL     1      24.912   0.374  52.987  1.00  0.00     0.095 C 
HETATM    5  C3  UNL     1      25.522  -0.795  53.021  1.00  0.00     0.041 C 
HETATM    6  C4  UNL     1      26.904  -1.232  53.084  1.00  0.00     0.035 C 
HETATM    7  C5  UNL     1      28.070  -0.696  53.312  1.00  0.00     0.066 C 
HETATM    8  N1  UNL     1      28.411   0.666  53.611  1.00  0.00    -0.384 N 
HETATM    9  C7  UNL     1      27.919   1.992  53.776  1.00  0.00     0.149 C 
HETATM   10  H7  UNL     1      29.462   0.704  53.780  1.00  0.00     0.160 HD
HETATM   11  C8  UNL     1      26.569   2.273  53.326  1.00  0.00     0.025 C 
BRANCH   4  12
HETATM   12  O1  UNL     1      23.512   0.296  52.926  1.00  0.00    -0.354 OA
HETATM   13  C1  UNL     1      22.814  -0.779  53.544  1.00  0.00     0.210 C 
ENDBRANCH   4  12
BRANCH   7  14
HETATM   14  C6  UNL     1      29.249  -1.580  53.268  1.00  0.00     0.287 C 
HETATM   15  O2  UNL     1      29.180  -2.819  53.486  1.00  0.00    -0.300 OA
ENDBRANCH   7  14
ENDBRANCH   1   3
BRANCH   1  16
HETATM   16  C10 UNL     1      24.268   3.304  51.348  1.00  0.00     0.727 A 
HETATM   17  N3  UNL     1      23.119   3.225  50.654  1.00  0.00    -0.075 NA
HETATM   18  C11 UNL     1      22.963   3.798  49.442  1.00  0.00     0.139 A 
HETATM   19  C12 UNL     1      24.066   4.475  48.959  1.00  0.00     0.053 A 
HETATM   20  C13 UNL     1      25.263   4.584  49.633  1.00  0.00     0.089 A 
HETATM   21  N5  UNL     1      25.318   3.975  50.840  1.00  0.00    -0.062 NA
BRANCH  20  22
HETATM   22  C14 UNL     1      26.414   5.304  49.104  1.00  0.00     0.011 A 
HETATM   23  C15 UNL     1      27.598   4.722  48.704  1.00  0.00     0.017 A 
HETATM   24  C16 UNL     1      28.643   5.485  48.214  1.00  0.00     0.020 A 
HETATM   25  C17 UNL     1      28.509   6.858  48.116  1.00  0.00     0.116 A 
HETATM   26  N4  UNL     1      27.351   7.438  48.506  1.00  0.00    -0.272 NA
HETATM   27  C18 UNL     1      26.342   6.672  48.983  1.00  0.00     0.130 A 
ENDBRANCH  20  22
ENDBRANCH   1  16
TORSDOF 5
ENDMDL
MODEL 3
REMARK VINA RESULT:      -7.9      4.771      8.308
REMARK  5 active torsions:
REMARK  status: ('A' for Active; 'I' for Inactive)
REMARK    1  A    between atoms: O1_2  and  C2_3 
REMARK    2  A    between atoms: C5_6  and  C6_7 
REMARK    3  A    between atoms: C9_12  and  N2_13 
REMARK    4  A    between atoms: N2_13  and  C10_14 
REMARK    5  A    between atoms: C13_18  and  C14_19 
ROOT
HETATM    1  N2  UNL     1      25.635   3.200  49.880  1.00  0.00    -0.186 N 
HETATM    2  H11 UNL     1      25.101   2.792  49.082  1.00  0.00     0.184 HD
ENDROOT
BRANCH   1   3
HETATM    3  C9  UNL     1      25.990   4.530  49.622  1.00  0.00     0.080 C 
HETATM    4  C2  UNL     1      25.012   5.514  50.130  1.00  0.00     0.095 C 
HETATM    5  C3  UNL     1      25.044   6.815  50.347  1.00  0.00     0.041 C 
HETATM    6  C4  UNL     1      26.038   7.859  50.188  1.00  0.00     0.035 C 
HETATM    7  C5  UNL     1      27.203   7.996  49.618  1.00  0.00     0.066 C 
HETATM    8  N1  UNL     1      27.977   7.045  48.873  1.00  0.00    -0.384 N 
HETATM    9  C7  UNL     1      28.056   5.703  48.403  1.00  0.00     0.149 C 
HETATM   10  H7  UNL     1      28.853   7.543  48.528  1.00  0.00     0.160 HD
HETATM   11  C8  UNL     1      27.134   4.734  48.966  1.00  0.00     0.025 C 
BRANCH   4  12
HETATM   12  O1  UNL     1      23.788   4.904  50.444  1.00  0.00    -0.354 OA
HETATM   13  C1  UNL     1      23.159   5.132  51.700  1.00  0.00     0.210 C 
ENDBRANCH   4  12
BRANCH   7  14
HETATM   14  C6  UNL     1      27.867   9.308  49.729  1.00  0.00     0.287 C 
HETATM   15  O2  UNL     1      29.014   9.532  49.262  1.00  0.00    -0.300 OA
ENDBRANCH   7  14
ENDBRANCH   1   3
BRANCH   1  16
HETATM   16  C10 UNL     1      25.930   2.462  51.036  1.00  0.00     0.727 A 
HETATM   17  N3  UNL     1      27.170   2.461  51.556  1.00  0.00    -0.075 NA
HETATM   18  C11 UNL     1      27.490   1.763  52.666  1.00  0.00     0.139 A 
HETATM   19  C12 UNL     1      26.456   1.047  53.237  1.00  0.00     0.053 A 
HETATM   20  C13 UNL     1      25.170   1.018  52.741  1.00  0.00     0.089 A 
HETATM   21  N5  UNL     1      24.951   1.751  51.625  1.00  0.00    -0.062 NA
BRANCH  20  22
HETATM   22  C14 UNL     1      24.093   0.256  53.360  1.00  0.00     0.011 A 
HETATM   23  C15 UNL     1      22.773   0.282  52.963  1.00  0.00     0.017 A 
HETATM   24  C16 UNL     1      21.814  -0.476  53.611  1.00  0.00     0.020 A 
HETATM   25  C17 UNL     1      22.174  -1.280  54.678  1.00  0.00     0.116 A 
HETATM   26  N4  UNL     1      23.466  -1.312  55.074  1.00  0.00    -0.272 NA
HETATM   27  C18 UNL     1      24.388  -0.562  54.426  1.00  0.00     0.130 A 
ENDBRANCH  20  22
ENDBRANCH   1  16
TORSDOF 5
ENDMDL
MODEL 4
REMARK VINA RESULT:      -7.9      1.954      2.762
REMARK  5 active torsions:
REMARK  status: ('A' for Active; 'I' for Inactive)
REMARK    1  A    between atoms: O1_2  and  C2_3 
REMARK    2  A    between atoms: C5_6  and  C6_7 
REMARK    3  A    between atoms: C9_12  and  N2_13 
REMARK    4  A    between atoms: N2_13  and  C10_14 
REMARK    5  A    between atoms: C13_18  and  C14_19 
ROOT
HETATM    1  N2  UNL     1      22.809   1.512  53.112  1.00  0.00    -0.186 N 
HETATM    2  H11 UNL     1      22.579   1.881  54.061  1.00  0.00     0.184 HD
ENDROOT
BRANCH   1   3
HETATM    3  C9  UNL     1      21.681   0.945  52.505  1.00  0.00     0.080 C 
HETATM    4  C2  UNL     1      20.892   0.083  53.410  1.00  0.00     0.095 C 
HETATM    5  C3  UNL     1      19.674  -0.423  53.369  1.00  0.00     0.041 C 
HETATM    6  C4  UNL     1      18.568  -0.365  52.432  1.00  0.00     0.035 C 
HETATM    7  C5  UNL     1      18.370   0.031  51.205  1.00  0.00     0.066 C 
HETATM    8  N1  UNL     1      19.290   0.610  50.268  1.00  0.00    -0.384 N 
HETATM    9  C7  UNL     1      20.621   1.070  50.058  1.00  0.00     0.149 C 
HETATM   10  H7  UNL     1      18.766   0.757  49.352  1.00  0.00     0.160 HD
HETATM   11  C8  UNL     1      21.467   1.247  51.223  1.00  0.00     0.025 C 
BRANCH   4  12
HETATM   12  O1  UNL     1      21.623  -0.259  54.558  1.00  0.00    -0.354 OA
HETATM   13  C1  UNL     1      22.065  -1.595  54.772  1.00  0.00     0.210 C 
ENDBRANCH   4  12
BRANCH   7  14
HETATM   14  C6  UNL     1      17.012  -0.116  50.652  1.00  0.00     0.287 C 
HETATM   15  O2  UNL     1      16.790  -0.274  49.423  1.00  0.00    -0.300 OA
ENDBRANCH   7  14
ENDBRANCH   1   3
BRANCH   1  16
HETATM   16  C10 UNL     1      24.098   1.601  52.569  1.00  0.00     0.727 A 
HETATM   17  N3  UNL     1      24.445   2.631  51.776  1.00  0.00    -0.075 NA
HETATM   18  C11 UNL     1      25.676   2.749  51.237  1.00  0.00     0.139 A 
HETATM   19  C12 UNL     1      26.562   1.738  51.553  1.00  0.00     0.053 A 
HETATM   20  C13 UNL     1      26.255   0.664  52.359  1.00  0.00     0.089 A 
HETATM   21  N5  UNL     1      24.994   0.637  52.851  1.00  0.00    -0.062 NA
BRANCH  20  22
HETATM   22  C14 UNL     1      27.206  -0.392  52.680  1.00  0.00     0.011 A 
HETATM   23  C15 UNL     1      28.457  -0.193  53.225  1.00  0.00     0.017 A 
HETATM   24  C16 UNL     1      29.298  -1.258  53.497  1.00  0.00     0.020 A 
HETATM   25  C17 UNL     1      28.888  -2.550  53.222  1.00  0.00     0.116 A 
HETATM   26  N4  UNL     1      27.663  -2.755  52.687  1.00  0.00    -0.272 NA
HETATM   27  C18 UNL     1      26.857  -1.699  52.429  1.00  0.00     0.130 A 
ENDBRANCH  20  22
ENDBRANCH   1  16
TORSDOF 5
ENDMDL
MODEL 5
REMARK VINA RESULT:      -7.8      4.578      7.593
REMARK  5 active torsions:
REMARK  status: ('A' for Active; 'I' for Inactive)
REMARK    1  A    between atoms: O1_2  and  C2_3 
REMARK    2  A    between atoms: C5_6  and  C6_7 
REMARK    3  A    between atoms: C9_12  and  N2_13 
REMARK    4  A    between atoms: N2_13  and  C10_14 
REMARK    5  A    between atoms: C13_18  and  C14_19 
ROOT
HETATM    1  N2  UNL     1      24.383   3.412  49.585  1.00  0.00    -0.186 N 
HETATM    2  H11 UNL     1      23.963   3.117  48.677  1.00  0.00     0.184 HD
ENDROOT
BRANCH   1   3
HETATM    3  C9  UNL     1      24.910   4.707  49.499  1.00  0.00     0.080 C 
HETATM    4  C2  UNL     1      23.972   5.759  49.944  1.00  0.00     0.095 C 
HETATM    5  C3  UNL     1      24.105   7.028  50.277  1.00  0.00     0.041 C 
HETATM    6  C4  UNL     1      25.214   7.959  50.358  1.00  0.00     0.035 C 
HETATM    7  C5  UNL     1      26.461   8.000  49.979  1.00  0.00     0.066 C 
HETATM    8  N1  UNL     1      27.239   7.022  49.275  1.00  0.00    -0.384 N 
HETATM    9  C7  UNL     1      27.250   5.717  48.705  1.00  0.00     0.149 C 
HETATM   10  H7  UNL     1      28.205   7.439  49.107  1.00  0.00     0.160 HD
HETATM   11  C8  UNL     1      26.157   4.824  49.039  1.00  0.00     0.025 C 
BRANCH   4  12
HETATM   12  O1  UNL     1      22.657   5.274  50.020  1.00  0.00    -0.354 OA
HETATM   13  C1  UNL     1      21.837   5.563  51.146  1.00  0.00     0.210 C 
ENDBRANCH   4  12
BRANCH   7  14
HETATM   14  C6  UNL     1      27.232   9.215  50.301  1.00  0.00     0.287 C 
HETATM   15  O2  UNL     1      27.155  10.272  49.621  1.00  0.00    -0.300 OA
ENDBRANCH   7  14
ENDBRANCH   1   3
BRANCH   1  16
HETATM   16  C10 UNL     1      24.391   2.576  50.710  1.00  0.00     0.727 A 
HETATM   17  N3  UNL     1      23.243   2.096  51.222  1.00  0.00    -0.075 NA
HETATM   18  C11 UNL     1      23.213   1.289  52.303  1.00  0.00     0.139 A 
HETATM   19  C12 UNL     1      24.443   0.985  52.853  1.00  0.00     0.053 A 
HETATM   20  C13 UNL     1      25.645   1.450  52.364  1.00  0.00     0.089 A 
HETATM   21  N5  UNL     1      25.568   2.253  51.277  1.00  0.00    -0.062 NA
BRANCH  20  22
HETATM   22  C14 UNL     1      26.932   1.116  52.959  1.00  0.00     0.011 A 
HETATM   23  C15 UNL     1      27.500  -0.140  52.966  1.00  0.00     0.017 A 
HETATM   24  C16 UNL     1      28.730  -0.368  53.558  1.00  0.00     0.020 A 
HETATM   25  C17 UNL     1      29.413   0.676  54.156  1.00  0.00     0.116 A 
HETATM   26  N4  UNL     1      28.863   1.911  54.155  1.00  0.00    -0.272 NA
HETATM   27  C18 UNL     1      27.658   2.112  53.570  1.00  0.00     0.130 A 
ENDBRANCH  20  22
ENDBRANCH   1  16
TORSDOF 5
ENDMDL
MODEL 6
REMARK VINA RESULT:      -7.6      5.531      8.726
REMARK  5 active torsions:
REMARK  status: ('A' for Active; 'I' for Inactive)
REMARK    1  A    between atoms: O1_2  and  C2_3 
REMARK    2  A    between atoms: C5_6  and  C6_7 
REMARK    3  A    between atoms: C9_12  and  N2_13 
REMARK    4  A    between atoms: N2_13  and  C10_14 
REMARK    5  A    between atoms: C13_18  and  C14_19 
ROOT
HETATM    1  N2  UNL     1      25.146   4.656  49.444  1.00  0.00    -0.186 N 
HETATM    2  H11 UNL     1      24.550   4.455  48.612  1.00  0.00     0.184 HD
ENDROOT
BRANCH   1   3
HETATM    3  C9  UNL     1      26.116   5.622  49.148  1.00  0.00     0.080 C 
HETATM    4  C2  UNL     1      25.640   7.011  49.319  1.00  0.00     0.095 C 
HETATM    5  C3  UNL     1      26.238   8.183  49.410  1.00  0.00     0.041 C 
HETATM    6  C4  UNL     1      27.615   8.639  49.386  1.00  0.00     0.035 C 
HETATM    7  C5  UNL     1      28.784   8.144  49.091  1.00  0.00     0.066 C 
HETATM    8  N1  UNL     1      29.136   6.828  48.641  1.00  0.00    -0.384 N 
HETATM    9  C7  UNL     1      28.656   5.523  48.333  1.00  0.00     0.149 C 
HETATM   10  H7  UNL     1      30.186   6.820  48.461  1.00  0.00     0.160 HD
HETATM   11  C8  UNL     1      27.313   5.179  48.758  1.00  0.00     0.025 C 
BRANCH   4  12
HETATM   12  O1  UNL     1      24.240   7.067  49.398  1.00  0.00    -0.354 OA
HETATM   13  C1  UNL     1      23.596   7.844  50.401  1.00  0.00     0.210 C 
ENDBRANCH   4  12
BRANCH   7  14
HETATM   14  C6  UNL     1      29.955   9.031  49.225  1.00  0.00     0.287 C 
HETATM   15  O2  UNL     1      31.106   8.603  49.505  1.00  0.00    -0.300 OA
ENDBRANCH   7  14
ENDBRANCH   1   3
BRANCH   1  16
HETATM   16  C10 UNL     1      24.954   4.009  50.673  1.00  0.00     0.727 A 
HETATM   17  N3  UNL     1      23.969   4.389  51.506  1.00  0.00    -0.075 NA
HETATM   18  C11 UNL     1      23.754   3.790  52.696  1.00  0.00     0.139 A 
HETATM   19  C12 UNL     1      24.617   2.756  53.005  1.00  0.00     0.053 A 
HETATM   20  C13 UNL     1      25.640   2.331  52.185  1.00  0.00     0.089 A 
HETATM   21  N5  UNL     1      25.772   2.996  51.014  1.00  0.00    -0.062 NA
BRANCH  20  22
HETATM   22  C14 UNL     1      26.538   1.238  52.531  1.00  0.00     0.011 A 
HETATM   23  C15 UNL     1      26.259  -0.102  52.363  1.00  0.00     0.017 A 
HETATM   24  C16 UNL     1      27.173  -1.076  52.721  1.00  0.00     0.020 A 
HETATM   25  C17 UNL     1      28.396  -0.712  53.258  1.00  0.00     0.116 A 
HETATM   26  N4  UNL     1      28.679   0.599  53.427  1.00  0.00    -0.272 NA
HETATM   27  C18 UNL     1      27.769   1.535  53.069  1.00  0.00     0.130 A 
ENDBRANCH  20  22
ENDBRANCH   1  16
TORSDOF 5
ENDMDL
MODEL 7
REMARK VINA RESULT:      -7.5      4.513      6.118
REMARK  5 active torsions:
REMARK  status: ('A' for Active; 'I' for Inactive)
REMARK    1  A    between atoms: O1_2  and  C2_3 
REMARK    2  A    between atoms: C5_6  and  C6_7 
REMARK    3  A    between atoms: C9_12  and  N2_13 
REMARK    4  A    between atoms: N2_13  and  C10_14 
REMARK    5  A    between atoms: C13_18  and  C14_19 
ROOT
HETATM    1  N2  UNL     1      23.562   4.155  52.015  1.00  0.00    -0.186 N 
HETATM    2  H11 UNL     1      23.674   4.668  52.917  1.00  0.00     0.184 HD
ENDROOT
BRANCH   1   3
HETATM    3  C9  UNL     1      23.229   2.813  52.236  1.00  0.00     0.080 C 
HETATM    4  C2  UNL     1      24.374   1.980  52.661  1.00  0.00     0.095 C 
HETATM    5  C3  UNL     1      24.489   0.786  53.210  1.00  0.00     0.041 C 
HETATM    6  C4  UNL     1      23.560  -0.240  53.644  1.00  0.00     0.035 C 
HETATM    7  C5  UNL     1      22.288  -0.498  53.515  1.00  0.00     0.066 C 
HETATM    8  N1  UNL     1      21.269   0.234  52.821  1.00  0.00    -0.384 N 
HETATM    9  C7  UNL     1      20.969   1.401  52.062  1.00  0.00     0.149 C 
HETATM   10  H7  UNL     1      20.362  -0.319  52.904  1.00  0.00     0.160 HD
HETATM   11  C8  UNL     1      21.956   2.465  52.041  1.00  0.00     0.025 C 
BRANCH   4  12
HETATM   12  O1  UNL     1      25.596   2.625  52.413  1.00  0.00    -0.354 OA
HETATM   13  C1  UNL     1      26.652   1.952  51.738  1.00  0.00     0.210 C 
ENDBRANCH   4  12
BRANCH   7  14
HETATM   14  C6  UNL     1      21.771  -1.717  54.165  1.00  0.00     0.287 C 
HETATM   15  O2  UNL     1      22.107  -2.065  55.327  1.00  0.00    -0.300 OA
ENDBRANCH   7  14
ENDBRANCH   1   3
BRANCH   1  16
HETATM   16  C10 UNL     1      23.738   4.782  50.773  1.00  0.00     0.727 A 
HETATM   17  N3  UNL     1      22.678   5.154  50.032  1.00  0.00    -0.075 NA
HETATM   18  C11 UNL     1      22.809   5.760  48.833  1.00  0.00     0.139 A 
HETATM   19  C12 UNL     1      24.108   5.975  48.414  1.00  0.00     0.053 A 
HETATM   20  C13 UNL     1      25.224   5.613  49.138  1.00  0.00     0.089 A 
HETATM   21  N5  UNL     1      24.986   5.012  50.327  1.00  0.00    -0.062 NA
BRANCH  20  22
HETATM   22  C14 UNL     1      26.585   5.850  48.677  1.00  0.00     0.011 A 
HETATM   23  C15 UNL     1      27.041   7.028  48.123  1.00  0.00     0.017 A 
HETATM   24  C16 UNL     1      28.354   7.165  47.711  1.00  0.00     0.020 A 
HETATM   25  C17 UNL     1      29.237   6.109  47.852  1.00  0.00     0.116 A 
HETATM   26  N4  UNL     1      28.799   4.951  48.393  1.00  0.00    -0.272 NA
HETATM   27  C18 UNL     1      27.510   4.838  48.790  1.00  0.00     0.130 A 
ENDBRANCH  20  22
ENDBRANCH   1  16
TORSDOF 5
ENDMDL
MODEL 8
REMARK VINA RESULT:      -7.5      3.089      5.624
REMARK  5 active torsions:
REMARK  status: ('A' for Active; 'I' for Inactive)
REMARK    1  A    between atoms: O1_2  and  C2_3 
REMARK    2  A    between atoms: C5_6  and  C6_7 
REMARK    3  A    between atoms: C9_12  and  N2_13 
REMARK    4  A    between atoms: N2_13  and  C10_14 
REMARK    5  A    between atoms: C13_18  and  C14_19 
ROOT
HETATM    1  N2  UNL     1      22.336   1.655  52.001  1.00  0.00    -0.186 N 
HETATM    2  H11 UNL     1      21.441   1.473  51.496  1.00  0.00     0.184 HD
ENDROOT
BRANCH   1   3
HETATM    3  C9  UNL     1      22.866   2.904  51.651  1.00  0.00     0.080 C 
HETATM    4  C2  UNL     1      22.914   3.140  50.194  1.00  0.00     0.095 C 
HETATM    5  C3  UNL     1      23.074   4.211  49.440  1.00  0.00     0.041 C 
HETATM    6  C4  UNL     1      23.273   5.626  49.694  1.00  0.00     0.035 C 
HETATM    7  C5  UNL     1      23.553   6.387  50.714  1.00  0.00     0.066 C 
HETATM    8  N1  UNL     1      23.784   6.035  52.086  1.00  0.00    -0.384 N 
HETATM    9  C7  UNL     1      23.820   4.976  53.038  1.00  0.00     0.149 C 
HETATM   10  H7  UNL     1      24.030   6.929  52.611  1.00  0.00     0.160 HD
HETATM   11  C8  UNL     1      23.249   3.700  52.651  1.00  0.00     0.025 C 
BRANCH   4  12
HETATM   12  O1  UNL     1      22.751   1.945  49.475  1.00  0.00    -0.354 OA
HETATM   13  C1  UNL     1      21.937   1.900  48.309  1.00  0.00     0.210 C 
ENDBRANCH   4  12
BRANCH   7  14
HETATM   14  C6  UNL     1      23.660   7.838  50.474  1.00  0.00     0.287 C 
HETATM   15  O2  UNL     1      22.793   8.488  49.833  1.00  0.00    -0.300 OA
ENDBRANCH   7  14
ENDBRANCH   1   3
BRANCH   1  16
HETATM   16  C10 UNL     1      22.887   0.731  52.899  1.00  0.00     0.727 A 
HETATM   17  N3  UNL     1      22.099  -0.004  53.705  1.00  0.00    -0.075 NA
HETATM   18  C11 UNL     1      22.594  -0.902  54.581  1.00  0.00     0.139 A 
HETATM   19  C12 UNL     1      23.970  -1.020  54.598  1.00  0.00     0.053 A 
HETATM   20  C13 UNL     1      24.819  -0.290  53.793  1.00  0.00     0.089 A 
HETATM   21  N5  UNL     1      24.224   0.584  52.948  1.00  0.00    -0.062 NA
BRANCH  20  22
HETATM   22  C14 UNL     1      26.268  -0.430  53.827  1.00  0.00     0.011 A 
HETATM   23  C15 UNL     1      27.012  -1.194  52.953  1.00  0.00     0.017 A 
HETATM   24  C16 UNL     1      28.389  -1.271  53.060  1.00  0.00     0.020 A 
HETATM   25  C17 UNL     1      29.045  -0.572  54.058  1.00  0.00     0.116 A 
HETATM   26  N4  UNL     1      28.324   0.180  54.920  1.00  0.00    -0.272 NA
HETATM   27  C18 UNL     1      26.977   0.240  54.797  1.00  0.00     0.130 A 
ENDBRANCH  20  22
ENDBRANCH   1  16
TORSDOF 5
ENDMDL
MODEL 9
REMARK VINA RESULT:      -7.4      5.721      7.416
REMARK  5 active torsions:
REMARK  status: ('A' for Active; 'I' for Inactive)
REMARK    1  A    between atoms: O1_2  and  C2_3 
REMARK    2  A    between atoms: C5_6  and  C6_7 
REMARK    3  A    between atoms: C9_12  and  N2_13 
REMARK    4  A    between atoms: N2_13  and  C10_14 
REMARK    5  A    between atoms: C13_18  and  C14_19 
ROOT
HETATM    1  N2  UNL     1      26.255   2.888  49.656  1.00  0.00    -0.186 N 
HETATM    2  H11 UNL     1      26.092   2.106  48.985  1.00  0.00     0.184 HD
ENDROOT
BRANCH   1   3
HETATM    3  C9  UNL     1      26.125   2.452  50.980  1.00  0.00     0.080 C 
HETATM    4  C2  UNL     1      24.761   2.000  51.324  1.00  0.00     0.095 C 
HETATM    5  C3  UNL     1      24.247   1.295  52.313  1.00  0.00     0.041 C 
HETATM    6  C4  UNL     1      24.778   0.650  53.499  1.00  0.00     0.035 C 
HETATM    7  C5  UNL     1      25.897   0.644  54.168  1.00  0.00     0.066 C 
HETATM    8  N1  UNL     1      27.117   1.357  53.921  1.00  0.00    -0.384 N 
HETATM    9  C7  UNL     1      27.801   2.251  53.049  1.00  0.00     0.149 C 
HETATM   10  H7  UNL     1      27.790   1.128  54.715  1.00  0.00     0.160 HD
HETATM   11  C8  UNL     1      27.218   2.499  51.743  1.00  0.00     0.025 C 
BRANCH   4  12
HETATM   12  O1  UNL     1      23.824   2.430  50.371  1.00  0.00    -0.354 OA
HETATM   13  C1  UNL     1      22.673   3.170  50.760  1.00  0.00     0.210 C 
ENDBRANCH   4  12
BRANCH   7  14
HETATM   14  C6  UNL     1      25.970  -0.210  55.367  1.00  0.00     0.287 C 
HETATM   15  O2  UNL     1      25.272  -1.249  55.508  1.00  0.00    -0.300 OA
ENDBRANCH   7  14
ENDBRANCH   1   3
BRANCH   1  16
HETATM   16  C10 UNL     1      26.561   4.187  49.226  1.00  0.00     0.727 A 
HETATM   17  N3  UNL     1      25.612   5.140  49.177  1.00  0.00    -0.075 NA
HETATM   18  C11 UNL     1      25.870   6.400  48.769  1.00  0.00     0.139 A 
HETATM   19  C12 UNL     1      27.178   6.651  48.404  1.00  0.00     0.053 A 
HETATM   20  C13 UNL     1      28.184   5.709  48.438  1.00  0.00     0.089 A 
HETATM   21  N5  UNL     1      27.824   4.476  48.862  1.00  0.00    -0.062 NA
BRANCH  20  22
HETATM   22  C14 UNL     1      29.559   5.996  48.049  1.00  0.00     0.011 A 
HETATM   23  C15 UNL     1      30.489   5.052  47.668  1.00  0.00     0.017 A 
HETATM   24  C16 UNL     1      31.776   5.415  47.314  1.00  0.00     0.020 A 
HETATM   25  C17 UNL     1      32.149   6.747  47.338  1.00  0.00     0.116 A 
HETATM   26  N4  UNL     1      31.244   7.680  47.711  1.00  0.00    -0.272 NA
HETATM   27  C18 UNL     1      29.990   7.302  48.053  1.00  0.00     0.130 A 
ENDBRANCH  20  22
ENDBRANCH   1  16
TORSDOF 5
ENDMDL
