MODEL 1
REMARK VINA RESULT:      -8.4      0.000      0.000
REMARK  3 active torsions:
REMARK  status: ('A' for Active; 'I' for Inactive)
REMARK    1  A    between atoms: O1_1  and  C1_2 
REMARK    2  A    between atoms: C6_9  and  N3_10 
REMARK    3  A    between atoms: N3_10  and  C7_11 
ROOT
HETATM    1  C1  UNL     1      22.527   0.615  52.840  1.00  0.00     0.178 C 
HETATM    2  C2  UNL     1      23.509   1.525  52.657  1.00  0.00     0.081 C 
HETATM    3  C3  UNL     1      24.063   2.200  51.482  1.00  0.00     0.043 A 
HETATM    4  C4  UNL     1      23.536   2.475  50.218  1.00  0.00     0.072 A 
HETATM    5  N1  UNL     1      24.260   3.120  49.313  1.00  0.00    -0.241 NA
HETATM    6  C5  UNL     1      25.525   3.511  49.629  1.00  0.00     0.236 A 
HETATM    7  N2  UNL     1      26.109   3.287  50.815  1.00  0.00    -0.224 NA
HETATM    8  C6  UNL     1      25.376   2.636  51.726  1.00  0.00     0.142 A 
HETATM    9  C13 UNL     1      22.261   1.868  50.376  1.00  0.00     0.028 C 
HETATM   10  C14 UNL     1      21.119   2.005  50.979  1.00  0.00    -0.022 C 
HETATM   11  C15 UNL     1      20.049   0.945  50.757  1.00  0.00     0.054 C 
HETATM   12  C16 UNL     1      20.176   0.210  52.139  1.00  0.00     0.181 C 
HETATM   13  O2  UNL     1      21.568  -0.139  52.135  1.00  0.00    -0.330 OA
ENDROOT
BRANCH   8  14
HETATM   14  N3  UNL     1      26.055   2.434  52.977  1.00  0.00    -0.340 N 
HETATM   15  H4  UNL     1      25.740   3.039  53.764  1.00  0.00     0.167 HD
BRANCH  14  16
HETATM   16  C7  UNL     1      27.091   1.485  53.168  1.00  0.00     0.035 A 
HETATM   17  C8  UNL     1      28.334   1.814  53.654  1.00  0.00     0.032 A 
HETATM   18  C9  UNL     1      29.351   0.876  53.849  1.00  0.00     0.046 A 
HETATM   19  C10 UNL     1      29.112  -0.459  53.543  1.00  0.00     0.138 A 
HETATM   20  F1  UNL     1      30.068  -1.382  53.717  1.00  0.00    -0.204 F 
HETATM   21  C11 UNL     1      27.853  -0.798  53.050  1.00  0.00     0.074 A 
HETATM   22 CL1  UNL     1      27.473  -2.477  52.630  1.00  0.00    -0.081 Cl
HETATM   23  C12 UNL     1      26.839   0.149  52.857  1.00  0.00     0.056 A 
ENDBRANCH  14  16
ENDBRANCH   8  14
BRANCH   1  24
HETATM   24  O1  UNL     1      22.147   0.088  54.058  1.00  0.00    -0.341 OA
HETATM   25  H1  UNL     1      22.579   0.521  54.889  1.00  0.00     0.220 HD
ENDBRANCH   1  24
TORSDOF 3
ENDMDL
MODEL 2
REMARK VINA RESULT:      -8.3      4.432      6.949
REMARK  3 active torsions:
REMARK  status: ('A' for Active; 'I' for Inactive)
REMARK    1  A    between atoms: O1_1  and  C1_2 
REMARK    2  A    between atoms: C6_9  and  N3_10 
REMARK    3  A    between atoms: N3_10  and  C7_11 
ROOT
HETATM    1  C1  UNL     1      27.959   2.087  53.045  1.00  0.00     0.178 C 
HETATM    2  C2  UNL     1      26.643   2.292  53.268  1.00  0.00     0.081 C 
HETATM    3  C3  UNL     1      25.461   1.428  53.245  1.00  0.00     0.043 A 
HETATM    4  C4  UNL     1      25.300   0.048  53.398  1.00  0.00     0.072 A 
HETATM    5  N1  UNL     1      24.094  -0.499  53.338  1.00  0.00    -0.241 NA
HETATM    6  C5  UNL     1      23.012   0.298  53.122  1.00  0.00     0.236 A 
HETATM    7  N2  UNL     1      23.075   1.629  52.963  1.00  0.00    -0.224 NA
HETATM    8  C6  UNL     1      24.294   2.178  53.024  1.00  0.00     0.142 A 
HETATM    9  C13 UNL     1      26.665  -0.313  53.564  1.00  0.00     0.028 C 
HETATM   10  C14 UNL     1      27.657  -0.248  54.400  1.00  0.00    -0.022 C 
HETATM   11  C15 UNL     1      28.992  -0.851  53.989  1.00  0.00     0.054 C 
HETATM   12  C16 UNL     1      29.755   0.488  53.682  1.00  0.00     0.181 C 
HETATM   13  O2  UNL     1      28.884   1.080  52.706  1.00  0.00    -0.330 OA
ENDROOT
BRANCH   8  14
HETATM   14  N3  UNL     1      24.295   3.605  52.853  1.00  0.00    -0.340 N 
HETATM   15  H4  UNL     1      24.393   4.164  53.726  1.00  0.00     0.167 HD
BRANCH  14  16
HETATM   16  C7  UNL     1      24.171   4.249  51.596  1.00  0.00     0.035 A 
HETATM   17  C8  UNL     1      24.566   3.674  50.412  1.00  0.00     0.032 A 
HETATM   18  C9  UNL     1      24.436   4.308  49.174  1.00  0.00     0.046 A 
HETATM   19  C10 UNL     1      23.882   5.582  49.116  1.00  0.00     0.138 A 
HETATM   20  F1  UNL     1      23.746   6.217  47.944  1.00  0.00    -0.204 F 
HETATM   21  C11 UNL     1      23.480   6.170  50.315  1.00  0.00     0.074 A 
HETATM   22 CL1  UNL     1      22.770   7.794  50.326  1.00  0.00    -0.081 Cl
HETATM   23  C12 UNL     1      23.614   5.527  51.553  1.00  0.00     0.056 A 
ENDBRANCH  14  16
ENDBRANCH   8  14
BRANCH   1  24
HETATM   24  O1  UNL     1      28.940   3.058  53.117  1.00  0.00    -0.341 OA
HETATM   25  H1  UNL     1      28.919   3.654  53.958  1.00  0.00     0.220 HD
ENDBRANCH   1  24
TORSDOF 3
ENDMDL
MODEL 3
REMARK VINA RESULT:      -8.3      1.825      2.518
REMARK  3 active torsions:
REMARK  status: ('A' for Active; 'I' for Inactive)
REMARK    1  A    between atoms: O1_1  and  C1_2 
REMARK    2  A    between atoms: C6_9  and  N3_10 
REMARK    3  A    between atoms: N3_10  and  C7_11 
ROOT
HETATM    1  C1  UNL     1      20.964  -0.669  53.765  1.00  0.00     0.178 C 
HETATM    2  C2  UNL     1      21.854   0.284  53.414  1.00  0.00     0.081 C 
HETATM    3  C3  UNL     1      22.193   0.943  52.150  1.00  0.00     0.043 A 
HETATM    4  C4  UNL     1      21.475   1.140  50.968  1.00  0.00     0.072 A 
HETATM    5  N1  UNL     1      22.022   1.787  49.949  1.00  0.00    -0.241 NA
HETATM    6  C5  UNL     1      23.294   2.257  50.065  1.00  0.00     0.236 A 
HETATM    7  N2  UNL     1      24.055   2.111  51.160  1.00  0.00    -0.224 NA
HETATM    8  C6  UNL     1      23.500   1.457  52.187  1.00  0.00     0.142 A 
HETATM    9  C13 UNL     1      20.273   0.472  51.329  1.00  0.00     0.028 C 
HETATM   10  C14 UNL     1      19.224   0.571  52.087  1.00  0.00    -0.022 C 
HETATM   11  C15 UNL     1      18.197  -0.552  52.055  1.00  0.00     0.054 C 
HETATM   12  C16 UNL     1      18.564  -1.226  53.426  1.00  0.00     0.181 C 
HETATM   13  O2  UNL     1      19.959  -1.500  53.231  1.00  0.00    -0.330 OA
ENDROOT
BRANCH   8  14
HETATM   14  N3  UNL     1      24.362   1.340  53.332  1.00  0.00    -0.340 N 
HETATM   15  H4  UNL     1      23.997   1.754  54.215  1.00  0.00     0.167 HD
BRANCH  14  16
HETATM   16  C7  UNL     1      25.633   0.712  53.302  1.00  0.00     0.035 A 
HETATM   17  C8  UNL     1      25.832  -0.564  52.832  1.00  0.00     0.032 A 
HETATM   18  C9  UNL     1      27.086  -1.178  52.797  1.00  0.00     0.046 A 
HETATM   19  C10 UNL     1      28.198  -0.480  53.254  1.00  0.00     0.138 A 
HETATM   20  F1  UNL     1      29.415  -1.042  53.235  1.00  0.00    -0.204 F 
HETATM   21  C11 UNL     1      28.001   0.815  53.731  1.00  0.00     0.074 A 
HETATM   22 CL1  UNL     1      29.367   1.768  54.337  1.00  0.00    -0.081 Cl
HETATM   23  C12 UNL     1      26.740   1.424  53.764  1.00  0.00     0.056 A 
ENDBRANCH  14  16
ENDBRANCH   8  14
BRANCH   1  24
HETATM   24  O1  UNL     1      20.794  -1.168  55.041  1.00  0.00    -0.341 OA
HETATM   25  H1  UNL     1      21.584  -1.024  55.688  1.00  0.00     0.220 HD
ENDBRANCH   1  24
TORSDOF 3
ENDMDL
MODEL 4
REMARK VINA RESULT:      -8.3      4.037      6.872
REMARK  3 active torsions:
REMARK  status: ('A' for Active; 'I' for Inactive)
REMARK    1  A    between atoms: O1_1  and  C1_2 
REMARK    2  A    between atoms: C6_9  and  N3_10 
REMARK    3  A    between atoms: N3_10  and  C7_11 
ROOT
HETATM    1  C1  UNL     1      26.841  -1.750  52.638  1.00  0.00     0.178 C 
HETATM    2  C2  UNL     1      26.030  -0.706  52.362  1.00  0.00     0.081 C 
HETATM    3  C3  UNL     1      25.841   0.620  52.956  1.00  0.00     0.043 A 
HETATM    4  C4  UNL     1      26.677   1.437  53.721  1.00  0.00     0.072 A 
HETATM    5  N1  UNL     1      26.258   2.622  54.141  1.00  0.00    -0.241 NA
HETATM    6  C5  UNL     1      25.001   3.035  53.821  1.00  0.00     0.236 A 
HETATM    7  N2  UNL     1      24.134   2.316  53.093  1.00  0.00    -0.224 NA
HETATM    8  C6  UNL     1      24.560   1.120  52.670  1.00  0.00     0.142 A 
HETATM    9  C13 UNL     1      27.809   0.580  53.796  1.00  0.00     0.028 C 
HETATM   10  C14 UNL     1      28.785   0.093  53.092  1.00  0.00    -0.022 C 
HETATM   11  C15 UNL     1      29.761  -0.860  53.765  1.00  0.00     0.054 C 
HETATM   12  C16 UNL     1      29.237  -2.198  53.131  1.00  0.00     0.181 C 
HETATM   13  O2  UNL     1      27.857  -2.163  53.523  1.00  0.00    -0.330 OA
ENDROOT
BRANCH   8  14
HETATM   14  N3  UNL     1      23.588   0.402  51.891  1.00  0.00    -0.340 N 
HETATM   15  H4  UNL     1      23.889   0.133  50.931  1.00  0.00     0.167 HD
BRANCH  14  16
HETATM   16  C7  UNL     1      22.294   0.064  52.361  1.00  0.00     0.035 A 
HETATM   17  C8  UNL     1      22.064  -0.523  53.582  1.00  0.00     0.032 A 
HETATM   18  C9  UNL     1      20.787  -0.848  54.045  1.00  0.00     0.046 A 
HETATM   19  C10 UNL     1      19.683  -0.572  53.247  1.00  0.00     0.138 A 
HETATM   20  F1  UNL     1      18.445  -0.874  53.662  1.00  0.00    -0.204 F 
HETATM   21  C11 UNL     1      19.910   0.023  52.007  1.00  0.00     0.074 A 
HETATM   22 CL1  UNL     1      18.556   0.402  50.928  1.00  0.00    -0.081 Cl
HETATM   23  C12 UNL     1      21.195   0.346  51.549  1.00  0.00     0.056 A 
ENDBRANCH  14  16
ENDBRANCH   8  14
BRANCH   1  24
HETATM   24  O1  UNL     1      26.867  -2.943  51.943  1.00  0.00    -0.341 OA
HETATM   25  H1  UNL     1      27.064  -3.785  52.505  1.00  0.00     0.220 HD
ENDBRANCH   1  24
TORSDOF 3
ENDMDL
MODEL 5
REMARK VINA RESULT:      -8.2      4.157      6.899
REMARK  3 active torsions:
REMARK  status: ('A' for Active; 'I' for Inactive)
REMARK    1  A    between atoms: O1_1  and  C1_2 
REMARK    2  A    between atoms: C6_9  and  N3_10 
REMARK    3  A    between atoms: N3_10  and  C7_11 
ROOT
HETATM    1  C1  UNL     1      26.824   1.870  52.519  1.00  0.00     0.178 C 
HETATM    2  C2  UNL     1      25.501   1.946  52.778  1.00  0.00     0.081 C 
HETATM    3  C3  UNL     1      24.497   0.982  53.235  1.00  0.00     0.043 A 
HETATM    4  C4  UNL     1      24.597  -0.213  53.953  1.00  0.00     0.072 A 
HETATM    5  N1  UNL     1      23.510  -0.912  54.249  1.00  0.00    -0.241 NA
HETATM    6  C5  UNL     1      22.294  -0.455  53.843  1.00  0.00     0.236 A 
HETATM    7  N2  UNL     1      22.107   0.678  53.150  1.00  0.00    -0.224 NA
HETATM    8  C6  UNL     1      23.206   1.382  52.853  1.00  0.00     0.142 A 
HETATM    9  C13 UNL     1      26.009  -0.258  54.106  1.00  0.00     0.028 C 
HETATM   10  C14 UNL     1      26.999   0.303  54.731  1.00  0.00    -0.022 C 
HETATM   11  C15 UNL     1      28.409  -0.204  54.462  1.00  0.00     0.054 C 
HETATM   12  C16 UNL     1      28.902   0.981  53.557  1.00  0.00     0.181 C 
HETATM   13  O2  UNL     1      27.906   0.967  52.524  1.00  0.00    -0.330 OA
ENDROOT
BRANCH   8  14
HETATM   14  N3  UNL     1      22.939   2.587  52.116  1.00  0.00    -0.340 N 
HETATM   15  H4  UNL     1      22.894   3.460  52.681  1.00  0.00     0.167 HD
BRANCH  14  16
HETATM   16  C7  UNL     1      22.743   2.627  50.712  1.00  0.00     0.035 A 
HETATM   17  C8  UNL     1      22.265   1.561  49.987  1.00  0.00     0.032 A 
HETATM   18  C9  UNL     1      22.066   1.606  48.605  1.00  0.00     0.046 A 
HETATM   19  C10 UNL     1      22.359   2.775  47.913  1.00  0.00     0.138 A 
HETATM   20  F1  UNL     1      22.181   2.849  46.587  1.00  0.00    -0.204 F 
HETATM   21  C11 UNL     1      22.844   3.858  48.644  1.00  0.00     0.074 A 
HETATM   22 CL1  UNL     1      23.247   5.383  47.834  1.00  0.00    -0.081 Cl
HETATM   23  C12 UNL     1      23.041   3.806  50.030  1.00  0.00     0.056 A 
ENDBRANCH  14  16
ENDBRANCH   8  14
BRANCH   1  24
HETATM   24  O1  UNL     1      27.612   2.918  52.085  1.00  0.00    -0.341 OA
HETATM   25  H1  UNL     1      28.476   3.084  52.624  1.00  0.00     0.220 HD
ENDBRANCH   1  24
TORSDOF 3
ENDMDL
MODEL 6
REMARK VINA RESULT:      -8.1      3.677      5.493
REMARK  3 active torsions:
REMARK  status: ('A' for Active; 'I' for Inactive)
REMARK    1  A    between atoms: O1_1  and  C1_2 
REMARK    2  A    between atoms: C6_9  and  N3_10 
REMARK    3  A    between atoms: N3_10  and  C7_11 
ROOT
HETATM    1  C1  UNL     1      22.976   1.260  51.570  1.00  0.00     0.178 C 
HETATM    2  C2  UNL     1      24.292   1.439  51.325  1.00  0.00     0.081 C 
HETATM    3  C3  UNL     1      25.472   1.600  52.178  1.00  0.00     0.043 A 
HETATM    4  C4  UNL     1      25.740   1.222  53.496  1.00  0.00     0.072 A 
HETATM    5  N1  UNL     1      26.916   1.489  54.046  1.00  0.00    -0.241 NA
HETATM    6  C5  UNL     1      27.862   2.138  53.313  1.00  0.00     0.236 A 
HETATM    7  N2  UNL     1      27.689   2.537  52.045  1.00  0.00    -0.224 NA
HETATM    8  C6  UNL     1      26.501   2.267  51.492  1.00  0.00     0.142 A 
HETATM    9  C13 UNL     1      24.486   0.632  53.813  1.00  0.00     0.028 C 
HETATM   10  C14 UNL     1      23.742  -0.405  53.575  1.00  0.00    -0.022 C 
HETATM   11  C15 UNL     1      22.380  -0.491  54.247  1.00  0.00     0.054 C 
HETATM   12  C16 UNL     1      21.494  -0.135  52.999  1.00  0.00     0.181 C 
HETATM   13  O2  UNL     1      22.050   1.134  52.624  1.00  0.00    -0.330 OA
ENDROOT
BRANCH   8  14
HETATM   14  N3  UNL     1      26.380   2.714  50.131  1.00  0.00    -0.340 N 
HETATM   15  H4  UNL     1      26.260   1.964  49.419  1.00  0.00     0.167 HD
BRANCH  14  16
HETATM   16  C7  UNL     1      26.419   4.076  49.741  1.00  0.00     0.035 A 
HETATM   17  C8  UNL     1      27.351   4.585  48.868  1.00  0.00     0.032 A 
HETATM   18  C9  UNL     1      27.382   5.926  48.480  1.00  0.00     0.046 A 
HETATM   19  C10 UNL     1      26.433   6.805  48.991  1.00  0.00     0.138 A 
HETATM   20  F1  UNL     1      26.438   8.098  48.639  1.00  0.00    -0.204 F 
HETATM   21  C11 UNL     1      25.486   6.294  49.877  1.00  0.00     0.074 A 
HETATM   22 CL1  UNL     1      24.247   7.350  50.577  1.00  0.00    -0.081 Cl
HETATM   23  C12 UNL     1      25.461   4.947  50.262  1.00  0.00     0.056 A 
ENDBRANCH  14  16
ENDBRANCH   8  14
BRANCH   1  24
HETATM   24  O1  UNL     1      21.998   1.127  50.604  1.00  0.00    -0.341 OA
HETATM   25  H1  UNL     1      22.034   0.260  50.045  1.00  0.00     0.220 HD
ENDBRANCH   1  24
TORSDOF 3
ENDMDL
MODEL 7
REMARK VINA RESULT:      -8.1      2.550      3.936
REMARK  3 active torsions:
REMARK  status: ('A' for Active; 'I' for Inactive)
REMARK    1  A    between atoms: O1_1  and  C1_2 
REMARK    2  A    between atoms: C6_9  and  N3_10 
REMARK    3  A    between atoms: N3_10  and  C7_11 
ROOT
HETATM    1  C1  UNL     1      20.987   1.605  51.486  1.00  0.00     0.178 C 
HETATM    2  C2  UNL     1      21.989   0.853  51.993  1.00  0.00     0.081 C 
HETATM    3  C3  UNL     1      22.115  -0.016  53.164  1.00  0.00     0.043 A 
HETATM    4  C4  UNL     1      21.173  -0.707  53.930  1.00  0.00     0.072 A 
HETATM    5  N1  UNL     1      21.556  -1.446  54.962  1.00  0.00    -0.241 NA
HETATM    6  C5  UNL     1      22.880  -1.523  55.270  1.00  0.00     0.236 A 
HETATM    7  N2  UNL     1      23.850  -0.893  54.591  1.00  0.00    -0.224 NA
HETATM    8  C6  UNL     1      23.460  -0.148  53.550  1.00  0.00     0.142 A 
HETATM    9  C13 UNL     1      19.995  -0.297  53.249  1.00  0.00     0.028 C 
HETATM   10  C14 UNL     1      19.336  -0.450  52.141  1.00  0.00    -0.022 C 
HETATM   11  C15 UNL     1      18.035   0.319  51.957  1.00  0.00     0.054 C 
HETATM   12  C16 UNL     1      18.564   1.413  50.961  1.00  0.00     0.181 C 
HETATM   13  O2  UNL     1      19.647   1.971  51.720  1.00  0.00    -0.330 OA
ENDROOT
BRANCH   8  14
HETATM   14  N3  UNL     1      24.544   0.495  52.860  1.00  0.00    -0.340 N 
HETATM   15  H4  UNL     1      24.273   1.247  52.193  1.00  0.00     0.167 HD
BRANCH  14  16
HETATM   16  C7  UNL     1      25.909   0.156  53.045  1.00  0.00     0.035 A 
HETATM   17  C8  UNL     1      26.418  -1.093  52.784  1.00  0.00     0.032 A 
HETATM   18  C9  UNL     1      27.764  -1.422  52.960  1.00  0.00     0.046 A 
HETATM   19  C10 UNL     1      28.647  -0.452  53.421  1.00  0.00     0.138 A 
HETATM   20  F1  UNL     1      29.944  -0.736  53.603  1.00  0.00    -0.204 F 
HETATM   21  C11 UNL     1      28.135   0.817  53.688  1.00  0.00     0.074 A 
HETATM   22 CL1  UNL     1      29.194   2.108  54.284  1.00  0.00    -0.081 Cl
HETATM   23  C12 UNL     1      26.783   1.140  53.508  1.00  0.00     0.056 A 
ENDBRANCH  14  16
ENDBRANCH   8  14
BRANCH   1  24
HETATM   24  O1  UNL     1      21.070   2.373  50.341  1.00  0.00    -0.341 OA
HETATM   25  H1  UNL     1      21.877   2.181  49.729  1.00  0.00     0.220 HD
ENDBRANCH   1  24
TORSDOF 3
ENDMDL
MODEL 8
REMARK VINA RESULT:      -7.8      3.697      5.436
REMARK  3 active torsions:
REMARK  status: ('A' for Active; 'I' for Inactive)
REMARK    1  A    between atoms: O1_1  and  C1_2 
REMARK    2  A    between atoms: C6_9  and  N3_10 
REMARK    3  A    between atoms: N3_10  and  C7_11 
ROOT
HETATM    1  C1  UNL     1      21.581   1.232  52.429  1.00  0.00     0.178 C 
HETATM    2  C2  UNL     1      22.762   1.387  51.792  1.00  0.00     0.081 C 
HETATM    3  C3  UNL     1      24.159   1.173  52.176  1.00  0.00     0.043 A 
HETATM    4  C4  UNL     1      24.756   0.361  53.144  1.00  0.00     0.072 A 
HETATM    5  N1  UNL     1      26.074   0.346  53.290  1.00  0.00    -0.241 NA
HETATM    6  C5  UNL     1      26.841   1.133  52.485  1.00  0.00     0.236 A 
HETATM    7  N2  UNL     1      26.352   1.941  51.533  1.00  0.00    -0.224 NA
HETATM    8  C6  UNL     1      25.022   1.954  51.389  1.00  0.00     0.142 A 
HETATM    9  C13 UNL     1      23.581  -0.209  53.705  1.00  0.00     0.028 C 
HETATM   10  C14 UNL     1      22.625  -1.053  53.462  1.00  0.00    -0.022 C 
HETATM   11  C15 UNL     1      21.553  -1.260  54.522  1.00  0.00     0.054 C 
HETATM   12  C16 UNL     1      20.398  -0.449  53.830  1.00  0.00     0.181 C 
HETATM   13  O2  UNL     1      21.028   0.830  53.661  1.00  0.00    -0.330 OA
ENDROOT
BRANCH   8  14
HETATM   14  N3  UNL     1      24.561   2.833  50.349  1.00  0.00    -0.340 N 
HETATM   15  H4  UNL     1      24.061   2.375  49.559  1.00  0.00     0.167 HD
BRANCH  14  16
HETATM   16  C7  UNL     1      24.756   4.238  50.360  1.00  0.00     0.035 A 
HETATM   17  C8  UNL     1      24.055   5.090  51.179  1.00  0.00     0.032 A 
HETATM   18  C9  UNL     1      24.254   6.472  51.193  1.00  0.00     0.046 A 
HETATM   19  C10 UNL     1      25.203   7.032  50.344  1.00  0.00     0.138 A 
HETATM   20  F1  UNL     1      25.416   8.355  50.332  1.00  0.00    -0.204 F 
HETATM   21  C11 UNL     1      25.916   6.171  49.510  1.00  0.00     0.074 A 
HETATM   22 CL1  UNL     1      27.138   6.807  48.395  1.00  0.00    -0.081 Cl
HETATM   23  C12 UNL     1      25.710   4.785  49.502  1.00  0.00     0.056 A 
ENDBRANCH  14  16
ENDBRANCH   8  14
BRANCH   1  24
HETATM   24  O1  UNL     1      20.341   1.496  51.880  1.00  0.00    -0.341 OA
HETATM   25  H1  UNL     1      19.549   1.496  52.541  1.00  0.00     0.220 HD
ENDBRANCH   1  24
TORSDOF 3
ENDMDL
MODEL 9
REMARK VINA RESULT:      -7.7      4.603      7.613
REMARK  3 active torsions:
REMARK  status: ('A' for Active; 'I' for Inactive)
REMARK    1  A    between atoms: O1_1  and  C1_2 
REMARK    2  A    between atoms: C6_9  and  N3_10 
REMARK    3  A    between atoms: N3_10  and  C7_11 
ROOT
HETATM    1  C1  UNL     1      26.210   0.791  52.230  1.00  0.00     0.178 C 
HETATM    2  C2  UNL     1      24.891   0.763  52.518  1.00  0.00     0.081 C 
HETATM    3  C3  UNL     1      24.069  -0.017  53.446  1.00  0.00     0.043 A 
HETATM    4  C4  UNL     1      24.371  -0.692  54.632  1.00  0.00     0.072 A 
HETATM    5  N1  UNL     1      23.422  -1.333  55.300  1.00  0.00    -0.241 NA
HETATM    6  C5  UNL     1      22.149  -1.330  54.817  1.00  0.00     0.236 A 
HETATM    7  N2  UNL     1      21.773  -0.711  53.689  1.00  0.00    -0.224 NA
HETATM    8  C6  UNL     1      22.733  -0.064  53.016  1.00  0.00     0.142 A 
HETATM    9  C13 UNL     1      25.766  -0.427  54.685  1.00  0.00     0.028 C 
HETATM   10  C14 UNL     1      26.631   0.517  54.900  1.00  0.00    -0.022 C 
HETATM   11  C15 UNL     1      28.112   0.181  54.799  1.00  0.00     0.054 C 
HETATM   12  C16 UNL     1      28.398   0.857  53.410  1.00  0.00     0.181 C 
HETATM   13  O2  UNL     1      27.436   0.190  52.580  1.00  0.00    -0.330 OA
ENDROOT
BRANCH   8  14
HETATM   14  N3  UNL     1      22.265   0.584  51.821  1.00  0.00    -0.340 N 
HETATM   15  H4  UNL     1      22.939   0.606  51.027  1.00  0.00     0.167 HD
BRANCH  14  16
HETATM   16  C7  UNL     1      20.980   1.168  51.691  1.00  0.00     0.035 A 
HETATM   17  C8  UNL     1      20.684   2.441  52.115  1.00  0.00     0.032 A 
HETATM   18  C9  UNL     1      19.418   3.017  51.978  1.00  0.00     0.046 A 
HETATM   19  C10 UNL     1      18.396   2.282  51.387  1.00  0.00     0.138 A 
HETATM   20  F1  UNL     1      17.171   2.805  51.244  1.00  0.00    -0.204 F 
HETATM   21  C11 UNL     1      18.692   0.989  50.956  1.00  0.00     0.074 A 
HETATM   22 CL1  UNL     1      17.443  -0.014  50.199  1.00  0.00    -0.081 Cl
HETATM   23  C12 UNL     1      19.964   0.419  51.097  1.00  0.00     0.056 A 
ENDBRANCH  14  16
ENDBRANCH   8  14
BRANCH   1  24
HETATM   24  O1  UNL     1      26.804   1.620  51.298  1.00  0.00    -0.341 OA
HETATM   25  H1  UNL     1      27.828   1.530  51.206  1.00  0.00     0.220 HD
ENDBRANCH   1  24
TORSDOF 3
ENDMDL
