MODEL 1
REMARK VINA RESULT:      -8.1      0.000      0.000
REMARK  9 active torsions:
REMARK  status: ('A' for Active; 'I' for Inactive)
REMARK    1  A    between atoms: C2_2  and  C3_3 
REMARK    2  A    between atoms: C3_3  and  C4_4 
REMARK    3  A    between atoms: C4_4  and  C5_5 
REMARK    4  A    between atoms: C5_5  and  C6_6 
REMARK    5  A    between atoms: C5_5  and  N1_8 
REMARK    6  A    between atoms: N1_8  and  C7_9 
REMARK    7  A    between atoms: C11_13  and  N2_14 
REMARK    8  A    between atoms: N2_14  and  C12_15 
REMARK    9  A    between atoms: C15_19  and  C16_20 
ROOT
HETATM    1  C7  UNL     1      27.592   2.193  52.685  1.00  0.00     0.030 A 
HETATM    2  C8  UNL     1      28.690   2.353  53.494  1.00  0.00     0.029 A 
HETATM    3  C9  UNL     1      29.082   1.437  54.458  1.00  0.00     0.004 A 
HETATM    4  C10 UNL     1      28.331   0.282  54.631  1.00  0.00     0.030 A 
HETATM    5  C11 UNL     1      27.233   0.111  53.828  1.00  0.00     0.051 A 
HETATM    6  C21 UNL     1      26.868   1.042  52.877  1.00  0.00     0.059 A 
ENDROOT
BRANCH   5   7
HETATM    7  N2  UNL     1      26.438  -1.046  53.965  1.00  0.00    -0.188 N 
HETATM    8  H16 UNL     1      26.823  -2.011  53.872  1.00  0.00     0.184 HD
BRANCH   7   9
HETATM    9  C12 UNL     1      25.042  -1.001  54.239  1.00  0.00     0.727 A 
HETATM   10  N3  UNL     1      24.563  -1.435  55.430  1.00  0.00    -0.075 NA
HETATM   11  C13 UNL     1      23.230  -1.398  55.706  1.00  0.00     0.139 A 
HETATM   12  C14 UNL     1      22.427  -0.898  54.703  1.00  0.00     0.053 A 
HETATM   13  C15 UNL     1      22.877  -0.447  53.480  1.00  0.00     0.089 A 
HETATM   14  N5  UNL     1      24.206  -0.527  53.310  1.00  0.00    -0.062 NA
BRANCH  13  15
HETATM   15  C16 UNL     1      21.984   0.074  52.449  1.00  0.00     0.011 A 
HETATM   16  C17 UNL     1      20.628  -0.122  52.408  1.00  0.00     0.017 A 
HETATM   17  C18 UNL     1      19.866   0.412  51.390  1.00  0.00     0.020 A 
HETATM   18  C19 UNL     1      20.513   1.151  50.415  1.00  0.00     0.116 A 
HETATM   19  N4  UNL     1      21.845   1.367  50.420  1.00  0.00    -0.272 NA
HETATM   20  C20 UNL     1      22.549   0.824  51.437  1.00  0.00     0.130 A 
ENDBRANCH  13  15
ENDBRANCH   7   9
ENDBRANCH   5   7
BRANCH   1  21
HETATM   21  N1  UNL     1      27.190   3.126  51.699  1.00  0.00    -0.379 N 
HETATM   22  H12 UNL     1      27.687   4.012  51.585  1.00  0.00     0.160 HD
BRANCH  21  23
HETATM   23  C5  UNL     1      26.056   2.862  50.812  1.00  0.00     0.143 C 
BRANCH  23  24
HETATM   24  C4  UNL     1      26.399   3.162  49.389  1.00  0.00     0.032 C 
BRANCH  24  25
HETATM   25  C3  UNL     1      26.587   4.635  49.211  1.00  0.00     0.002 C 
BRANCH  25  26
HETATM   26  C2  UNL     1      27.894   5.004  48.566  1.00  0.00    -0.004 C 
HETATM   27  C1  UNL     1      27.917   6.482  48.173  1.00  0.00     0.005 C 
ENDBRANCH  25  26
ENDBRANCH  24  25
ENDBRANCH  23  24
BRANCH  23  28
HETATM   28  C6  UNL     1      24.897   3.714  51.235  1.00  0.00     0.256 C 
HETATM   29  O1  UNL     1      23.934   3.989  51.903  1.00  0.00    -0.305 OA
ENDBRANCH  23  28
ENDBRANCH  21  23
ENDBRANCH   1  21
TORSDOF 9
ENDMDL
MODEL 2
REMARK VINA RESULT:      -7.9      2.024      6.360
REMARK  9 active torsions:
REMARK  status: ('A' for Active; 'I' for Inactive)
REMARK    1  A    between atoms: C2_2  and  C3_3 
REMARK    2  A    between atoms: C3_3  and  C4_4 
REMARK    3  A    between atoms: C4_4  and  C5_5 
REMARK    4  A    between atoms: C5_5  and  C6_6 
REMARK    5  A    between atoms: C5_5  and  N1_8 
REMARK    6  A    between atoms: N1_8  and  C7_9 
REMARK    7  A    between atoms: C11_13  and  N2_14 
REMARK    8  A    between atoms: N2_14  and  C12_15 
REMARK    9  A    between atoms: C15_19  and  C16_20 
ROOT
HETATM    1  C7  UNL     1      23.591  -0.388  53.827  1.00  0.00     0.030 A 
HETATM    2  C8  UNL     1      22.745  -1.124  54.622  1.00  0.00     0.029 A 
HETATM    3  C9  UNL     1      21.364  -1.000  54.608  1.00  0.00     0.004 A 
HETATM    4  C10 UNL     1      20.782  -0.081  53.744  1.00  0.00     0.030 A 
HETATM    5  C11 UNL     1      21.616   0.659  52.946  1.00  0.00     0.051 A 
HETATM    6  C21 UNL     1      22.987   0.512  52.983  1.00  0.00     0.059 A 
ENDROOT
BRANCH   5   7
HETATM    7  N2  UNL     1      21.072   1.604  52.052  1.00  0.00    -0.188 N 
HETATM    8  H16 UNL     1      20.248   2.198  52.288  1.00  0.00     0.184 HD
BRANCH   7   9
HETATM    9  C12 UNL     1      21.598   1.831  50.748  1.00  0.00     0.727 A 
HETATM   10  N3  UNL     1      21.029   1.242  49.668  1.00  0.00    -0.075 NA
HETATM   11  C13 UNL     1      21.520   1.450  48.416  1.00  0.00     0.139 A 
HETATM   12  C14 UNL     1      22.615   2.284  48.336  1.00  0.00     0.053 A 
HETATM   13  C15 UNL     1      23.222   2.900  49.410  1.00  0.00     0.089 A 
HETATM   14  N5  UNL     1      22.659   2.629  50.599  1.00  0.00    -0.062 NA
BRANCH  13  15
HETATM   15  C16 UNL     1      24.381   3.775  49.272  1.00  0.00     0.011 A 
HETATM   16  C17 UNL     1      25.684   3.392  49.456  1.00  0.00     0.017 A 
HETATM   17  C18 UNL     1      26.716   4.294  49.303  1.00  0.00     0.020 A 
HETATM   18  C19 UNL     1      26.395   5.595  48.958  1.00  0.00     0.116 A 
HETATM   19  N4  UNL     1      25.125   6.012  48.768  1.00  0.00    -0.272 NA
HETATM   20  C20 UNL     1      24.149   5.092  48.929  1.00  0.00     0.130 A 
ENDBRANCH  13  15
ENDBRANCH   7   9
ENDBRANCH   5   7
BRANCH   1  21
HETATM   21  N1  UNL     1      25.000  -0.514  53.838  1.00  0.00    -0.379 N 
HETATM   22  H12 UNL     1      25.456  -1.230  54.407  1.00  0.00     0.160 HD
BRANCH  21  23
HETATM   23  C5  UNL     1      25.854   0.370  53.043  1.00  0.00     0.143 C 
BRANCH  23  24
HETATM   24  C4  UNL     1      26.839  -0.411  52.234  1.00  0.00     0.032 C 
BRANCH  24  25
HETATM   25  C3  UNL     1      27.207  -1.668  52.958  1.00  0.00     0.002 C 
BRANCH  25  26
HETATM   26  C2  UNL     1      28.682  -1.959  52.950  1.00  0.00    -0.004 C 
HETATM   27  C1  UNL     1      29.467  -0.851  53.654  1.00  0.00     0.005 C 
ENDBRANCH  25  26
ENDBRANCH  24  25
ENDBRANCH  23  24
BRANCH  23  28
HETATM   28  C6  UNL     1      26.588   1.297  53.964  1.00  0.00     0.256 C 
HETATM   29  O1  UNL     1      27.352   2.189  54.230  1.00  0.00    -0.305 OA
ENDBRANCH  23  28
ENDBRANCH  21  23
ENDBRANCH   1  21
TORSDOF 9
ENDMDL
MODEL 3
REMARK VINA RESULT:      -7.8      2.398      5.475
REMARK  9 active torsions:
REMARK  status: ('A' for Active; 'I' for Inactive)
REMARK    1  A    between atoms: C2_2  and  C3_3 
REMARK    2  A    between atoms: C3_3  and  C4_4 
REMARK    3  A    between atoms: C4_4  and  C5_5 
REMARK    4  A    between atoms: C5_5  and  C6_6 
REMARK    5  A    between atoms: C5_5  and  N1_8 
REMARK    6  A    between atoms: N1_8  and  C7_9 
REMARK    7  A    between atoms: C11_13  and  N2_14 
REMARK    8  A    between atoms: N2_14  and  C12_15 
REMARK    9  A    between atoms: C15_19  and  C16_20 
ROOT
HETATM    1  C7  UNL     1      24.559   5.639  50.632  1.00  0.00     0.030 A 
HETATM    2  C8  UNL     1      23.464   6.321  51.106  1.00  0.00     0.029 A 
HETATM    3  C9  UNL     1      22.246   5.726  51.395  1.00  0.00     0.004 A 
HETATM    4  C10 UNL     1      22.103   4.358  51.198  1.00  0.00     0.030 A 
HETATM    5  C11 UNL     1      23.189   3.667  50.725  1.00  0.00     0.051 A 
HETATM    6  C21 UNL     1      24.389   4.288  50.448  1.00  0.00     0.059 A 
ENDROOT
BRANCH   5   7
HETATM    7  N2  UNL     1      23.094   2.277  50.511  1.00  0.00    -0.188 N 
HETATM    8  H16 UNL     1      22.839   1.862  49.587  1.00  0.00     0.184 HD
BRANCH   7   9
HETATM    9  C12 UNL     1      23.337   1.315  51.533  1.00  0.00     0.727 A 
HETATM   10  N3  UNL     1      22.309   0.617  52.074  1.00  0.00    -0.075 NA
HETATM   11  C13 UNL     1      22.525  -0.305  53.051  1.00  0.00     0.139 A 
HETATM   12  C14 UNL     1      23.839  -0.467  53.438  1.00  0.00     0.053 A 
HETATM   13  C15 UNL     1      24.910   0.223  52.912  1.00  0.00     0.089 A 
HETATM   14  N5  UNL     1      24.588   1.108  51.954  1.00  0.00    -0.062 NA
BRANCH  13  15
HETATM   15  C16 UNL     1      26.284   0.015  53.357  1.00  0.00     0.011 A 
HETATM   16  C17 UNL     1      27.185  -0.831  52.764  1.00  0.00     0.017 A 
HETATM   17  C18 UNL     1      28.466  -0.961  53.259  1.00  0.00     0.020 A 
HETATM   18  C19 UNL     1      28.812  -0.211  54.369  1.00  0.00     0.116 A 
HETATM   19  N4  UNL     1      27.955   0.634  54.981  1.00  0.00    -0.272 NA
HETATM   20  C20 UNL     1      26.711   0.727  54.460  1.00  0.00     0.130 A 
ENDBRANCH  13  15
ENDBRANCH   7   9
ENDBRANCH   5   7
BRANCH   1  21
HETATM   21  N1  UNL     1      25.804   6.243  50.338  1.00  0.00    -0.379 N 
HETATM   22  H12 UNL     1      26.654   5.953  50.826  1.00  0.00     0.160 HD
BRANCH  21  23
HETATM   23  C5  UNL     1      25.924   7.299  49.332  1.00  0.00     0.143 C 
BRANCH  23  24
HETATM   24  C4  UNL     1      26.702   6.832  48.144  1.00  0.00     0.032 C 
BRANCH  24  25
HETATM   25  C3  UNL     1      27.451   5.583  48.488  1.00  0.00     0.002 C 
BRANCH  25  26
HETATM   26  C2  UNL     1      28.941   5.711  48.329  1.00  0.00    -0.004 C 
HETATM   27  C1  UNL     1      29.302   6.918  47.463  1.00  0.00     0.005 C 
ENDBRANCH  25  26
ENDBRANCH  24  25
ENDBRANCH  23  24
BRANCH  23  28
HETATM   28  C6  UNL     1      26.614   8.481  49.945  1.00  0.00     0.256 C 
HETATM   29  O1  UNL     1      27.568   9.106  50.330  1.00  0.00    -0.305 OA
ENDBRANCH  23  28
ENDBRANCH  21  23
ENDBRANCH   1  21
TORSDOF 9
ENDMDL
MODEL 4
REMARK VINA RESULT:      -7.7      2.026      6.729
REMARK  9 active torsions:
REMARK  status: ('A' for Active; 'I' for Inactive)
REMARK    1  A    between atoms: C2_2  and  C3_3 
REMARK    2  A    between atoms: C3_3  and  C4_4 
REMARK    3  A    between atoms: C4_4  and  C5_5 
REMARK    4  A    between atoms: C5_5  and  C6_6 
REMARK    5  A    between atoms: C5_5  and  N1_8 
REMARK    6  A    between atoms: N1_8  and  C7_9 
REMARK    7  A    between atoms: C11_13  and  N2_14 
REMARK    8  A    between atoms: N2_14  and  C12_15 
REMARK    9  A    between atoms: C15_19  and  C16_20 
ROOT
HETATM    1  C7  UNL     1      23.126  -0.470  53.809  1.00  0.00     0.030 A 
HETATM    2  C8  UNL     1      21.954  -0.916  54.369  1.00  0.00     0.029 A 
HETATM    3  C9  UNL     1      20.693  -0.589  53.891  1.00  0.00     0.004 A 
HETATM    4  C10 UNL     1      20.590   0.238  52.780  1.00  0.00     0.030 A 
HETATM    5  C11 UNL     1      21.754   0.690  52.213  1.00  0.00     0.051 A 
HETATM    6  C21 UNL     1      22.994   0.347  52.712  1.00  0.00     0.059 A 
ENDROOT
BRANCH   5   7
HETATM    7  N2  UNL     1      21.702   1.532  51.083  1.00  0.00    -0.188 N 
HETATM    8  H16 UNL     1      21.315   1.223  50.164  1.00  0.00     0.184 HD
BRANCH   7   9
HETATM    9  C12 UNL     1      22.173   2.875  51.094  1.00  0.00     0.727 A 
HETATM   10  N3  UNL     1      21.452   3.849  51.700  1.00  0.00    -0.075 NA
HETATM   11  C13 UNL     1      21.890   5.138  51.719  1.00  0.00     0.139 A 
HETATM   12  C14 UNL     1      23.094   5.368  51.087  1.00  0.00     0.053 A 
HETATM   13  C15 UNL     1      23.856   4.405  50.461  1.00  0.00     0.089 A 
HETATM   14  N5  UNL     1      23.334   3.168  50.500  1.00  0.00    -0.062 NA
BRANCH  13  15
HETATM   15  C16 UNL     1      25.126   4.699  49.805  1.00  0.00     0.011 A 
HETATM   16  C17 UNL     1      25.456   5.900  49.231  1.00  0.00     0.017 A 
HETATM   17  C18 UNL     1      26.686   6.083  48.633  1.00  0.00     0.020 A 
HETATM   18  C19 UNL     1      27.572   5.020  48.631  1.00  0.00     0.116 A 
HETATM   19  N4  UNL     1      27.284   3.823  49.185  1.00  0.00    -0.272 NA
HETATM   20  C20 UNL     1      26.068   3.692  49.759  1.00  0.00     0.130 A 
ENDBRANCH  13  15
ENDBRANCH   7   9
ENDBRANCH   5   7
BRANCH   1  21
HETATM   21  N1  UNL     1      24.414  -0.802  54.293  1.00  0.00    -0.379 N 
HETATM   22  H12 UNL     1      24.525  -1.417  55.101  1.00  0.00     0.160 HD
BRANCH  21  23
HETATM   23  C5  UNL     1      25.628  -0.283  53.661  1.00  0.00     0.143 C 
BRANCH  23  24
HETATM   24  C4  UNL     1      26.490  -1.391  53.150  1.00  0.00     0.032 C 
BRANCH  24  25
HETATM   25  C3  UNL     1      27.807  -0.843  52.699  1.00  0.00     0.002 C 
BRANCH  25  26
HETATM   26  C2  UNL     1      28.988  -1.645  53.171  1.00  0.00    -0.004 C 
HETATM   27  C1  UNL     1      30.113  -0.732  53.662  1.00  0.00     0.005 C 
ENDBRANCH  25  26
ENDBRANCH  24  25
ENDBRANCH  23  24
BRANCH  23  28
HETATM   28  C6  UNL     1      26.394   0.522  54.666  1.00  0.00     0.256 C 
HETATM   29  O1  UNL     1      27.391   0.919  55.212  1.00  0.00    -0.305 OA
ENDBRANCH  23  28
ENDBRANCH  21  23
ENDBRANCH   1  21
TORSDOF 9
ENDMDL
MODEL 5
REMARK VINA RESULT:      -7.6      2.834      7.657
REMARK  9 active torsions:
REMARK  status: ('A' for Active; 'I' for Inactive)
REMARK    1  A    between atoms: C2_2  and  C3_3 
REMARK    2  A    between atoms: C3_3  and  C4_4 
REMARK    3  A    between atoms: C4_4  and  C5_5 
REMARK    4  A    between atoms: C5_5  and  C6_6 
REMARK    5  A    between atoms: C5_5  and  N1_8 
REMARK    6  A    between atoms: N1_8  and  C7_9 
REMARK    7  A    between atoms: C11_13  and  N2_14 
REMARK    8  A    between atoms: N2_14  and  C12_15 
REMARK    9  A    between atoms: C15_19  and  C16_20 
ROOT
HETATM    1  C7  UNL     1      24.078   1.939  52.883  1.00  0.00     0.030 A 
HETATM    2  C8  UNL     1      22.844   1.352  52.745  1.00  0.00     0.029 A 
HETATM    3  C9  UNL     1      21.689   2.044  52.413  1.00  0.00     0.004 A 
HETATM    4  C10 UNL     1      21.765   3.415  52.205  1.00  0.00     0.030 A 
HETATM    5  C11 UNL     1      22.992   4.012  52.341  1.00  0.00     0.051 A 
HETATM    6  C21 UNL     1      24.123   3.296  52.672  1.00  0.00     0.059 A 
ENDROOT
BRANCH   5   7
HETATM    7  N2  UNL     1      23.120   5.402  52.140  1.00  0.00    -0.188 N 
HETATM    8  H16 UNL     1      22.947   6.102  52.894  1.00  0.00     0.184 HD
BRANCH   7   9
HETATM    9  C12 UNL     1      23.494   5.974  50.890  1.00  0.00     0.727 A 
HETATM   10  N3  UNL     1      22.565   6.567  50.102  1.00  0.00    -0.075 NA
HETATM   11  C13 UNL     1      22.908   7.118  48.905  1.00  0.00     0.139 A 
HETATM   12  C14 UNL     1      24.242   7.025  48.567  1.00  0.00     0.053 A 
HETATM   13  C15 UNL     1      25.216   6.431  49.341  1.00  0.00     0.089 A 
HETATM   14  N5  UNL     1      24.772   5.919  50.501  1.00  0.00    -0.062 NA
BRANCH  13  15
HETATM   15  C16 UNL     1      26.616   6.358  48.938  1.00  0.00     0.011 A 
HETATM   16  C17 UNL     1      27.299   5.201  48.665  1.00  0.00     0.017 A 
HETATM   17  C18 UNL     1      28.626   5.234  48.289  1.00  0.00     0.020 A 
HETATM   18  C19 UNL     1      29.243   6.470  48.197  1.00  0.00     0.116 A 
HETATM   19  N4  UNL     1      28.606   7.631  48.456  1.00  0.00    -0.272 NA
HETATM   20  C20 UNL     1      27.307   7.547  48.820  1.00  0.00     0.130 A 
ENDBRANCH  13  15
ENDBRANCH   7   9
ENDBRANCH   5   7
BRANCH   1  21
HETATM   21  N1  UNL     1      25.259   1.235  53.220  1.00  0.00    -0.379 N 
HETATM   22  H12 UNL     1      25.342   0.754  54.117  1.00  0.00     0.160 HD
BRANCH  21  23
HETATM   23  C5  UNL     1      26.399   1.169  52.304  1.00  0.00     0.143 C 
BRANCH  23  24
HETATM   24  C4  UNL     1      26.844  -0.242  52.093  1.00  0.00     0.032 C 
BRANCH  24  25
HETATM   25  C3  UNL     1      27.415  -0.789  53.363  1.00  0.00     0.002 C 
BRANCH  25  26
HETATM   26  C2  UNL     1      28.681  -1.576  53.166  1.00  0.00    -0.004 C 
HETATM   27  C1  UNL     1      29.908  -0.755  53.562  1.00  0.00     0.005 C 
ENDBRANCH  25  26
ENDBRANCH  24  25
ENDBRANCH  23  24
BRANCH  23  28
HETATM   28  C6  UNL     1      27.530   1.969  52.876  1.00  0.00     0.256 C 
HETATM   29  O1  UNL     1      28.596   2.528  52.841  1.00  0.00    -0.305 OA
ENDBRANCH  23  28
ENDBRANCH  21  23
ENDBRANCH   1  21
TORSDOF 9
ENDMDL
MODEL 6
REMARK VINA RESULT:      -7.6      2.367      6.001
REMARK  9 active torsions:
REMARK  status: ('A' for Active; 'I' for Inactive)
REMARK    1  A    between atoms: C2_2  and  C3_3 
REMARK    2  A    between atoms: C3_3  and  C4_4 
REMARK    3  A    between atoms: C4_4  and  C5_5 
REMARK    4  A    between atoms: C5_5  and  C6_6 
REMARK    5  A    between atoms: C5_5  and  N1_8 
REMARK    6  A    between atoms: N1_8  and  C7_9 
REMARK    7  A    between atoms: C11_13  and  N2_14 
REMARK    8  A    between atoms: N2_14  and  C12_15 
REMARK    9  A    between atoms: C15_19  and  C16_20 
ROOT
HETATM    1  C7  UNL     1      23.615  -0.457  53.534  1.00  0.00     0.030 A 
HETATM    2  C8  UNL     1      22.903  -1.046  54.550  1.00  0.00     0.029 A 
HETATM    3  C9  UNL     1      21.558  -0.812  54.792  1.00  0.00     0.004 A 
HETATM    4  C10 UNL     1      20.872   0.070  53.968  1.00  0.00     0.030 A 
HETATM    5  C11 UNL     1      21.572   0.665  52.950  1.00  0.00     0.051 A 
HETATM    6  C21 UNL     1      22.911   0.410  52.734  1.00  0.00     0.059 A 
ENDROOT
BRANCH   5   7
HETATM    7  N2  UNL     1      20.919   1.567  52.085  1.00  0.00    -0.188 N 
HETATM    8  H16 UNL     1      19.989   1.987  52.302  1.00  0.00     0.184 HD
BRANCH   7   9
HETATM    9  C12 UNL     1      21.470   1.985  50.840  1.00  0.00     0.727 A 
HETATM   10  N3  UNL     1      21.340   1.208  49.738  1.00  0.00    -0.075 NA
HETATM   11  C13 UNL     1      21.861   1.594  48.541  1.00  0.00     0.139 A 
HETATM   12  C14 UNL     1      22.515   2.807  48.540  1.00  0.00     0.053 A 
HETATM   13  C15 UNL     1      22.668   3.626  49.639  1.00  0.00     0.089 A 
HETATM   14  N5  UNL     1      22.117   3.152  50.768  1.00  0.00    -0.062 NA
BRANCH  13  15
HETATM   15  C16 UNL     1      23.371   4.904  49.585  1.00  0.00     0.011 A 
HETATM   16  C17 UNL     1      23.880   5.477  48.449  1.00  0.00     0.017 A 
HETATM   17  C18 UNL     1      24.531   6.692  48.499  1.00  0.00     0.020 A 
HETATM   18  C19 UNL     1      24.654   7.312  49.730  1.00  0.00     0.116 A 
HETATM   19  N4  UNL     1      24.167   6.781  50.871  1.00  0.00    -0.272 NA
HETATM   20  C20 UNL     1      23.537   5.590  50.772  1.00  0.00     0.130 A 
ENDBRANCH  13  15
ENDBRANCH   7   9
ENDBRANCH   5   7
BRANCH   1  21
HETATM   21  N1  UNL     1      24.988  -0.695  53.283  1.00  0.00    -0.379 N 
HETATM   22  H12 UNL     1      25.314  -1.622  53.004  1.00  0.00     0.160 HD
BRANCH  21  23
HETATM   23  C5  UNL     1      25.986   0.367  53.414  1.00  0.00     0.143 C 
BRANCH  23  24
HETATM   24  C4  UNL     1      26.724   0.579  52.133  1.00  0.00     0.032 C 
BRANCH  24  25
HETATM   25  C3  UNL     1      26.992   2.038  51.936  1.00  0.00     0.002 C 
BRANCH  25  26
HETATM   26  C2  UNL     1      25.967   2.730  51.082  1.00  0.00    -0.004 C 
HETATM   27  C1  UNL     1      26.546   3.102  49.717  1.00  0.00     0.005 C 
ENDBRANCH  25  26
ENDBRANCH  24  25
ENDBRANCH  23  24
BRANCH  23  28
HETATM   28  C6  UNL     1      26.957  -0.007  54.493  1.00  0.00     0.256 C 
HETATM   29  O1  UNL     1      28.053  -0.185  54.959  1.00  0.00    -0.305 OA
ENDBRANCH  23  28
ENDBRANCH  21  23
ENDBRANCH   1  21
TORSDOF 9
ENDMDL
MODEL 7
REMARK VINA RESULT:      -7.6      1.998      5.205
REMARK  9 active torsions:
REMARK  status: ('A' for Active; 'I' for Inactive)
REMARK    1  A    between atoms: C2_2  and  C3_3 
REMARK    2  A    between atoms: C3_3  and  C4_4 
REMARK    3  A    between atoms: C4_4  and  C5_5 
REMARK    4  A    between atoms: C5_5  and  C6_6 
REMARK    5  A    between atoms: C5_5  and  N1_8 
REMARK    6  A    between atoms: N1_8  and  C7_9 
REMARK    7  A    between atoms: C11_13  and  N2_14 
REMARK    8  A    between atoms: N2_14  and  C12_15 
REMARK    9  A    between atoms: C15_19  and  C16_20 
ROOT
HETATM    1  C7  UNL     1      22.987   3.110  49.316  1.00  0.00     0.030 A 
HETATM    2  C8  UNL     1      22.523   2.280  48.325  1.00  0.00     0.029 A 
HETATM    3  C9  UNL     1      21.657   1.219  48.544  1.00  0.00     0.004 A 
HETATM    4  C10 UNL     1      21.223   0.965  49.839  1.00  0.00     0.030 A 
HETATM    5  C11 UNL     1      21.680   1.786  50.836  1.00  0.00     0.051 A 
HETATM    6  C21 UNL     1      22.541   2.835  50.586  1.00  0.00     0.059 A 
ENDROOT
BRANCH   5   7
HETATM    7  N2  UNL     1      21.267   1.569  52.167  1.00  0.00    -0.188 N 
HETATM    8  H16 UNL     1      20.459   2.069  52.598  1.00  0.00     0.184 HD
BRANCH   7   9
HETATM    9  C12 UNL     1      21.914   0.649  53.040  1.00  0.00     0.727 A 
HETATM   10  N3  UNL     1      21.188  -0.118  53.889  1.00  0.00    -0.075 NA
HETATM   11  C13 UNL     1      21.793  -1.001  54.730  1.00  0.00     0.139 A 
HETATM   12  C14 UNL     1      23.169  -1.051  54.652  1.00  0.00     0.053 A 
HETATM   13  C15 UNL     1      23.942  -0.288  53.802  1.00  0.00     0.089 A 
HETATM   14  N5  UNL     1      23.247   0.550  53.016  1.00  0.00    -0.062 NA
BRANCH  13  15
HETATM   15  C16 UNL     1      25.398  -0.378  53.758  1.00  0.00     0.011 A 
HETATM   16  C17 UNL     1      26.131  -0.769  52.667  1.00  0.00     0.017 A 
HETATM   17  C18 UNL     1      27.508  -0.823  52.722  1.00  0.00     0.020 A 
HETATM   18  C19 UNL     1      28.124  -0.471  53.910  1.00  0.00     0.116 A 
HETATM   19  N4  UNL     1      27.439  -0.080  55.006  1.00  0.00    -0.272 NA
HETATM   20  C20 UNL     1      26.092  -0.044  54.903  1.00  0.00     0.130 A 
ENDBRANCH  13  15
ENDBRANCH   7   9
ENDBRANCH   5   7
BRANCH   1  21
HETATM   21  N1  UNL     1      23.870   4.194  49.095  1.00  0.00    -0.379 N 
HETATM   22  H12 UNL     1      23.837   4.724  48.223  1.00  0.00     0.160 HD
BRANCH  21  23
HETATM   23  C5  UNL     1      24.857   4.595  50.099  1.00  0.00     0.143 C 
BRANCH  23  24
HETATM   24  C4  UNL     1      25.274   6.018  49.912  1.00  0.00     0.032 C 
BRANCH  24  25
HETATM   25  C3  UNL     1      25.011   6.443  48.502  1.00  0.00     0.002 C 
BRANCH  25  26
HETATM   26  C2  UNL     1      26.130   7.241  47.893  1.00  0.00    -0.004 C 
HETATM   27  C1  UNL     1      27.491   6.645  48.253  1.00  0.00     0.005 C 
ENDBRANCH  25  26
ENDBRANCH  24  25
ENDBRANCH  23  24
BRANCH  23  28
HETATM   28  C6  UNL     1      26.057   3.704  49.986  1.00  0.00     0.256 C 
HETATM   29  O1  UNL     1      27.182   3.429  49.657  1.00  0.00    -0.305 OA
ENDBRANCH  23  28
ENDBRANCH  21  23
ENDBRANCH   1  21
TORSDOF 9
ENDMDL
MODEL 8
REMARK VINA RESULT:      -7.4      3.217      6.920
REMARK  9 active torsions:
REMARK  status: ('A' for Active; 'I' for Inactive)
REMARK    1  A    between atoms: C2_2  and  C3_3 
REMARK    2  A    between atoms: C3_3  and  C4_4 
REMARK    3  A    between atoms: C4_4  and  C5_5 
REMARK    4  A    between atoms: C5_5  and  C6_6 
REMARK    5  A    between atoms: C5_5  and  N1_8 
REMARK    6  A    between atoms: N1_8  and  C7_9 
REMARK    7  A    between atoms: C11_13  and  N2_14 
REMARK    8  A    between atoms: N2_14  and  C12_15 
REMARK    9  A    between atoms: C15_19  and  C16_20 
ROOT
HETATM    1  C7  UNL     1      28.653   6.461  48.212  1.00  0.00     0.030 A 
HETATM    2  C8  UNL     1      27.825   7.553  48.310  1.00  0.00     0.029 A 
HETATM    3  C9  UNL     1      26.485   7.481  48.659  1.00  0.00     0.004 A 
HETATM    4  C10 UNL     1      25.928   6.238  48.929  1.00  0.00     0.030 A 
HETATM    5  C11 UNL     1      26.745   5.141  48.834  1.00  0.00     0.051 A 
HETATM    6  C21 UNL     1      28.076   5.245  48.485  1.00  0.00     0.059 A 
ENDROOT
BRANCH   5   7
HETATM    7  N2  UNL     1      26.226   3.856  49.100  1.00  0.00    -0.188 N 
HETATM    8  H16 UNL     1      26.151   3.114  48.370  1.00  0.00     0.184 HD
BRANCH   7   9
HETATM    9  C12 UNL     1      25.758   3.459  50.384  1.00  0.00     0.727 A 
HETATM   10  N3  UNL     1      24.501   3.774  50.783  1.00  0.00    -0.075 NA
HETATM   11  C13 UNL     1      24.039   3.401  52.008  1.00  0.00     0.139 A 
HETATM   12  C14 UNL     1      24.929   2.696  52.791  1.00  0.00     0.053 A 
HETATM   13  C15 UNL     1      26.213   2.356  52.421  1.00  0.00     0.089 A 
HETATM   14  N5  UNL     1      26.569   2.772  51.194  1.00  0.00    -0.062 NA
BRANCH  13  15
HETATM   15  C16 UNL     1      27.117   1.608  53.288  1.00  0.00     0.011 A 
HETATM   16  C17 UNL     1      28.450   1.878  53.458  1.00  0.00     0.017 A 
HETATM   17  C18 UNL     1      29.226   1.112  54.302  1.00  0.00     0.020 A 
HETATM   18  C19 UNL     1      28.617   0.064  54.971  1.00  0.00     0.116 A 
HETATM   19  N4  UNL     1      27.308  -0.233  54.832  1.00  0.00    -0.272 NA
HETATM   20  C20 UNL     1      26.589   0.546  53.994  1.00  0.00     0.130 A 
ENDBRANCH  13  15
ENDBRANCH   7   9
ENDBRANCH   5   7
BRANCH   1  21
HETATM   21  N1  UNL     1      30.021   6.532  47.857  1.00  0.00    -0.379 N 
HETATM   22  H12 UNL     1      30.304   6.589  46.877  1.00  0.00     0.160 HD
BRANCH  21  23
HETATM   23  C5  UNL     1      31.077   6.527  48.872  1.00  0.00     0.143 C 
BRANCH  23  24
HETATM   24  C4  UNL     1      31.909   7.766  48.796  1.00  0.00     0.032 C 
BRANCH  24  25
HETATM   25  C3  UNL     1      31.159   8.918  49.387  1.00  0.00     0.002 C 
BRANCH  25  26
HETATM   26  C2  UNL     1      31.046  10.101  48.467  1.00  0.00    -0.004 C 
HETATM   27  C1  UNL     1      31.756   9.836  47.139  1.00  0.00     0.005 C 
ENDBRANCH  25  26
ENDBRANCH  24  25
ENDBRANCH  23  24
BRANCH  23  28
HETATM   28  C6  UNL     1      31.950   5.327  48.660  1.00  0.00     0.256 C 
HETATM   29  O1  UNL     1      32.204   4.224  48.250  1.00  0.00    -0.305 OA
ENDBRANCH  23  28
ENDBRANCH  21  23
ENDBRANCH   1  21
TORSDOF 9
ENDMDL
MODEL 9
REMARK VINA RESULT:      -7.3      2.759      5.411
REMARK  9 active torsions:
REMARK  status: ('A' for Active; 'I' for Inactive)
REMARK    1  A    between atoms: C2_2  and  C3_3 
REMARK    2  A    between atoms: C3_3  and  C4_4 
REMARK    3  A    between atoms: C4_4  and  C5_5 
REMARK    4  A    between atoms: C5_5  and  C6_6 
REMARK    5  A    between atoms: C5_5  and  N1_8 
REMARK    6  A    between atoms: N1_8  and  C7_9 
REMARK    7  A    between atoms: C11_13  and  N2_14 
REMARK    8  A    between atoms: N2_14  and  C12_15 
REMARK    9  A    between atoms: C15_19  and  C16_20 
ROOT
HETATM    1  C7  UNL     1      24.765   5.777  49.006  1.00  0.00     0.030 A 
HETATM    2  C8  UNL     1      25.830   6.513  48.546  1.00  0.00     0.029 A 
HETATM    3  C9  UNL     1      27.128   6.031  48.468  1.00  0.00     0.004 A 
HETATM    4  C10 UNL     1      27.387   4.729  48.876  1.00  0.00     0.030 A 
HETATM    5  C11 UNL     1      26.331   3.985  49.336  1.00  0.00     0.051 A 
HETATM    6  C21 UNL     1      25.049   4.493  49.401  1.00  0.00     0.059 A 
ENDROOT
BRANCH   5   7
HETATM    7  N2  UNL     1      26.542   2.657  49.760  1.00  0.00    -0.188 N 
HETATM    8  H16 UNL     1      26.776   1.882  49.101  1.00  0.00     0.184 HD
BRANCH   7   9
HETATM    9  C12 UNL     1      26.454   2.255  51.123  1.00  0.00     0.727 A 
HETATM   10  N3  UNL     1      27.488   2.477  51.971  1.00  0.00    -0.075 NA
HETATM   11  C13 UNL     1      27.419   2.098  53.277  1.00  0.00     0.139 A 
HETATM   12  C14 UNL     1      26.244   1.484  53.658  1.00  0.00     0.053 A 
HETATM   13  C15 UNL     1      25.171   1.242  52.826  1.00  0.00     0.089 A 
HETATM   14  N5  UNL     1      25.343   1.655  51.559  1.00  0.00    -0.062 NA
BRANCH  13  15
HETATM   15  C16 UNL     1      23.948   0.588  53.278  1.00  0.00     0.011 A 
HETATM   16  C17 UNL     1      22.682   0.906  52.859  1.00  0.00     0.017 A 
HETATM   17  C18 UNL     1      21.583   0.229  53.346  1.00  0.00     0.020 A 
HETATM   18  C19 UNL     1      21.799  -0.780  54.268  1.00  0.00     0.116 A 
HETATM   19  N4  UNL     1      23.029  -1.124  54.705  1.00  0.00    -0.272 NA
HETATM   20  C20 UNL     1      24.074  -0.432  54.200  1.00  0.00     0.130 A 
ENDBRANCH  13  15
ENDBRANCH   7   9
ENDBRANCH   5   7
BRANCH   1  21
HETATM   21  N1  UNL     1      23.439   6.265  49.085  1.00  0.00    -0.379 N 
HETATM   22  H12 UNL     1      22.705   5.881  48.487  1.00  0.00     0.160 HD
BRANCH  21  23
HETATM   23  C5  UNL     1      23.069   7.330  50.019  1.00  0.00     0.143 C 
BRANCH  23  24
HETATM   24  C4  UNL     1      22.237   6.802  51.142  1.00  0.00     0.032 C 
BRANCH  24  25
HETATM   25  C3  UNL     1      21.657   5.476  50.765  1.00  0.00     0.002 C 
BRANCH  25  26
HETATM   26  C2  UNL     1      21.825   4.421  51.823  1.00  0.00    -0.004 C 
HETATM   27  C1  UNL     1      23.149   4.593  52.568  1.00  0.00     0.005 C 
ENDBRANCH  25  26
ENDBRANCH  24  25
ENDBRANCH  23  24
BRANCH  23  28
HETATM   28  C6  UNL     1      22.298   8.381  49.278  1.00  0.00     0.256 C 
HETATM   29  O1  UNL     1      21.740   9.441  49.159  1.00  0.00    -0.305 OA
ENDBRANCH  23  28
ENDBRANCH  21  23
ENDBRANCH   1  21
TORSDOF 9
ENDMDL
