MODEL 1
REMARK VINA RESULT:      -8.9      0.000      0.000
REMARK  7 active torsions:
REMARK  status: ('A' for Active; 'I' for Inactive)
REMARK    1  A    between atoms: S1_2  and  C2_5 
REMARK    2  A    between atoms: C6_9  and  C7_10 
REMARK    3  A    between atoms: C6_9  and  C12_16 
REMARK    4  A    between atoms: C12_16  and  C13_17 
REMARK    5  A    between atoms: C17_21  and  C18_22 
REMARK    6  A    between atoms: C18_22  and  N2_23 
REMARK    7  A    between atoms: N2_23  and  C19_24 
ROOT
HETATM    1  C2  UNL     1      26.913   0.247  52.800  1.00  0.00     0.131 C 
HETATM    2  C3  UNL     1      25.516  -0.162  52.824  1.00  0.00    -0.009 C 
HETATM    3  C4  UNL     1      24.243  -0.712  52.736  1.00  0.00     0.003 C 
HETATM    4  C5  UNL     1      23.149   0.138  53.445  1.00  0.00     0.209 A 
HETATM    5  C6  UNL     1      21.831   0.360  52.635  1.00  0.00     0.039 A 
HETATM    6  C7  UNL     1      21.616   0.515  51.187  1.00  0.00     0.019 A 
HETATM    7  C8  UNL     1      22.303   1.309  50.184  1.00  0.00     0.011 A 
HETATM    8  C9  UNL     1      22.981   1.575  51.404  1.00  0.00     0.046 A 
HETATM    9  C10 UNL     1      24.195   2.313  51.935  1.00  0.00     0.207 A 
HETATM   10  C11 UNL     1      24.529   2.210  53.343  1.00  0.00     0.153 A 
HETATM   11  N1  UNL     1      23.560   1.546  53.173  1.00  0.00    -0.004 N 
HETATM   12  C12 UNL     1      22.550   0.929  52.704  1.00  0.00     0.166 A 
HETATM   13  C13 UNL     1      22.015   0.228  53.878  1.00  0.00     0.072 A 
HETATM   14  C14 UNL     1      25.517   2.902  53.371  1.00  0.00     0.015 C 
HETATM   15  C15 UNL     1      26.158   2.350  52.103  1.00  0.00     0.026 C 
HETATM   16  C16 UNL     1      27.273   1.765  52.589  1.00  0.00     0.033 C 
HETATM   17  C17 UNL     1      25.193   3.119  51.327  1.00  0.00     0.036 C 
ENDROOT
BRANCH  17  18
HETATM   18  C18 UNL     1      24.828   4.179  50.360  1.00  0.00     0.136 C 
BRANCH  18  19
HETATM   19  N2  UNL     1      25.936   5.103  50.216  1.00  0.00    -0.367 N 
HETATM   20  H17 UNL     1      26.239   5.725  51.031  1.00  0.00     0.161 HD
BRANCH  19  21
HETATM   21  C19 UNL     1      26.534   5.070  48.905  1.00  0.00     0.348 C 
HETATM   22  O3  UNL     1      27.547   4.329  49.045  1.00  0.00    -0.284 OA
ENDBRANCH  19  21
ENDBRANCH  18  19
ENDBRANCH  17  18
BRANCH   1  23
HETATM   23  S1  UNL     1      28.084  -0.587  53.736  1.00  0.00     0.148 S 
HETATM   24  C1  UNL     1      29.757  -0.130  53.433  1.00  0.00     0.162 C 
HETATM   25  O1  UNL     1      27.971  -2.066  53.388  1.00  0.00    -0.228 OA
HETATM   26  O2  UNL     1      27.762  -0.485  55.211  1.00  0.00    -0.228 OA
ENDBRANCH   1  23
TORSDOF 7
ENDMDL
MODEL 2
REMARK VINA RESULT:      -8.5      2.901      6.054
REMARK  7 active torsions:
REMARK  status: ('A' for Active; 'I' for Inactive)
REMARK    1  A    between atoms: S1_2  and  C2_5 
REMARK    2  A    between atoms: C6_9  and  C7_10 
REMARK    3  A    between atoms: C6_9  and  C12_16 
REMARK    4  A    between atoms: C12_16  and  C13_17 
REMARK    5  A    between atoms: C17_21  and  C18_22 
REMARK    6  A    between atoms: C18_22  and  N2_23 
REMARK    7  A    between atoms: N2_23  and  C19_24 
ROOT
HETATM    1  C2  UNL     1      24.289   3.163  50.211  1.00  0.00     0.131 C 
HETATM    2  C3  UNL     1      25.562   2.742  50.778  1.00  0.00    -0.009 C 
HETATM    3  C4  UNL     1      26.835   2.308  51.127  1.00  0.00     0.003 C 
HETATM    4  C5  UNL     1      27.082   2.277  52.663  1.00  0.00     0.209 A 
HETATM    5  C6  UNL     1      27.769   0.985  53.215  1.00  0.00     0.039 A 
HETATM    6  C7  UNL     1      27.660  -0.415  52.774  1.00  0.00     0.019 A 
HETATM    7  C8  UNL     1      26.513  -1.236  52.429  1.00  0.00     0.011 A 
HETATM    8  C9  UNL     1      25.977   0.034  52.769  1.00  0.00     0.046 A 
HETATM    9  C10 UNL     1      24.659   0.787  52.783  1.00  0.00     0.207 A 
HETATM   10  C11 UNL     1      24.644   2.185  53.170  1.00  0.00     0.153 A 
HETATM   11  N1  UNL     1      25.775   1.828  53.224  1.00  0.00    -0.004 N 
HETATM   12  C12 UNL     1      26.870   1.180  53.197  1.00  0.00     0.166 A 
HETATM   13  C13 UNL     1      27.862   2.187  53.593  1.00  0.00     0.072 A 
HETATM   14  C14 UNL     1      23.465   2.417  53.055  1.00  0.00     0.015 C 
HETATM   15  C15 UNL     1      23.269   1.698  51.725  1.00  0.00     0.026 C 
HETATM   16  C16 UNL     1      22.947   2.720  50.904  1.00  0.00     0.033 C 
HETATM   17  C17 UNL     1      23.326   0.432  52.445  1.00  0.00     0.036 C 
ENDROOT
BRANCH  17  18
HETATM   18  C18 UNL     1      22.737  -0.843  52.914  1.00  0.00     0.136 C 
BRANCH  18  19
HETATM   19  N2  UNL     1      21.416  -0.593  53.456  1.00  0.00    -0.367 N 
HETATM   20  H17 UNL     1      20.566  -0.516  52.813  1.00  0.00     0.161 HD
BRANCH  19  21
HETATM   21  C19 UNL     1      21.408  -0.472  54.893  1.00  0.00     0.348 C 
HETATM   22  O3  UNL     1      21.932  -1.548  55.298  1.00  0.00    -0.284 OA
ENDBRANCH  19  21
ENDBRANCH  18  19
ENDBRANCH  17  18
BRANCH   1  23
HETATM   23  S1  UNL     1      24.149   4.669  49.401  1.00  0.00     0.148 S 
HETATM   24  C1  UNL     1      25.674   5.445  48.983  1.00  0.00     0.162 C 
HETATM   25  O1  UNL     1      23.424   5.623  50.342  1.00  0.00    -0.228 OA
HETATM   26  O2  UNL     1      23.265   4.542  48.181  1.00  0.00    -0.228 OA
ENDBRANCH   1  23
TORSDOF 7
ENDMDL
MODEL 3
REMARK VINA RESULT:      -8.0      2.844      5.370
REMARK  7 active torsions:
REMARK  status: ('A' for Active; 'I' for Inactive)
REMARK    1  A    between atoms: S1_2  and  C2_5 
REMARK    2  A    between atoms: C6_9  and  C7_10 
REMARK    3  A    between atoms: C6_9  and  C12_16 
REMARK    4  A    between atoms: C12_16  and  C13_17 
REMARK    5  A    between atoms: C17_21  and  C18_22 
REMARK    6  A    between atoms: C18_22  and  N2_23 
REMARK    7  A    between atoms: N2_23  and  C19_24 
ROOT
HETATM    1  C2  UNL     1      23.098   4.245  52.046  1.00  0.00     0.131 C 
HETATM    2  C3  UNL     1      21.945   3.364  52.158  1.00  0.00    -0.009 C 
HETATM    3  C4  UNL     1      20.768   2.663  52.391  1.00  0.00     0.003 C 
HETATM    4  C5  UNL     1      20.703   1.294  51.654  1.00  0.00     0.209 A 
HETATM    5  C6  UNL     1      20.211   0.083  52.512  1.00  0.00     0.039 A 
HETATM    6  C7  UNL     1      20.402  -0.213  53.941  1.00  0.00     0.019 A 
HETATM    7  C8  UNL     1      21.574  -0.153  54.795  1.00  0.00     0.011 A 
HETATM    8  C9  UNL     1      22.023   0.261  53.513  1.00  0.00     0.046 A 
HETATM    9  C10 UNL     1      23.255   0.814  52.821  1.00  0.00     0.207 A 
HETATM   10  C11 UNL     1      23.180   1.174  51.417  1.00  0.00     0.153 A 
HETATM   11  N1  UNL     1      22.102   0.784  51.728  1.00  0.00    -0.004 N 
HETATM   12  C12 UNL     1      21.078   0.326  52.329  1.00  0.00     0.166 A 
HETATM   13  C13 UNL     1      20.047   0.337  51.285  1.00  0.00     0.072 A 
HETATM   14  C14 UNL     1      24.310   1.560  51.245  1.00  0.00     0.015 C 
HETATM   15  C15 UNL     1      24.420   2.375  52.528  1.00  0.00     0.026 C 
HETATM   16  C16 UNL     1      24.547   3.630  52.048  1.00  0.00     0.033 C 
HETATM   17  C17 UNL     1      24.568   1.125  53.264  1.00  0.00     0.036 C 
ENDROOT
BRANCH  17  18
HETATM   18  C18 UNL     1      25.326   0.182  54.116  1.00  0.00     0.136 C 
BRANCH  18  19
HETATM   19  N2  UNL     1      26.432   0.879  54.743  1.00  0.00    -0.367 N 
HETATM   20  H17 UNL     1      26.263   1.756  55.329  1.00  0.00     0.161 HD
BRANCH  19  21
HETATM   21  C19 UNL     1      27.709   0.264  54.482  1.00  0.00     0.348 C 
HETATM   22  O3  UNL     1      28.540   1.015  55.066  1.00  0.00    -0.284 OA
ENDBRANCH  19  21
ENDBRANCH  18  19
ENDBRANCH  17  18
BRANCH   1  23
HETATM   23  S1  UNL     1      22.999   5.702  51.146  1.00  0.00     0.148 S 
HETATM   24  C1  UNL     1      23.275   5.540  49.414  1.00  0.00     0.162 C 
HETATM   25  O1  UNL     1      24.086   6.632  51.671  1.00  0.00    -0.228 OA
HETATM   26  O2  UNL     1      21.688   6.409  51.412  1.00  0.00    -0.228 OA
ENDBRANCH   1  23
TORSDOF 7
ENDMDL
MODEL 4
REMARK VINA RESULT:      -8.0      2.690      4.702
REMARK  7 active torsions:
REMARK  status: ('A' for Active; 'I' for Inactive)
REMARK    1  A    between atoms: S1_2  and  C2_5 
REMARK    2  A    between atoms: C6_9  and  C7_10 
REMARK    3  A    between atoms: C6_9  and  C12_16 
REMARK    4  A    between atoms: C12_16  and  C13_17 
REMARK    5  A    between atoms: C17_21  and  C18_22 
REMARK    6  A    between atoms: C18_22  and  N2_23 
REMARK    7  A    between atoms: N2_23  and  C19_24 
ROOT
HETATM    1  C2  UNL     1      23.501  -0.353  53.452  1.00  0.00     0.131 C 
HETATM    2  C3  UNL     1      23.364   0.808  52.585  1.00  0.00    -0.009 C 
HETATM    3  C4  UNL     1      23.139   1.791  51.629  1.00  0.00     0.003 C 
HETATM    4  C5  UNL     1      23.716   3.182  52.020  1.00  0.00     0.209 A 
HETATM    5  C6  UNL     1      24.509   3.928  50.897  1.00  0.00     0.039 A 
HETATM    6  C7  UNL     1      25.365   3.400  49.822  1.00  0.00     0.019 A 
HETATM    7  C8  UNL     1      26.415   2.397  49.823  1.00  0.00     0.011 A 
HETATM    8  C9  UNL     1      25.956   2.462  51.166  1.00  0.00     0.046 A 
HETATM    9  C10 UNL     1      26.142   1.774  52.505  1.00  0.00     0.207 A 
HETATM   10  C11 UNL     1      25.331   2.186  53.635  1.00  0.00     0.153 A 
HETATM   11  N1  UNL     1      24.996   2.854  52.712  1.00  0.00    -0.004 N 
HETATM   12  C12 UNL     1      24.850   3.412  51.577  1.00  0.00     0.166 A 
HETATM   13  C13 UNL     1      23.775   4.381  51.820  1.00  0.00     0.072 A 
HETATM   14  C14 UNL     1      25.755   1.433  54.477  1.00  0.00     0.015 C 
HETATM   15  C15 UNL     1      25.774   0.182  53.607  1.00  0.00     0.026 C 
HETATM   16  C16 UNL     1      24.855  -0.595  54.218  1.00  0.00     0.033 C 
HETATM   17  C17 UNL     1      26.966   0.705  52.949  1.00  0.00     0.036 C 
ENDROOT
BRANCH  17  18
HETATM   18  C18 UNL     1      28.401   0.651  52.590  1.00  0.00     0.136 C 
BRANCH  18  19
HETATM   19  N2  UNL     1      29.116   1.690  53.305  1.00  0.00    -0.367 N 
HETATM   20  H17 UNL     1      29.434   2.579  52.804  1.00  0.00     0.161 HD
BRANCH  19  21
HETATM   21  C19 UNL     1      29.325   1.378  54.697  1.00  0.00     0.348 C 
HETATM   22  O3  UNL     1      29.825   2.433  55.180  1.00  0.00    -0.284 OA
ENDBRANCH  19  21
ENDBRANCH  18  19
ENDBRANCH  17  18
BRANCH   1  23
HETATM   23  S1  UNL     1      22.144  -0.979  54.294  1.00  0.00     0.148 S 
HETATM   24  C1  UNL     1      20.880   0.191  54.664  1.00  0.00     0.162 C 
HETATM   25  O1  UNL     1      22.646  -1.508  55.632  1.00  0.00    -0.228 OA
HETATM   26  O2  UNL     1      21.567  -2.174  53.569  1.00  0.00    -0.228 OA
ENDBRANCH   1  23
TORSDOF 7
ENDMDL
MODEL 5
REMARK VINA RESULT:      -7.8      3.344      5.746
REMARK  7 active torsions:
REMARK  status: ('A' for Active; 'I' for Inactive)
REMARK    1  A    between atoms: S1_2  and  C2_5 
REMARK    2  A    between atoms: C6_9  and  C7_10 
REMARK    3  A    between atoms: C6_9  and  C12_16 
REMARK    4  A    between atoms: C12_16  and  C13_17 
REMARK    5  A    between atoms: C17_21  and  C18_22 
REMARK    6  A    between atoms: C18_22  and  N2_23 
REMARK    7  A    between atoms: N2_23  and  C19_24 
ROOT
HETATM    1  C2  UNL     1      24.844   3.667  50.390  1.00  0.00     0.131 C 
HETATM    2  C3  UNL     1      26.009   2.991  50.943  1.00  0.00    -0.009 C 
HETATM    3  C4  UNL     1      27.167   2.300  51.278  1.00  0.00     0.003 C 
HETATM    4  C5  UNL     1      27.433   2.239  52.810  1.00  0.00     0.209 A 
HETATM    5  C6  UNL     1      27.839   0.837  53.373  1.00  0.00     0.039 A 
HETATM    6  C7  UNL     1      27.425  -0.513  52.959  1.00  0.00     0.019 A 
HETATM    7  C8  UNL     1      26.124  -1.075  52.648  1.00  0.00     0.011 A 
HETATM    8  C9  UNL     1      25.877   0.285  52.974  1.00  0.00     0.046 A 
HETATM    9  C10 UNL     1      24.751   1.302  52.997  1.00  0.00     0.207 A 
HETATM   10  C11 UNL     1      25.043   2.676  53.359  1.00  0.00     0.153 A 
HETATM   11  N1  UNL     1      26.072   2.087  53.401  1.00  0.00    -0.004 N 
HETATM   12  C12 UNL     1      27.003   1.219  53.367  1.00  0.00     0.166 A 
HETATM   13  C13 UNL     1      28.195   1.997  53.728  1.00  0.00     0.072 A 
HETATM   14  C14 UNL     1      23.939   3.153  53.260  1.00  0.00     0.015 C 
HETATM   15  C15 UNL     1      23.567   2.475  51.947  1.00  0.00     0.026 C 
HETATM   16  C16 UNL     1      23.453   3.530  51.113  1.00  0.00     0.033 C 
HETATM   17  C17 UNL     1      23.367   1.235  52.688  1.00  0.00     0.036 C 
ENDROOT
BRANCH  17  18
HETATM   18  C18 UNL     1      22.529   0.123  53.190  1.00  0.00     0.136 C 
BRANCH  18  19
HETATM   19  N2  UNL     1      21.132   0.501  53.119  1.00  0.00    -0.367 N 
HETATM   20  H17 UNL     1      20.630   0.905  53.972  1.00  0.00     0.161 HD
BRANCH  19  21
HETATM   21  C19 UNL     1      20.549   0.271  51.820  1.00  0.00     0.348 C 
HETATM   22  O3  UNL     1      20.022   1.379  51.517  1.00  0.00    -0.284 OA
ENDBRANCH  19  21
ENDBRANCH  18  19
ENDBRANCH  17  18
BRANCH   1  23
HETATM   23  S1  UNL     1      25.013   5.156  49.556  1.00  0.00     0.148 S 
HETATM   24  C1  UNL     1      26.588   5.433  48.817  1.00  0.00     0.162 C 
HETATM   25  O1  UNL     1      24.814   6.271  50.576  1.00  0.00    -0.228 OA
HETATM   26  O2  UNL     1      23.909   5.328  48.537  1.00  0.00    -0.228 OA
ENDBRANCH   1  23
TORSDOF 7
ENDMDL
MODEL 6
REMARK VINA RESULT:      -7.7      2.262      4.821
REMARK  7 active torsions:
REMARK  status: ('A' for Active; 'I' for Inactive)
REMARK    1  A    between atoms: S1_2  and  C2_5 
REMARK    2  A    between atoms: C6_9  and  C7_10 
REMARK    3  A    between atoms: C6_9  and  C12_16 
REMARK    4  A    between atoms: C12_16  and  C13_17 
REMARK    5  A    between atoms: C17_21  and  C18_22 
REMARK    6  A    between atoms: C18_22  and  N2_23 
REMARK    7  A    between atoms: N2_23  and  C19_24 
ROOT
HETATM    1  C2  UNL     1      25.769   1.429  53.355  1.00  0.00     0.131 C 
HETATM    2  C3  UNL     1      25.314   2.382  52.353  1.00  0.00    -0.009 C 
HETATM    3  C4  UNL     1      24.968   3.433  51.512  1.00  0.00     0.003 C 
HETATM    4  C5  UNL     1      24.135   2.991  50.275  1.00  0.00     0.209 A 
HETATM    5  C6  UNL     1      22.882   3.868  49.951  1.00  0.00     0.039 A 
HETATM    6  C7  UNL     1      21.961   4.584  50.849  1.00  0.00     0.019 A 
HETATM    7  C8  UNL     1      21.297   4.183  52.076  1.00  0.00     0.011 A 
HETATM    8  C9  UNL     1      22.065   3.056  51.680  1.00  0.00     0.046 A 
HETATM    9  C10 UNL     1      22.464   1.676  52.168  1.00  0.00     0.207 A 
HETATM   10  C11 UNL     1      23.393   0.886  51.382  1.00  0.00     0.153 A 
HETATM   11  N1  UNL     1      23.250   1.915  50.808  1.00  0.00    -0.004 N 
HETATM   12  C12 UNL     1      22.908   3.079  50.421  1.00  0.00     0.166 A 
HETATM   13  C13 UNL     1      23.672   3.253  49.180  1.00  0.00     0.072 A 
HETATM   14  C14 UNL     1      23.459  -0.101  52.074  1.00  0.00     0.015 C 
HETATM   15  C15 UNL     1      23.573   0.623  53.410  1.00  0.00     0.026 C 
HETATM   16  C16 UNL     1      24.811   0.268  53.813  1.00  0.00     0.033 C 
HETATM   17  C17 UNL     1      22.148   0.920  53.328  1.00  0.00     0.036 C 
ENDROOT
BRANCH  17  18
HETATM   18  C18 UNL     1      20.752   0.814  53.809  1.00  0.00     0.136 C 
BRANCH  18  19
HETATM   19  N2  UNL     1      20.674  -0.196  54.846  1.00  0.00    -0.367 N 
HETATM   20  H17 UNL     1      20.451   0.073  55.856  1.00  0.00     0.161 HD
BRANCH  19  21
HETATM   21  C19 UNL     1      20.923  -1.529  54.357  1.00  0.00     0.348 C 
HETATM   22  O3  UNL     1      21.776  -2.001  55.161  1.00  0.00    -0.284 OA
ENDBRANCH  19  21
ENDBRANCH  18  19
ENDBRANCH  17  18
BRANCH   1  23
HETATM   23  S1  UNL     1      27.427   1.001  53.463  1.00  0.00     0.148 S 
HETATM   24  C1  UNL     1      27.812  -0.651  52.989  1.00  0.00     0.162 C 
HETATM   25  O1  UNL     1      27.835   1.136  54.925  1.00  0.00    -0.228 OA
HETATM   26  O2  UNL     1      28.286   1.987  52.703  1.00  0.00    -0.228 OA
ENDBRANCH   1  23
TORSDOF 7
ENDMDL
MODEL 7
REMARK VINA RESULT:      -7.7      3.305      6.037
REMARK  7 active torsions:
REMARK  status: ('A' for Active; 'I' for Inactive)
REMARK    1  A    between atoms: S1_2  and  C2_5 
REMARK    2  A    between atoms: C6_9  and  C7_10 
REMARK    3  A    between atoms: C6_9  and  C12_16 
REMARK    4  A    between atoms: C12_16  and  C13_17 
REMARK    5  A    between atoms: C17_21  and  C18_22 
REMARK    6  A    between atoms: C18_22  and  N2_23 
REMARK    7  A    between atoms: N2_23  and  C19_24 
ROOT
HETATM    1  C2  UNL     1      21.861   1.593  50.816  1.00  0.00     0.131 C 
HETATM    2  C3  UNL     1      22.478   2.795  50.276  1.00  0.00    -0.009 C 
HETATM    3  C4  UNL     1      23.007   3.875  49.579  1.00  0.00     0.003 C 
HETATM    4  C5  UNL     1      23.739   4.903  50.488  1.00  0.00     0.209 A 
HETATM    5  C6  UNL     1      25.131   5.396  49.972  1.00  0.00     0.039 A 
HETATM    6  C7  UNL     1      26.171   4.687  49.209  1.00  0.00     0.019 A 
HETATM    7  C8  UNL     1      26.755   3.367  49.363  1.00  0.00     0.011 A 
HETATM    8  C9  UNL     1      25.793   3.475  50.402  1.00  0.00     0.046 A 
HETATM    9  C10 UNL     1      25.151   2.646  51.498  1.00  0.00     0.207 A 
HETATM   10  C11 UNL     1      24.089   3.227  52.299  1.00  0.00     0.153 A 
HETATM   11  N1  UNL     1      24.415   4.054  51.512  1.00  0.00    -0.004 N 
HETATM   12  C12 UNL     1      24.962   4.729  50.582  1.00  0.00     0.166 A 
HETATM   13  C13 UNL     1      24.238   6.005  50.627  1.00  0.00     0.072 A 
HETATM   14  C14 UNL     1      23.847   2.295  53.026  1.00  0.00     0.015 C 
HETATM   15  C15 UNL     1      23.873   1.216  51.950  1.00  0.00     0.026 C 
HETATM   16  C16 UNL     1      22.592   0.789  51.955  1.00  0.00     0.033 C 
HETATM   17  C17 UNL     1      25.328   1.310  51.945  1.00  0.00     0.036 C 
ENDROOT
BRANCH  17  18
HETATM   18  C18 UNL     1      26.683   0.753  52.158  1.00  0.00     0.136 C 
BRANCH  18  19
HETATM   19  N2  UNL     1      26.636  -0.241  53.211  1.00  0.00    -0.367 N 
HETATM   20  H17 UNL     1      26.443  -1.268  52.987  1.00  0.00     0.161 HD
BRANCH  19  21
HETATM   21  C19 UNL     1      26.873   0.311  54.522  1.00  0.00     0.348 C 
HETATM   22  O3  UNL     1      26.217  -0.439  55.298  1.00  0.00    -0.284 OA
ENDBRANCH  19  21
ENDBRANCH  18  19
ENDBRANCH  17  18
BRANCH   1  23
HETATM   23  S1  UNL     1      20.153   1.449  50.897  1.00  0.00     0.148 S 
HETATM   24  C1  UNL     1      19.554   0.131  51.900  1.00  0.00     0.162 C 
HETATM   25  O1  UNL     1      19.654   1.176  49.483  1.00  0.00    -0.228 OA
HETATM   26  O2  UNL     1      19.523   2.761  51.310  1.00  0.00    -0.228 OA
ENDBRANCH   1  23
TORSDOF 7
ENDMDL
MODEL 8
REMARK VINA RESULT:      -7.6      3.334      5.655
REMARK  7 active torsions:
REMARK  status: ('A' for Active; 'I' for Inactive)
REMARK    1  A    between atoms: S1_2  and  C2_5 
REMARK    2  A    between atoms: C6_9  and  C7_10 
REMARK    3  A    between atoms: C6_9  and  C12_16 
REMARK    4  A    between atoms: C12_16  and  C13_17 
REMARK    5  A    between atoms: C17_21  and  C18_22 
REMARK    6  A    between atoms: C18_22  and  N2_23 
REMARK    7  A    between atoms: N2_23  and  C19_24 
ROOT
HETATM    1  C2  UNL     1      22.674   5.392  51.074  1.00  0.00     0.131 C 
HETATM    2  C3  UNL     1      21.865   4.216  50.787  1.00  0.00    -0.009 C 
HETATM    3  C4  UNL     1      20.946   3.189  50.614  1.00  0.00     0.003 C 
HETATM    4  C5  UNL     1      21.516   1.969  49.833  1.00  0.00     0.209 A 
HETATM    5  C6  UNL     1      21.201   0.565  50.443  1.00  0.00     0.039 A 
HETATM    6  C7  UNL     1      21.064   0.144  51.847  1.00  0.00     0.019 A 
HETATM    7  C8  UNL     1      21.871   0.414  53.023  1.00  0.00     0.011 A 
HETATM    8  C9  UNL     1      22.511   1.107  51.961  1.00  0.00     0.046 A 
HETATM    9  C10 UNL     1      23.655   2.070  51.708  1.00  0.00     0.207 A 
HETATM   10  C11 UNL     1      23.871   2.581  50.368  1.00  0.00     0.153 A 
HETATM   11  N1  UNL     1      22.924   1.867  50.313  1.00  0.00    -0.004 N 
HETATM   12  C12 UNL     1      21.965   1.064  50.548  1.00  0.00     0.166 A 
HETATM   13  C13 UNL     1      21.319   0.926  49.238  1.00  0.00     0.072 A 
HETATM   14  C14 UNL     1      24.828   3.288  50.569  1.00  0.00     0.015 C 
HETATM   15  C15 UNL     1      24.316   3.920  51.858  1.00  0.00     0.026 C 
HETATM   16  C16 UNL     1      24.180   5.214  51.497  1.00  0.00     0.033 C 
HETATM   17  C17 UNL     1      24.629   2.675  52.548  1.00  0.00     0.036 C 
ENDROOT
BRANCH  17  18
HETATM   18  C18 UNL     1      25.369   1.876  53.550  1.00  0.00     0.136 C 
BRANCH  18  19
HETATM   19  N2  UNL     1      26.604   2.553  53.891  1.00  0.00    -0.367 N 
HETATM   20  H17 UNL     1      26.593   3.455  54.464  1.00  0.00     0.161 HD
BRANCH  19  21
HETATM   21  C19 UNL     1      27.775   1.884  53.383  1.00  0.00     0.348 C 
HETATM   22  O3  UNL     1      28.060   2.516  52.327  1.00  0.00    -0.284 OA
ENDBRANCH  19  21
ENDBRANCH  18  19
ENDBRANCH  17  18
BRANCH   1  23
HETATM   23  S1  UNL     1      22.388   6.871  50.253  1.00  0.00     0.148 S 
HETATM   24  C1  UNL     1      23.680   8.061  50.370  1.00  0.00     0.162 C 
HETATM   25  O1  UNL     1      21.156   7.508  50.885  1.00  0.00    -0.228 OA
HETATM   26  O2  UNL     1      22.025   6.619  48.806  1.00  0.00    -0.228 OA
ENDBRANCH   1  23
TORSDOF 7
ENDMDL
MODEL 9
REMARK VINA RESULT:      -7.6      2.741      4.637
REMARK  7 active torsions:
REMARK  status: ('A' for Active; 'I' for Inactive)
REMARK    1  A    between atoms: S1_2  and  C2_5 
REMARK    2  A    between atoms: C6_9  and  C7_10 
REMARK    3  A    between atoms: C6_9  and  C12_16 
REMARK    4  A    between atoms: C12_16  and  C13_17 
REMARK    5  A    between atoms: C17_21  and  C18_22 
REMARK    6  A    between atoms: C18_22  and  N2_23 
REMARK    7  A    between atoms: N2_23  and  C19_24 
ROOT
HETATM    1  C2  UNL     1      25.059   0.891  53.495  1.00  0.00     0.131 C 
HETATM    2  C3  UNL     1      25.633   1.880  52.593  1.00  0.00    -0.009 C 
HETATM    3  C4  UNL     1      26.288   2.886  51.893  1.00  0.00     0.003 C 
HETATM    4  C5  UNL     1      25.847   2.996  50.405  1.00  0.00     0.209 A 
HETATM    5  C6  UNL     1      25.557   4.443  49.888  1.00  0.00     0.039 A 
HETATM    6  C7  UNL     1      24.992   5.610  50.586  1.00  0.00     0.019 A 
HETATM    7  C8  UNL     1      23.846   5.752  51.465  1.00  0.00     0.011 A 
HETATM    8  C9  UNL     1      23.884   4.376  51.117  1.00  0.00     0.046 A 
HETATM    9  C10 UNL     1      23.196   3.063  51.443  1.00  0.00     0.207 A 
HETATM   10  C11 UNL     1      23.684   1.837  50.840  1.00  0.00     0.153 A 
HETATM   11  N1  UNL     1      24.383   2.712  50.446  1.00  0.00    -0.004 N 
HETATM   12  C12 UNL     1      24.950   3.824  50.193  1.00  0.00     0.166 A 
HETATM   13  C13 UNL     1      26.041   3.442  49.289  1.00  0.00     0.072 A 
HETATM   14  C14 UNL     1      22.914   1.047  51.328  1.00  0.00     0.015 C 
HETATM   15  C15 UNL     1      22.960   1.604  52.746  1.00  0.00     0.026 C 
HETATM   16  C16 UNL     1      23.518   0.581  53.427  1.00  0.00     0.033 C 
HETATM   17  C17 UNL     1      22.120   2.708  52.298  1.00  0.00     0.036 C 
ENDROOT
BRANCH  17  18
HETATM   18  C18 UNL     1      20.870   3.501  52.315  1.00  0.00     0.136 C 
BRANCH  18  19
HETATM   19  N2  UNL     1      20.288   3.513  50.987  1.00  0.00    -0.367 N 
HETATM   20  H17 UNL     1      20.839   3.151  50.145  1.00  0.00     0.161 HD
BRANCH  19  21
HETATM   21  C19 UNL     1      18.949   4.045  50.961  1.00  0.00     0.348 C 
HETATM   22  O3  UNL     1      18.426   3.623  52.031  1.00  0.00    -0.284 OA
ENDBRANCH  19  21
ENDBRANCH  18  19
ENDBRANCH  17  18
BRANCH   1  23
HETATM   23  S1  UNL     1      25.984  -0.459  54.011  1.00  0.00     0.148 S 
HETATM   24  C1  UNL     1      26.567  -1.510  52.724  1.00  0.00     0.162 C 
HETATM   25  O1  UNL     1      25.081  -1.315  54.891  1.00  0.00    -0.228 OA
HETATM   26  O2  UNL     1      27.126  -0.019  54.899  1.00  0.00    -0.228 OA
ENDBRANCH   1  23
TORSDOF 7
ENDMDL
