MODEL 1
REMARK VINA RESULT:      -8.1      0.000      0.000
REMARK  3 active torsions:
REMARK  status: ('A' for Active; 'I' for Inactive)
REMARK    1  A    between atoms: O1_1  and  C1_2 
REMARK    2  A    between atoms: C9_11  and  N2_12 
REMARK    3  A    between atoms: N2_12  and  C10_13 
ROOT
HETATM    1  C1  UNL     1      28.559   0.714  53.245  1.00  0.00     0.067 C 
HETATM    2  C2  UNL     1      28.184  -0.590  53.182  1.00  0.00     0.039 C 
HETATM    3  C3  UNL     1      26.758  -1.074  53.207  1.00  0.00     0.036 C 
HETATM    4  C4  UNL     1      25.769  -0.356  53.712  1.00  0.00     0.061 C 
HETATM    5  C5  UNL     1      25.949   0.639  54.906  1.00  0.00     0.122 C 
HETATM    6  C6  UNL     1      26.445   1.731  53.906  1.00  0.00     0.018 C 
HETATM    7  C7  UNL     1      27.705   1.936  53.466  1.00  0.00     0.061 C 
HETATM    8  N1  UNL     1      25.545   2.594  53.165  1.00  0.00    -0.353 N 
HETATM    9  C8  UNL     1      24.254   2.103  52.650  1.00  0.00     0.133 A 
HETATM   10  C9  UNL     1      23.648   3.216  52.173  1.00  0.00     0.160 A 
HETATM   11  N3  UNL     1      22.469   2.919  51.616  1.00  0.00    -0.222 NA
HETATM   12  C16 UNL     1      21.989   1.664  51.562  1.00  0.00     0.238 A 
HETATM   13  N4  UNL     1      22.644   0.569  52.062  1.00  0.00    -0.215 NA
HETATM   14  C17 UNL     1      23.828   0.738  52.640  1.00  0.00     0.202 A 
HETATM   15  O2  UNL     1      24.479  -0.462  53.152  1.00  0.00    -0.294 OA
HETATM   16  H7  UNL     1      26.040   3.477  53.096  1.00  0.00     0.166 HD
ENDROOT
BRANCH  10  17
HETATM   17  N2  UNL     1      24.208   4.494  52.288  1.00  0.00    -0.339 N 
HETATM   18  H8  UNL     1      24.565   5.126  53.003  1.00  0.00     0.167 HD
BRANCH  17  19
HETATM   19  C10 UNL     1      24.369   5.237  51.092  1.00  0.00     0.035 A 
HETATM   20  C11 UNL     1      25.283   4.871  50.129  1.00  0.00     0.029 A 
HETATM   21  C12 UNL     1      25.475   5.533  48.937  1.00  0.00     0.004 A 
HETATM   22  C13 UNL     1      24.732   6.649  48.620  1.00  0.00     0.019 A 
HETATM   23  C14 UNL     1      23.801   7.068  49.535  1.00  0.00     0.013 A 
HETATM   24 BR1  UNL     1      22.702   8.592  49.242  1.00  0.00    -0.051 Br
HETATM   25  C15 UNL     1      23.648   6.375  50.709  1.00  0.00     0.048 A 
ENDBRANCH  17  19
ENDBRANCH  10  17
BRANCH   1  26
HETATM   26  O1  UNL     1      29.841   1.136  53.105  1.00  0.00    -0.361 OA
HETATM   27  H1  UNL     1      30.360   1.654  53.807  1.00  0.00     0.217 HD
ENDBRANCH   1  26
TORSDOF 3
ENDMDL
MODEL 2
REMARK VINA RESULT:      -8.1      1.506      1.850
REMARK  3 active torsions:
REMARK  status: ('A' for Active; 'I' for Inactive)
REMARK    1  A    between atoms: O1_1  and  C1_2 
REMARK    2  A    between atoms: C9_11  and  N2_12 
REMARK    3  A    between atoms: N2_12  and  C10_13 
ROOT
HETATM    1  C1  UNL     1      28.720   0.471  53.404  1.00  0.00     0.067 C 
HETATM    2  C2  UNL     1      27.968  -0.638  53.627  1.00  0.00     0.039 C 
HETATM    3  C3  UNL     1      26.474  -0.711  53.450  1.00  0.00     0.036 C 
HETATM    4  C4  UNL     1      25.698   0.360  53.482  1.00  0.00     0.061 C 
HETATM    5  C5  UNL     1      26.008   1.623  54.351  1.00  0.00     0.122 C 
HETATM    6  C6  UNL     1      26.959   2.148  53.229  1.00  0.00     0.018 C 
HETATM    7  C7  UNL     1      28.269   1.868  53.060  1.00  0.00     0.061 C 
HETATM    8  N1  UNL     1      26.491   2.903  52.083  1.00  0.00    -0.353 N 
HETATM    9  C8  UNL     1      25.198   2.606  51.439  1.00  0.00     0.133 A 
HETATM   10  C9  UNL     1      25.046   3.604  50.537  1.00  0.00     0.160 A 
HETATM   11  N3  UNL     1      23.926   3.441  49.824  1.00  0.00    -0.222 NA
HETATM   12  C16 UNL     1      23.091   2.405  50.017  1.00  0.00     0.238 A 
HETATM   13  N4  UNL     1      23.291   1.419  50.947  1.00  0.00    -0.215 NA
HETATM   14  C17 UNL     1      24.372   1.472  51.717  1.00  0.00     0.202 A 
HETATM   15  O2  UNL     1      24.534   0.396  52.686  1.00  0.00    -0.294 OA
HETATM   16  H7  UNL     1      27.242   3.556  51.885  1.00  0.00     0.166 HD
ENDROOT
BRANCH  10  17
HETATM   17  N2  UNL     1      25.956   4.661  50.413  1.00  0.00    -0.339 N 
HETATM   18  H8  UNL     1      26.948   4.853  50.540  1.00  0.00     0.167 HD
BRANCH  17  19
HETATM   19  C10 UNL     1      25.438   5.911  49.989  1.00  0.00     0.035 A 
HETATM   20  C11 UNL     1      24.728   6.727  50.840  1.00  0.00     0.029 A 
HETATM   21  C12 UNL     1      24.218   7.961  50.501  1.00  0.00     0.004 A 
HETATM   22  C13 UNL     1      24.393   8.475  49.235  1.00  0.00     0.019 A 
HETATM   23  C14 UNL     1      25.093   7.713  48.336  1.00  0.00     0.013 A 
HETATM   24 BR1  UNL     1      25.416   8.286  46.551  1.00  0.00    -0.051 Br
HETATM   25  C15 UNL     1      25.582   6.490  48.722  1.00  0.00     0.048 A 
ENDBRANCH  17  19
ENDBRANCH  10  17
BRANCH   1  26
HETATM   26  O1  UNL     1      30.076   0.485  53.457  1.00  0.00    -0.361 OA
HETATM   27  H1  UNL     1      30.645   1.324  53.502  1.00  0.00     0.217 HD
ENDBRANCH   1  26
TORSDOF 3
ENDMDL
MODEL 3
REMARK VINA RESULT:      -8.1      3.741      6.488
REMARK  3 active torsions:
REMARK  status: ('A' for Active; 'I' for Inactive)
REMARK    1  A    between atoms: O1_1  and  C1_2 
REMARK    2  A    between atoms: C9_11  and  N2_12 
REMARK    3  A    between atoms: N2_12  and  C10_13 
ROOT
HETATM    1  C1  UNL     1      21.364   0.002  52.703  1.00  0.00     0.067 C 
HETATM    2  C2  UNL     1      20.761   0.145  51.495  1.00  0.00     0.039 C 
HETATM    3  C3  UNL     1      21.180   1.134  50.438  1.00  0.00     0.036 C 
HETATM    4  C4  UNL     1      21.869   2.228  50.718  1.00  0.00     0.061 C 
HETATM    5  C5  UNL     1      21.737   3.007  52.067  1.00  0.00     0.122 C 
HETATM    6  C6  UNL     1      22.743   2.012  52.728  1.00  0.00     0.018 C 
HETATM    7  C7  UNL     1      22.466   0.828  53.315  1.00  0.00     0.061 C 
HETATM    8  N1  UNL     1      24.182   2.165  52.641  1.00  0.00    -0.353 N 
HETATM    9  C8  UNL     1      24.831   2.676  51.419  1.00  0.00     0.133 A 
HETATM   10  C9  UNL     1      26.129   2.825  51.777  1.00  0.00     0.160 A 
HETATM   11  N3  UNL     1      26.868   3.238  50.742  1.00  0.00    -0.222 NA
HETATM   12  C16 UNL     1      26.345   3.463  49.524  1.00  0.00     0.238 A 
HETATM   13  N4  UNL     1      25.021   3.296  49.213  1.00  0.00    -0.215 NA
HETATM   14  C17 UNL     1      24.186   2.888  50.161  1.00  0.00     0.202 A 
HETATM   15  O2  UNL     1      22.790   2.726  49.773  1.00  0.00    -0.294 OA
HETATM   16  H7  UNL     1      24.529   1.820  53.530  1.00  0.00     0.166 HD
ENDROOT
BRANCH  10  17
HETATM   17  N2  UNL     1      26.590   2.589  53.078  1.00  0.00    -0.339 N 
HETATM   18  H8  UNL     1      26.477   2.954  54.022  1.00  0.00     0.167 HD
BRANCH  17  19
HETATM   19  C10 UNL     1      27.519   1.532  53.250  1.00  0.00     0.035 A 
HETATM   20  C11 UNL     1      28.778   1.751  53.762  1.00  0.00     0.029 A 
HETATM   21  C12 UNL     1      29.719   0.768  53.977  1.00  0.00     0.004 A 
HETATM   22  C13 UNL     1      29.447  -0.549  53.680  1.00  0.00     0.019 A 
HETATM   23  C14 UNL     1      28.209  -0.838  53.167  1.00  0.00     0.013 A 
HETATM   24 BR1  UNL     1      27.687  -2.607  52.706  1.00  0.00    -0.051 Br
HETATM   25  C15 UNL     1      27.305   0.177  52.971  1.00  0.00     0.048 A 
ENDBRANCH  17  19
ENDBRANCH  10  17
BRANCH   1  26
HETATM   26  O1  UNL     1      21.046  -0.971  53.593  1.00  0.00    -0.361 OA
HETATM   27  H1  UNL     1      21.718  -1.570  54.063  1.00  0.00     0.217 HD
ENDBRANCH   1  26
TORSDOF 3
ENDMDL
MODEL 4
REMARK VINA RESULT:      -7.9      6.593      8.717
REMARK  3 active torsions:
REMARK  status: ('A' for Active; 'I' for Inactive)
REMARK    1  A    between atoms: O1_1  and  C1_2 
REMARK    2  A    between atoms: C9_11  and  N2_12 
REMARK    3  A    between atoms: N2_12  and  C10_13 
ROOT
HETATM    1  C1  UNL     1      33.136   2.623  47.185  1.00  0.00     0.067 C 
HETATM    2  C2  UNL     1      34.298   2.969  47.797  1.00  0.00     0.039 C 
HETATM    3  C3  UNL     1      34.666   4.370  48.210  1.00  0.00     0.036 C 
HETATM    4  C4  UNL     1      34.124   5.443  47.659  1.00  0.00     0.061 C 
HETATM    5  C5  UNL     1      33.653   5.500  46.168  1.00  0.00     0.122 C 
HETATM    6  C6  UNL     1      32.303   4.834  46.582  1.00  0.00     0.018 C 
HETATM    7  C7  UNL     1      32.030   3.514  46.680  1.00  0.00     0.061 C 
HETATM    8  N1  UNL     1      31.172   5.584  47.094  1.00  0.00    -0.353 N 
HETATM    9  C8  UNL     1      31.357   6.750  47.977  1.00  0.00     0.133 A 
HETATM   10  C9  UNL     1      30.111   7.264  48.103  1.00  0.00     0.160 A 
HETATM   11  N3  UNL     1      30.106   8.314  48.932  1.00  0.00    -0.222 NA
HETATM   12  C16 UNL     1      31.220   8.764  49.536  1.00  0.00     0.238 A 
HETATM   13  N4  UNL     1      32.461   8.206  49.373  1.00  0.00    -0.215 NA
HETATM   14  C17 UNL     1      32.592   7.155  48.572  1.00  0.00     0.202 A 
HETATM   15  O2  UNL     1      33.935   6.602  48.439  1.00  0.00    -0.294 OA
HETATM   16  H7  UNL     1      30.359   5.092  46.738  1.00  0.00     0.166 HD
ENDROOT
BRANCH  10  17
HETATM   17  N2  UNL     1      29.003   6.747  47.421  1.00  0.00    -0.339 N 
HETATM   18  H8  UNL     1      28.670   6.611  46.468  1.00  0.00     0.167 HD
BRANCH  17  19
HETATM   19  C10 UNL     1      27.945   6.229  48.209  1.00  0.00     0.035 A 
HETATM   20  C11 UNL     1      27.857   4.889  48.512  1.00  0.00     0.029 A 
HETATM   21  C12 UNL     1      26.871   4.323  49.289  1.00  0.00     0.004 A 
HETATM   22  C13 UNL     1      25.869   5.096  49.834  1.00  0.00     0.019 A 
HETATM   23  C14 UNL     1      25.897   6.441  49.572  1.00  0.00     0.013 A 
HETATM   24 BR1  UNL     1      24.583   7.636  50.252  1.00  0.00    -0.051 Br
HETATM   25  C15 UNL     1      26.901   6.958  48.791  1.00  0.00     0.048 A 
ENDBRANCH  17  19
ENDBRANCH  10  17
BRANCH   1  26
HETATM   26  O1  UNL     1      32.773   1.342  46.926  1.00  0.00    -0.361 OA
HETATM   27  H1  UNL     1      33.292   0.522  47.222  1.00  0.00     0.217 HD
ENDBRANCH   1  26
TORSDOF 3
ENDMDL
MODEL 5
REMARK VINA RESULT:      -7.8      3.191      6.436
REMARK  3 active torsions:
REMARK  status: ('A' for Active; 'I' for Inactive)
REMARK    1  A    between atoms: O1_1  and  C1_2 
REMARK    2  A    between atoms: C9_11  and  N2_12 
REMARK    3  A    between atoms: N2_12  and  C10_13 
ROOT
HETATM    1  C1  UNL     1      25.039   6.732  50.476  1.00  0.00     0.067 C 
HETATM    2  C2  UNL     1      24.040   7.604  50.769  1.00  0.00     0.039 C 
HETATM    3  C3  UNL     1      22.601   7.216  50.993  1.00  0.00     0.036 C 
HETATM    4  C4  UNL     1      22.082   6.096  50.519  1.00  0.00     0.061 C 
HETATM    5  C5  UNL     1      22.547   5.428  49.184  1.00  0.00     0.122 C 
HETATM    6  C6  UNL     1      23.726   4.746  49.949  1.00  0.00     0.018 C 
HETATM    7  C7  UNL     1      24.954   5.254  50.193  1.00  0.00     0.061 C 
HETATM    8  N1  UNL     1      23.586   3.494  50.667  1.00  0.00    -0.353 N 
HETATM    9  C8  UNL     1      22.354   3.162  51.404  1.00  0.00     0.133 A 
HETATM   10  C9  UNL     1      22.541   1.878  51.791  1.00  0.00     0.160 A 
HETATM   11  N3  UNL     1      21.513   1.442  52.529  1.00  0.00    -0.222 NA
HETATM   12  C16 UNL     1      20.454   2.217  52.819  1.00  0.00     0.238 A 
HETATM   13  N4  UNL     1      20.311   3.514  52.402  1.00  0.00    -0.215 NA
HETATM   14  C17 UNL     1      21.270   4.059  51.661  1.00  0.00     0.202 A 
HETATM   15  O2  UNL     1      21.066   5.442  51.247  1.00  0.00    -0.294 OA
HETATM   16  H7  UNL     1      24.481   3.032  50.547  1.00  0.00     0.166 HD
ENDROOT
BRANCH  10  17
HETATM   17  N2  UNL     1      23.669   1.131  51.427  1.00  0.00    -0.339 N 
HETATM   18  H8  UNL     1      24.066   0.670  50.610  1.00  0.00     0.167 HD
BRANCH  17  19
HETATM   19  C10 UNL     1      24.624   0.871  52.440  1.00  0.00     0.035 A 
HETATM   20  C11 UNL     1      24.435  -0.121  53.376  1.00  0.00     0.029 A 
HETATM   21  C12 UNL     1      25.331  -0.443  54.371  1.00  0.00     0.004 A 
HETATM   22  C13 UNL     1      26.522   0.238  54.497  1.00  0.00     0.019 A 
HETATM   23  C14 UNL     1      26.775   1.240  53.596  1.00  0.00     0.013 A 
HETATM   24 BR1  UNL     1      28.373   2.269  53.643  1.00  0.00    -0.051 Br
HETATM   25  C15 UNL     1      25.850   1.522  52.622  1.00  0.00     0.048 A 
ENDBRANCH  17  19
ENDBRANCH  10  17
BRANCH   1  26
HETATM   26  O1  UNL     1      26.346   7.085  50.392  1.00  0.00    -0.361 OA
HETATM   27  H1  UNL     1      27.070   6.785  51.038  1.00  0.00     0.217 HD
ENDBRANCH   1  26
TORSDOF 3
ENDMDL
MODEL 6
REMARK VINA RESULT:      -7.6      4.253      7.266
REMARK  3 active torsions:
REMARK  status: ('A' for Active; 'I' for Inactive)
REMARK    1  A    between atoms: O1_1  and  C1_2 
REMARK    2  A    between atoms: C9_11  and  N2_12 
REMARK    3  A    between atoms: N2_12  and  C10_13 
ROOT
HETATM    1  C1  UNL     1      30.467   6.805  48.615  1.00  0.00     0.067 C 
HETATM    2  C2  UNL     1      30.365   8.134  48.876  1.00  0.00     0.039 C 
HETATM    3  C3  UNL     1      29.067   8.868  49.096  1.00  0.00     0.036 C 
HETATM    4  C4  UNL     1      27.907   8.416  48.649  1.00  0.00     0.061 C 
HETATM    5  C5  UNL     1      27.757   7.579  47.337  1.00  0.00     0.122 C 
HETATM    6  C6  UNL     1      28.135   6.288  48.131  1.00  0.00     0.018 C 
HETATM    7  C7  UNL     1      29.371   5.800  48.373  1.00  0.00     0.061 C 
HETATM    8  N1  UNL     1      27.170   5.509  48.882  1.00  0.00    -0.353 N 
HETATM    9  C8  UNL     1      26.064   6.150  49.617  1.00  0.00     0.133 A 
HETATM   10  C9  UNL     1      25.307   5.111  50.041  1.00  0.00     0.160 A 
HETATM   11  N3  UNL     1      24.277   5.536  50.780  1.00  0.00    -0.222 NA
HETATM   12  C16 UNL     1      24.063   6.838  51.040  1.00  0.00     0.238 A 
HETATM   13  N4  UNL     1      24.861   7.854  50.585  1.00  0.00    -0.215 NA
HETATM   14  C17 UNL     1      25.918   7.555  49.839  1.00  0.00     0.202 A 
HETATM   15  O2  UNL     1      26.732   8.677  49.385  1.00  0.00    -0.294 OA
HETATM   16  H7  UNL     1      27.486   4.549  48.783  1.00  0.00     0.166 HD
ENDROOT
BRANCH  10  17
HETATM   17  N2  UNL     1      25.589   3.780  49.707  1.00  0.00    -0.339 N 
HETATM   18  H8  UNL     1      25.768   3.205  48.886  1.00  0.00     0.167 HD
BRANCH  17  19
HETATM   19  C10 UNL     1      25.664   2.851  50.774  1.00  0.00     0.035 A 
HETATM   20  C11 UNL     1      24.571   2.116  51.174  1.00  0.00     0.029 A 
HETATM   21  C12 UNL     1      24.581   1.181  52.185  1.00  0.00     0.004 A 
HETATM   22  C13 UNL     1      25.733   0.913  52.889  1.00  0.00     0.019 A 
HETATM   23  C14 UNL     1      26.862   1.609  52.542  1.00  0.00     0.013 A 
HETATM   24 BR1  UNL     1      28.528   1.351  53.422  1.00  0.00    -0.051 Br
HETATM   25  C15 UNL     1      26.802   2.531  51.526  1.00  0.00     0.048 A 
ENDBRANCH  17  19
ENDBRANCH  10  17
BRANCH   1  26
HETATM   26  O1  UNL     1      31.648   6.143  48.534  1.00  0.00    -0.361 OA
HETATM   27  H1  UNL     1      31.773   5.155  48.728  1.00  0.00     0.217 HD
ENDBRANCH   1  26
TORSDOF 3
ENDMDL
MODEL 7
REMARK VINA RESULT:      -7.5      3.323      4.411
REMARK  3 active torsions:
REMARK  status: ('A' for Active; 'I' for Inactive)
REMARK    1  A    between atoms: O1_1  and  C1_2 
REMARK    2  A    between atoms: C9_11  and  N2_12 
REMARK    3  A    between atoms: N2_12  and  C10_13 
ROOT
HETATM    1  C1  UNL     1      21.882  -1.290  54.594  1.00  0.00     0.067 C 
HETATM    2  C2  UNL     1      20.652  -1.713  54.203  1.00  0.00     0.039 C 
HETATM    3  C3  UNL     1      19.842  -1.088  53.098  1.00  0.00     0.036 C 
HETATM    4  C4  UNL     1      20.027   0.157  52.693  1.00  0.00     0.061 C 
HETATM    5  C5  UNL     1      20.500   1.309  53.640  1.00  0.00     0.122 C 
HETATM    6  C6  UNL     1      21.980   0.853  53.437  1.00  0.00     0.018 C 
HETATM    7  C7  UNL     1      22.658  -0.082  54.136  1.00  0.00     0.061 C 
HETATM    8  N1  UNL     1      22.794   1.279  52.314  1.00  0.00    -0.353 N 
HETATM    9  C8  UNL     1      22.218   1.461  50.969  1.00  0.00     0.133 A 
HETATM   10  C9  UNL     1      23.229   2.006  50.252  1.00  0.00     0.160 A 
HETATM   11  N3  UNL     1      22.872   2.184  48.976  1.00  0.00    -0.222 NA
HETATM   12  C16 UNL     1      21.654   1.850  48.513  1.00  0.00     0.238 A 
HETATM   13  N4  UNL     1      20.664   1.299  49.282  1.00  0.00    -0.215 NA
HETATM   14  C17 UNL     1      20.901   1.074  50.569  1.00  0.00     0.202 A 
HETATM   15  O2  UNL     1      19.811   0.485  51.338  1.00  0.00    -0.294 OA
HETATM   16  H7  UNL     1      23.732   1.350  52.694  1.00  0.00     0.166 HD
ENDROOT
BRANCH  10  17
HETATM   17  N2  UNL     1      24.464   2.346  50.818  1.00  0.00    -0.339 N 
HETATM   18  H8  UNL     1      25.105   2.021  51.540  1.00  0.00     0.167 HD
BRANCH  17  19
HETATM   19  C10 UNL     1      25.116   3.493  50.301  1.00  0.00     0.035 A 
HETATM   20  C11 UNL     1      26.268   3.397  49.554  1.00  0.00     0.029 A 
HETATM   21  C12 UNL     1      26.938   4.466  49.003  1.00  0.00     0.004 A 
HETATM   22  C13 UNL     1      26.478   5.753  49.174  1.00  0.00     0.019 A 
HETATM   23  C14 UNL     1      25.333   5.922  49.909  1.00  0.00     0.013 A 
HETATM   24 BR1  UNL     1      24.577   7.636  50.235  1.00  0.00    -0.051 Br
HETATM   25  C15 UNL     1      24.701   4.824  50.438  1.00  0.00     0.048 A 
ENDBRANCH  17  19
ENDBRANCH  10  17
BRANCH   1  26
HETATM   26  O1  UNL     1      22.644  -1.936  55.512  1.00  0.00    -0.361 OA
HETATM   27  H1  UNL     1      22.283  -2.422  56.326  1.00  0.00     0.217 HD
ENDBRANCH   1  26
TORSDOF 3
ENDMDL
MODEL 8
REMARK VINA RESULT:      -7.5      4.886      7.601
REMARK  3 active torsions:
REMARK  status: ('A' for Active; 'I' for Inactive)
REMARK    1  A    between atoms: O1_1  and  C1_2 
REMARK    2  A    between atoms: C9_11  and  N2_12 
REMARK    3  A    between atoms: N2_12  and  C10_13 
ROOT
HETATM    1  C1  UNL     1      31.728   5.693  48.775  1.00  0.00     0.067 C 
HETATM    2  C2  UNL     1      32.321   6.802  49.287  1.00  0.00     0.039 C 
HETATM    3  C3  UNL     1      31.645   8.139  49.451  1.00  0.00     0.036 C 
HETATM    4  C4  UNL     1      30.585   8.494  48.743  1.00  0.00     0.061 C 
HETATM    5  C5  UNL     1      30.327   8.011  47.278  1.00  0.00     0.122 C 
HETATM    6  C6  UNL     1      29.711   6.689  47.835  1.00  0.00     0.018 C 
HETATM    7  C7  UNL     1      30.360   5.549  48.159  1.00  0.00     0.061 C 
HETATM    8  N1  UNL     1      28.325   6.571  48.246  1.00  0.00    -0.353 N 
HETATM    9  C8  UNL     1      27.623   7.680  48.917  1.00  0.00     0.133 A 
HETATM   10  C9  UNL     1      26.339   7.257  48.991  1.00  0.00     0.160 A 
HETATM   11  N3  UNL     1      25.575   8.147  49.633  1.00  0.00    -0.222 NA
HETATM   12  C16 UNL     1      26.065   9.300  50.122  1.00  0.00     0.238 A 
HETATM   13  N4  UNL     1      27.376   9.683  50.020  1.00  0.00    -0.215 NA
HETATM   14  C17 UNL     1      28.234   8.879  49.402  1.00  0.00     0.202 A 
HETATM   15  O2  UNL     1      29.616   9.337  49.325  1.00  0.00    -0.294 OA
HETATM   16  H7  UNL     1      28.067   5.621  48.001  1.00  0.00     0.166 HD
ENDROOT
BRANCH  10  17
HETATM   17  N2  UNL     1      25.905   6.047  48.436  1.00  0.00    -0.339 N 
HETATM   18  H8  UNL     1      25.669   5.647  47.529  1.00  0.00     0.167 HD
BRANCH  17  19
HETATM   19  C10 UNL     1      25.688   4.968  49.330  1.00  0.00     0.035 A 
HETATM   20  C11 UNL     1      26.589   3.935  49.452  1.00  0.00     0.029 A 
HETATM   21  C12 UNL     1      26.452   2.872  50.315  1.00  0.00     0.004 A 
HETATM   22  C13 UNL     1      25.357   2.771  51.144  1.00  0.00     0.019 A 
HETATM   23  C14 UNL     1      24.418   3.768  51.075  1.00  0.00     0.013 A 
HETATM   24 BR1  UNL     1      22.852   3.767  52.154  1.00  0.00    -0.051 Br
HETATM   25  C15 UNL     1      24.601   4.808  50.198  1.00  0.00     0.048 A 
ENDBRANCH  17  19
ENDBRANCH  10  17
BRANCH   1  26
HETATM   26  O1  UNL     1      32.316   4.471  48.742  1.00  0.00    -0.361 OA
HETATM   27  H1  UNL     1      31.830   3.598  48.565  1.00  0.00     0.217 HD
ENDBRANCH   1  26
TORSDOF 3
ENDMDL
MODEL 9
REMARK VINA RESULT:      -7.5      3.711      7.204
REMARK  3 active torsions:
REMARK  status: ('A' for Active; 'I' for Inactive)
REMARK    1  A    between atoms: O1_1  and  C1_2 
REMARK    2  A    between atoms: C9_11  and  N2_12 
REMARK    3  A    between atoms: N2_12  and  C10_13 
ROOT
HETATM    1  C1  UNL     1      19.923   3.737  51.492  1.00  0.00     0.067 C 
HETATM    2  C2  UNL     1      19.730   4.332  50.286  1.00  0.00     0.039 C 
HETATM    3  C3  UNL     1      20.815   4.986  49.470  1.00  0.00     0.036 C 
HETATM    4  C4  UNL     1      21.942   5.426  50.003  1.00  0.00     0.061 C 
HETATM    5  C5  UNL     1      22.045   5.989  51.458  1.00  0.00     0.122 C 
HETATM    6  C6  UNL     1      22.171   4.530  52.001  1.00  0.00     0.018 C 
HETATM    7  C7  UNL     1      21.171   3.684  52.334  1.00  0.00     0.061 C 
HETATM    8  N1  UNL     1      23.429   3.812  52.061  1.00  0.00    -0.353 N 
HETATM    9  C8  UNL     1      24.454   3.964  51.012  1.00  0.00     0.133 A 
HETATM   10  C9  UNL     1      25.519   3.281  51.494  1.00  0.00     0.160 A 
HETATM   11  N3  UNL     1      26.529   3.282  50.617  1.00  0.00    -0.222 NA
HETATM   12  C16 UNL     1      26.450   3.897  49.424  1.00  0.00     0.238 A 
HETATM   13  N4  UNL     1      25.346   4.577  48.982  1.00  0.00    -0.215 NA
HETATM   14  C17 UNL     1      24.276   4.646  49.768  1.00  0.00     0.202 A 
HETATM   15  O2  UNL     1      23.131   5.380  49.244  1.00  0.00    -0.294 OA
HETATM   16  H7  UNL     1      23.356   3.239  52.895  1.00  0.00     0.166 HD
ENDROOT
BRANCH  10  17
HETATM   17  N2  UNL     1      25.529   2.685  52.762  1.00  0.00    -0.339 N 
HETATM   18  H8  UNL     1      25.227   2.879  53.715  1.00  0.00     0.167 HD
BRANCH  17  19
HETATM   19  C10 UNL     1      26.129   1.405  52.867  1.00  0.00     0.035 A 
HETATM   20  C11 UNL     1      25.404   0.248  52.689  1.00  0.00     0.029 A 
HETATM   21  C12 UNL     1      25.928  -1.024  52.755  1.00  0.00     0.004 A 
HETATM   22  C13 UNL     1      27.266  -1.225  53.014  1.00  0.00     0.019 A 
HETATM   23  C14 UNL     1      28.047  -0.114  53.201  1.00  0.00     0.013 A 
HETATM   24 BR1  UNL     1      29.909  -0.231  53.569  1.00  0.00    -0.051 Br
HETATM   25  C15 UNL     1      27.478   1.133  53.126  1.00  0.00     0.048 A 
ENDBRANCH  17  19
ENDBRANCH  10  17
BRANCH   1  26
HETATM   26  O1  UNL     1      18.958   3.053  52.157  1.00  0.00    -0.361 OA
HETATM   27  H1  UNL     1      18.011   2.912  51.819  1.00  0.00     0.217 HD
ENDBRANCH   1  26
TORSDOF 3
ENDMDL
