MODEL 1
REMARK VINA RESULT:      -9.2      0.000      0.000
REMARK  7 active torsions:
REMARK  status: ('A' for Active; 'I' for Inactive)
REMARK    1  A    between atoms: C7_7  and  N1_8 
REMARK    2  A    between atoms: N1_8  and  C8_9 
REMARK    3  A    between atoms: C9_10  and  C10_11 
REMARK       I    between atoms: C10_11  and  N2_13 
REMARK    4  A    between atoms: N2_13  and  C11_14 
REMARK    5  A    between atoms: C14_17  and  C15_18 
REMARK    6  A    between atoms: C15_18  and  N3_19 
REMARK    7  A    between atoms: C23_28  and  O2_29 
ROOT
HETATM    1  C8  UNL     1      24.652   1.003  52.151  1.00  0.00     0.050 A 
HETATM    2  C9  UNL     1      24.127   2.133  51.761  1.00  0.00     0.084 A 
HETATM    3  C23 UNL     1      22.751   2.523  52.157  1.00  0.00     0.259 A 
HETATM    4  N5  UNL     1      22.198   1.478  52.978  1.00  0.00    -0.369 N 
HETATM    5  C24 UNL     1      22.726   0.238  53.427  1.00  0.00     0.088 A 
HETATM    6  C25 UNL     1      23.961   0.037  52.990  1.00  0.00     0.047 A 
HETATM    7  H29 UNL     1      21.229   1.778  53.241  1.00  0.00     0.161 HD
ENDROOT
BRANCH   2   8
HETATM    8  C10 UNL     1      24.747   3.150  50.925  1.00  0.00     0.258 C 
HETATM    9  O1  UNL     1      25.302   4.198  51.355  1.00  0.00    -0.267 OA
HETATM   10  N2  UNL     1      24.894   3.251  49.515  1.00  0.00    -0.323 N 
HETATM   11  H9  UNL     1      24.502   2.482  48.944  1.00  0.00     0.169 HD
BRANCH  10  12
HETATM   12  C11 UNL     1      25.581   4.442  49.134  1.00  0.00     0.035 A 
HETATM   13  C12 UNL     1      24.961   5.641  48.902  1.00  0.00     0.030 A 
HETATM   14  C13 UNL     1      25.753   6.713  48.540  1.00  0.00     0.011 A 
HETATM   15  C14 UNL     1      27.140   6.677  48.390  1.00  0.00    -0.030 A 
HETATM   16  C21 UNL     1      27.702   5.433  48.640  1.00  0.00     0.011 A 
HETATM   17  C22 UNL     1      26.953   4.345  49.001  1.00  0.00     0.030 A 
BRANCH  15  18
HETATM   18  C15 UNL     1      27.867   7.888  48.001  1.00  0.00     0.311 C 
BRANCH  18  19
HETATM   19  N3  UNL     1      28.535   8.450  49.132  1.00  0.00     0.096 N 
HETATM   20  C16 UNL     1      27.923   9.620  49.690  1.00  0.00     0.303 C 
HETATM   21  C17 UNL     1      28.080  10.837  48.834  1.00  0.00     0.302 C 
HETATM   22  N4  UNL     1      29.434  10.989  48.335  1.00  0.00     0.087 N 
HETATM   23  C18 UNL     1      29.932  12.333  48.664  1.00  0.00     0.310 C 
HETATM   24  C19 UNL     1      30.359  10.071  48.975  1.00  0.00     0.302 C 
HETATM   25  C20 UNL     1      29.952   8.635  48.879  1.00  0.00     0.303 C 
ENDBRANCH  18  19
ENDBRANCH  15  18
ENDBRANCH  10  12
ENDBRANCH   2   8
BRANCH   1  26
HETATM   26  N1  UNL     1      25.945   0.595  51.802  1.00  0.00    -0.355 N 
HETATM   27  H8  UNL     1      25.792   0.251  50.841  1.00  0.00     0.166 HD
BRANCH  26  28
HETATM   28  C7  UNL     1      27.074   0.689  52.673  1.00  0.00     0.038 A 
HETATM   29  C2  UNL     1      27.734  -0.402  53.208  1.00  0.00    -0.035 A 
HETATM   30  C1  UNL     1      27.168  -1.739  52.802  1.00  0.00     0.050 C 
HETATM   31  C3  UNL     1      28.829  -0.234  54.051  1.00  0.00     0.009 A 
HETATM   32  C4  UNL     1      29.252   1.026  54.348  1.00  0.00     0.001 A 
HETATM   33  C5  UNL     1      28.590   2.102  53.812  1.00  0.00     0.002 A 
HETATM   34  C6  UNL     1      27.497   1.967  52.969  1.00  0.00     0.030 A 
ENDBRANCH  26  28
ENDBRANCH   1  26
BRANCH   3  35
HETATM   35  O2  UNL     1      21.922   2.678  51.048  1.00  0.00    -0.372 OA
HETATM   36  H28 UNL     1      21.956   1.884  50.467  1.00  0.00     0.212 HD
ENDBRANCH   3  35
TORSDOF 7
ENDMDL
MODEL 2
REMARK VINA RESULT:      -8.5      1.662      2.300
REMARK  7 active torsions:
REMARK  status: ('A' for Active; 'I' for Inactive)
REMARK    1  A    between atoms: C7_7  and  N1_8 
REMARK    2  A    between atoms: N1_8  and  C8_9 
REMARK    3  A    between atoms: C9_10  and  C10_11 
REMARK       I    between atoms: C10_11  and  N2_13 
REMARK    4  A    between atoms: N2_13  and  C11_14 
REMARK    5  A    between atoms: C14_17  and  C15_18 
REMARK    6  A    between atoms: C15_18  and  N3_19 
REMARK    7  A    between atoms: C23_28  and  O2_29 
ROOT
HETATM    1  C8  UNL     1      23.563   1.044  52.847  1.00  0.00     0.050 A 
HETATM    2  C9  UNL     1      23.203   1.666  51.757  1.00  0.00     0.084 A 
HETATM    3  C23 UNL     1      21.884   1.416  51.124  1.00  0.00     0.259 A 
HETATM    4  N5  UNL     1      21.179   0.437  51.910  1.00  0.00    -0.369 N 
HETATM    5  C24 UNL     1      21.526  -0.264  53.096  1.00  0.00     0.088 A 
HETATM    6  C25 UNL     1      22.731   0.070  53.534  1.00  0.00     0.047 A 
HETATM    7  H29 UNL     1      20.255   0.279  51.441  1.00  0.00     0.161 HD
ENDROOT
BRANCH   2   8
HETATM    8  C10 UNL     1      23.971   2.650  51.010  1.00  0.00     0.258 C 
HETATM    9  O1  UNL     1      24.644   3.584  51.526  1.00  0.00    -0.267 OA
HETATM   10  N2  UNL     1      24.171   2.830  49.614  1.00  0.00    -0.323 N 
HETATM   11  H9  UNL     1      23.700   2.160  48.981  1.00  0.00     0.169 HD
BRANCH  10  12
HETATM   12  C11 UNL     1      25.015   3.945  49.335  1.00  0.00     0.035 A 
HETATM   13  C12 UNL     1      24.555   5.218  49.125  1.00  0.00     0.030 A 
HETATM   14  C13 UNL     1      25.488   6.203  48.865  1.00  0.00     0.011 A 
HETATM   15  C14 UNL     1      26.869   6.008  48.797  1.00  0.00    -0.030 A 
HETATM   16  C21 UNL     1      27.265   4.697  49.019  1.00  0.00     0.011 A 
HETATM   17  C22 UNL     1      26.372   3.692  49.280  1.00  0.00     0.030 A 
BRANCH  15  18
HETATM   18  C15 UNL     1      27.755   7.140  48.513  1.00  0.00     0.311 C 
BRANCH  18  19
HETATM   19  N3  UNL     1      28.823   6.730  47.658  1.00  0.00     0.096 N 
HETATM   20  C16 UNL     1      30.068   6.458  48.316  1.00  0.00     0.303 C 
HETATM   21  C17 UNL     1      30.762   7.691  48.803  1.00  0.00     0.302 C 
HETATM   22  N4  UNL     1      30.771   8.748  47.809  1.00  0.00     0.087 N 
HETATM   23  C18 UNL     1      32.149   9.216  47.601  1.00  0.00     0.310 C 
HETATM   24  C19 UNL     1      30.325   8.280  46.509  1.00  0.00     0.302 C 
HETATM   25  C20 UNL     1      28.979   7.627  46.529  1.00  0.00     0.303 C 
ENDBRANCH  18  19
ENDBRANCH  15  18
ENDBRANCH  10  12
ENDBRANCH   2   8
BRANCH   1  26
HETATM   26  N1  UNL     1      24.796   1.249  53.477  1.00  0.00    -0.355 N 
HETATM   27  H8  UNL     1      24.596   2.094  54.037  1.00  0.00     0.166 HD
BRANCH  26  28
HETATM   28  C7  UNL     1      25.941   0.418  53.279  1.00  0.00     0.038 A 
HETATM   29  C2  UNL     1      27.248   0.864  53.361  1.00  0.00    -0.035 A 
HETATM   30  C1  UNL     1      27.391   2.329  53.680  1.00  0.00     0.050 C 
HETATM   31  C3  UNL     1      28.315  -0.006  53.155  1.00  0.00     0.009 A 
HETATM   32  C4  UNL     1      28.063  -1.313  52.871  1.00  0.00     0.001 A 
HETATM   33  C5  UNL     1      26.763  -1.746  52.793  1.00  0.00     0.002 A 
HETATM   34  C6  UNL     1      25.679  -0.905  52.993  1.00  0.00     0.030 A 
ENDBRANCH  26  28
ENDBRANCH   1  26
BRANCH   3  35
HETATM   35  O2  UNL     1      22.021   0.909  49.834  1.00  0.00    -0.372 OA
HETATM   36  H28 UNL     1      21.160   0.917  49.357  1.00  0.00     0.212 HD
ENDBRANCH   3  35
TORSDOF 7
ENDMDL
MODEL 3
REMARK VINA RESULT:      -8.5      3.184      5.370
REMARK  7 active torsions:
REMARK  status: ('A' for Active; 'I' for Inactive)
REMARK    1  A    between atoms: C7_7  and  N1_8 
REMARK    2  A    between atoms: N1_8  and  C8_9 
REMARK    3  A    between atoms: C9_10  and  C10_11 
REMARK       I    between atoms: C10_11  and  N2_13 
REMARK    4  A    between atoms: N2_13  and  C11_14 
REMARK    5  A    between atoms: C14_17  and  C15_18 
REMARK    6  A    between atoms: C15_18  and  N3_19 
REMARK    7  A    between atoms: C23_28  and  O2_29 
ROOT
HETATM    1  C8  UNL     1      26.289   0.244  53.152  1.00  0.00     0.050 A 
HETATM    2  C9  UNL     1      26.780   1.392  52.770  1.00  0.00     0.084 A 
HETATM    3  C23 UNL     1      28.043   1.921  53.343  1.00  0.00     0.259 A 
HETATM    4  N5  UNL     1      28.536   0.976  54.310  1.00  0.00    -0.369 N 
HETATM    5  C24 UNL     1      28.040  -0.278  54.758  1.00  0.00     0.088 A 
HETATM    6  C25 UNL     1      26.910  -0.609  54.152  1.00  0.00     0.047 A 
HETATM    7  H29 UNL     1      29.424   1.374  54.699  1.00  0.00     0.161 HD
ENDROOT
BRANCH   2   8
HETATM    8  C10 UNL     1      26.223   2.303  51.781  1.00  0.00     0.258 C 
HETATM    9  O1  UNL     1      25.350   3.182  52.019  1.00  0.00    -0.267 OA
HETATM   10  N2  UNL     1      26.476   2.456  50.391  1.00  0.00    -0.323 N 
HETATM   11  H9  UNL     1      27.177   1.822  49.967  1.00  0.00     0.169 HD
BRANCH  10  12
HETATM   12  C11 UNL     1      25.686   3.494  49.815  1.00  0.00     0.035 A 
HETATM   13  C12 UNL     1      24.369   3.348  49.466  1.00  0.00     0.030 A 
HETATM   14  C13 UNL     1      23.726   4.441  48.918  1.00  0.00     0.011 A 
HETATM   15  C14 UNL     1      24.308   5.688  48.689  1.00  0.00    -0.030 A 
HETATM   16  C21 UNL     1      25.642   5.766  49.065  1.00  0.00     0.011 A 
HETATM   17  C22 UNL     1      26.316   4.707  49.611  1.00  0.00     0.030 A 
BRANCH  15  18
HETATM   18  C15 UNL     1      23.515   6.770  48.100  1.00  0.00     0.311 C 
BRANCH  18  19
HETATM   19  N3  UNL     1      23.464   7.888  48.989  1.00  0.00     0.096 N 
HETATM   20  C16 UNL     1      22.807   7.648  50.241  1.00  0.00     0.303 C 
HETATM   21  C17 UNL     1      21.322   7.518  50.116  1.00  0.00     0.302 C 
HETATM   22  N4  UNL     1      20.748   8.548  49.269  1.00  0.00     0.087 N 
HETATM   23  C18 UNL     1      19.664   9.231  49.990  1.00  0.00     0.310 C 
HETATM   24  C19 UNL     1      21.708   9.588  48.947  1.00  0.00     0.302 C 
HETATM   25  C20 UNL     1      22.969   9.078  48.324  1.00  0.00     0.303 C 
ENDBRANCH  18  19
ENDBRANCH  15  18
ENDBRANCH  10  12
ENDBRANCH   2   8
BRANCH   1  26
HETATM   26  N1  UNL     1      25.101  -0.293  52.638  1.00  0.00    -0.355 N 
HETATM   27  H8  UNL     1      25.404  -0.573  51.691  1.00  0.00     0.166 HD
BRANCH  26  28
HETATM   28  C7  UNL     1      23.873  -0.352  53.364  1.00  0.00     0.038 A 
HETATM   29  C2  UNL     1      22.698   0.251  52.953  1.00  0.00    -0.035 A 
HETATM   30  C1  UNL     1      22.801   0.999  51.649  1.00  0.00     0.050 C 
HETATM   31  C3  UNL     1      21.536   0.151  53.714  1.00  0.00     0.009 A 
HETATM   32  C4  UNL     1      21.564  -0.553  54.879  1.00  0.00     0.001 A 
HETATM   33  C5  UNL     1      22.734  -1.148  55.278  1.00  0.00     0.002 A 
HETATM   34  C6  UNL     1      23.907  -1.067  54.543  1.00  0.00     0.030 A 
ENDBRANCH  26  28
ENDBRANCH   1  26
BRANCH   3  35
HETATM   35  O2  UNL     1      27.840   3.134  53.998  1.00  0.00    -0.372 OA
HETATM   36  H28 UNL     1      27.364   3.773  53.421  1.00  0.00     0.212 HD
ENDBRANCH   3  35
TORSDOF 7
ENDMDL
MODEL 4
REMARK VINA RESULT:      -8.3      1.869      2.650
REMARK  7 active torsions:
REMARK  status: ('A' for Active; 'I' for Inactive)
REMARK    1  A    between atoms: C7_7  and  N1_8 
REMARK    2  A    between atoms: N1_8  and  C8_9 
REMARK    3  A    between atoms: C9_10  and  C10_11 
REMARK       I    between atoms: C10_11  and  N2_13 
REMARK    4  A    between atoms: N2_13  and  C11_14 
REMARK    5  A    between atoms: C14_17  and  C15_18 
REMARK    6  A    between atoms: C15_18  and  N3_19 
REMARK    7  A    between atoms: C23_28  and  O2_29 
ROOT
HETATM    1  C8  UNL     1      22.638   1.612  51.380  1.00  0.00     0.050 A 
HETATM    2  C9  UNL     1      22.792   2.280  50.269  1.00  0.00     0.084 A 
HETATM    3  C23 UNL     1      21.788   2.206  49.178  1.00  0.00     0.259 A 
HETATM    4  N5  UNL     1      20.730   1.323  49.590  1.00  0.00    -0.369 N 
HETATM    5  C24 UNL     1      20.518   0.578  50.782  1.00  0.00     0.088 A 
HETATM    6  C25 UNL     1      21.499   0.750  51.654  1.00  0.00     0.047 A 
HETATM    7  H29 UNL     1      20.038   1.289  48.803  1.00  0.00     0.161 HD
ENDROOT
BRANCH   2   8
HETATM    8  C10 UNL     1      23.896   3.159  49.916  1.00  0.00     0.258 C 
HETATM    9  O1  UNL     1      24.362   3.302  48.752  1.00  0.00    -0.267 OA
HETATM   10  N2  UNL     1      24.697   4.031  50.703  1.00  0.00    -0.323 N 
HETATM   11  H9  UNL     1      24.488   4.076  51.716  1.00  0.00     0.169 HD
BRANCH  10  12
HETATM   12  C11 UNL     1      25.678   4.707  49.919  1.00  0.00     0.035 A 
HETATM   13  C12 UNL     1      26.813   4.112  49.436  1.00  0.00     0.030 A 
HETATM   14  C13 UNL     1      27.677   4.889  48.689  1.00  0.00     0.011 A 
HETATM   15  C14 UNL     1      27.490   6.238  48.385  1.00  0.00    -0.030 A 
HETATM   16  C21 UNL     1      26.322   6.777  48.906  1.00  0.00     0.011 A 
HETATM   17  C22 UNL     1      25.439   6.041  49.650  1.00  0.00     0.030 A 
BRANCH  15  18
HETATM   18  C15 UNL     1      28.484   6.952  47.580  1.00  0.00     0.311 C 
BRANCH  18  19
HETATM   19  N3  UNL     1      29.639   7.249  48.368  1.00  0.00     0.096 N 
HETATM   20  C16 UNL     1      29.685   8.574  48.916  1.00  0.00     0.303 C 
HETATM   21  C17 UNL     1      29.956   9.630  47.892  1.00  0.00     0.302 C 
HETATM   22  N4  UNL     1      31.035   9.261  46.993  1.00  0.00     0.087 N 
HETATM   23  C18 UNL     1      32.041  10.333  46.967  1.00  0.00     0.310 C 
HETATM   24  C19 UNL     1      31.745   8.080  47.447  1.00  0.00     0.302 C 
HETATM   25  C20 UNL     1      30.864   6.893  47.678  1.00  0.00     0.303 C 
ENDBRANCH  18  19
ENDBRANCH  15  18
ENDBRANCH  10  12
ENDBRANCH   2   8
BRANCH   1  26
HETATM   26  N1  UNL     1      23.558   1.652  52.435  1.00  0.00    -0.355 N 
HETATM   27  H8  UNL     1      23.202   2.453  52.980  1.00  0.00     0.166 HD
BRANCH  26  28
HETATM   28  C7  UNL     1      24.658   0.750  52.569  1.00  0.00     0.038 A 
HETATM   29  C2  UNL     1      24.646  -0.376  53.372  1.00  0.00    -0.035 A 
HETATM   30  C1  UNL     1      23.358  -0.597  54.122  1.00  0.00     0.050 C 
HETATM   31  C3  UNL     1      25.757  -1.210  53.453  1.00  0.00     0.009 A 
HETATM   32  C4  UNL     1      26.869  -0.908  52.728  1.00  0.00     0.001 A 
HETATM   33  C5  UNL     1      26.871   0.211  51.933  1.00  0.00     0.002 A 
HETATM   34  C6  UNL     1      25.781   1.061  51.831  1.00  0.00     0.030 A 
ENDBRANCH  26  28
ENDBRANCH   1  26
BRANCH   3  35
HETATM   35  O2  UNL     1      22.341   1.692  48.007  1.00  0.00    -0.372 OA
HETATM   36  H28 UNL     1      22.415   2.387  47.314  1.00  0.00     0.212 HD
ENDBRANCH   3  35
TORSDOF 7
ENDMDL
MODEL 5
REMARK VINA RESULT:      -8.2      1.927      2.133
REMARK  7 active torsions:
REMARK  status: ('A' for Active; 'I' for Inactive)
REMARK    1  A    between atoms: C7_7  and  N1_8 
REMARK    2  A    between atoms: N1_8  and  C8_9 
REMARK    3  A    between atoms: C9_10  and  C10_11 
REMARK       I    between atoms: C10_11  and  N2_13 
REMARK    4  A    between atoms: N2_13  and  C11_14 
REMARK    5  A    between atoms: C14_17  and  C15_18 
REMARK    6  A    between atoms: C15_18  and  N3_19 
REMARK    7  A    between atoms: C23_28  and  O2_29 
ROOT
HETATM    1  C8  UNL     1      24.478   0.661  52.470  1.00  0.00     0.050 A 
HETATM    2  C9  UNL     1      23.699   1.688  52.261  1.00  0.00     0.084 A 
HETATM    3  C23 UNL     1      22.342   1.762  52.858  1.00  0.00     0.259 A 
HETATM    4  N5  UNL     1      22.118   0.568  53.631  1.00  0.00    -0.369 N 
HETATM    5  C24 UNL     1      22.929  -0.570  53.887  1.00  0.00     0.088 A 
HETATM    6  C25 UNL     1      24.106  -0.484  53.286  1.00  0.00     0.047 A 
HETATM    7  H29 UNL     1      21.155   0.646  54.038  1.00  0.00     0.161 HD
ENDROOT
BRANCH   2   8
HETATM    8  C10 UNL     1      23.992   2.867  51.462  1.00  0.00     0.258 C 
HETATM    9  O1  UNL     1      23.695   3.007  50.244  1.00  0.00    -0.267 OA
HETATM   10  N2  UNL     1      24.638   4.091  51.788  1.00  0.00    -0.323 N 
HETATM   11  H9  UNL     1      24.975   4.201  52.761  1.00  0.00     0.169 HD
BRANCH  10  12
HETATM   12  C11 UNL     1      24.704   4.974  50.670  1.00  0.00     0.035 A 
HETATM   13  C12 UNL     1      23.720   5.870  50.345  1.00  0.00     0.030 A 
HETATM   14  C13 UNL     1      23.918   6.665  49.233  1.00  0.00     0.011 A 
HETATM   15  C14 UNL     1      25.043   6.631  48.407  1.00  0.00    -0.030 A 
HETATM   16  C21 UNL     1      25.998   5.702  48.794  1.00  0.00     0.011 A 
HETATM   17  C22 UNL     1      25.841   4.895  49.889  1.00  0.00     0.030 A 
BRANCH  15  18
HETATM   18  C15 UNL     1      25.132   7.530  47.254  1.00  0.00     0.311 C 
BRANCH  18  19
HETATM   19  N3  UNL     1      26.355   8.268  47.294  1.00  0.00     0.096 N 
HETATM   20  C16 UNL     1      26.402   9.326  48.262  1.00  0.00     0.303 C 
HETATM   21  C17 UNL     1      25.556  10.504  47.895  1.00  0.00     0.302 C 
HETATM   22  N4  UNL     1      25.719  10.888  46.504  1.00  0.00     0.087 N 
HETATM   23  C18 UNL     1      26.052  12.318  46.425  1.00  0.00     0.310 C 
HETATM   24  C19 UNL     1      26.832  10.201  45.874  1.00  0.00     0.302 C 
HETATM   25  C20 UNL     1      26.758   8.710  45.972  1.00  0.00     0.303 C 
ENDBRANCH  18  19
ENDBRANCH  15  18
ENDBRANCH  10  12
ENDBRANCH   2   8
BRANCH   1  26
HETATM   26  N1  UNL     1      25.765   0.549  51.928  1.00  0.00    -0.355 N 
HETATM   27  H8  UNL     1      25.546   0.324  50.944  1.00  0.00     0.166 HD
BRANCH  26  28
HETATM   28  C7  UNL     1      26.966   0.720  52.681  1.00  0.00     0.038 A 
HETATM   29  C2  UNL     1      27.775  -0.321  53.099  1.00  0.00    -0.035 A 
HETATM   30  C1  UNL     1      27.292  -1.691  52.697  1.00  0.00     0.050 C 
HETATM   31  C3  UNL     1      28.934  -0.078  53.832  1.00  0.00     0.009 A 
HETATM   32  C4  UNL     1      29.270   1.205  54.138  1.00  0.00     0.001 A 
HETATM   33  C5  UNL     1      28.461   2.231  53.718  1.00  0.00     0.002 A 
HETATM   34  C6  UNL     1      27.301   2.022  52.987  1.00  0.00     0.030 A 
ENDBRANCH  26  28
ENDBRANCH   1  26
BRANCH   3  35
HETATM   35  O2  UNL     1      21.353   1.827  51.879  1.00  0.00    -0.372 OA
HETATM   36  H28 UNL     1      20.640   1.172  52.052  1.00  0.00     0.212 HD
ENDBRANCH   3  35
TORSDOF 7
ENDMDL
MODEL 6
REMARK VINA RESULT:      -8.2      1.323      2.104
REMARK  7 active torsions:
REMARK  status: ('A' for Active; 'I' for Inactive)
REMARK    1  A    between atoms: C7_7  and  N1_8 
REMARK    2  A    between atoms: N1_8  and  C8_9 
REMARK    3  A    between atoms: C9_10  and  C10_11 
REMARK       I    between atoms: C10_11  and  N2_13 
REMARK    4  A    between atoms: N2_13  and  C11_14 
REMARK    5  A    between atoms: C14_17  and  C15_18 
REMARK    6  A    between atoms: C15_18  and  N3_19 
REMARK    7  A    between atoms: C23_28  and  O2_29 
ROOT
HETATM    1  C8  UNL     1      24.857   0.669  53.332  1.00  0.00     0.050 A 
HETATM    2  C9  UNL     1      23.959   1.472  52.829  1.00  0.00     0.084 A 
HETATM    3  C23 UNL     1      22.507   1.211  52.999  1.00  0.00     0.259 A 
HETATM    4  N5  UNL     1      22.347  -0.000  53.760  1.00  0.00    -0.369 N 
HETATM    5  C24 UNL     1      23.287  -0.903  54.325  1.00  0.00     0.088 A 
HETATM    6  C25 UNL     1      24.536  -0.532  54.088  1.00  0.00     0.047 A 
HETATM    7  H29 UNL     1      21.317  -0.161  53.862  1.00  0.00     0.161 HD
ENDROOT
BRANCH   2   8
HETATM    8  C10 UNL     1      24.194   2.687  52.064  1.00  0.00     0.258 C 
HETATM    9  O1  UNL     1      25.328   3.190  51.838  1.00  0.00    -0.267 OA
HETATM   10  N2  UNL     1      23.300   3.578  51.411  1.00  0.00    -0.323 N 
HETATM   11  H9  UNL     1      22.290   3.357  51.466  1.00  0.00     0.169 HD
BRANCH  10  12
HETATM   12  C11 UNL     1      23.988   4.654  50.775  1.00  0.00     0.035 A 
HETATM   13  C12 UNL     1      24.109   5.908  51.313  1.00  0.00     0.030 A 
HETATM   14  C13 UNL     1      24.805   6.854  50.586  1.00  0.00     0.011 A 
HETATM   15  C14 UNL     1      25.399   6.638  49.342  1.00  0.00    -0.030 A 
HETATM   16  C21 UNL     1      25.238   5.348  48.857  1.00  0.00     0.011 A 
HETATM   17  C22 UNL     1      24.556   4.381  49.545  1.00  0.00     0.030 A 
BRANCH  15  18
HETATM   18  C15 UNL     1      26.112   7.728  48.672  1.00  0.00     0.311 C 
BRANCH  18  19
HETATM   19  N3  UNL     1      27.375   7.953  49.300  1.00  0.00     0.096 N 
HETATM   20  C16 UNL     1      27.518   9.221  49.956  1.00  0.00     0.303 C 
HETATM   21  C17 UNL     1      27.643  10.369  49.005  1.00  0.00     0.302 C 
HETATM   22  N4  UNL     1      28.570  10.090  47.923  1.00  0.00     0.087 N 
HETATM   23  C18 UNL     1      29.572  11.164  47.844  1.00  0.00     0.310 C 
HETATM   24  C19 UNL     1      29.328   8.874  48.152  1.00  0.00     0.302 C 
HETATM   25  C20 UNL     1      28.478   7.668  48.402  1.00  0.00     0.303 C 
ENDBRANCH  18  19
ENDBRANCH  15  18
ENDBRANCH  10  12
ENDBRANCH   2   8
BRANCH   1  26
HETATM   26  N1  UNL     1      26.235   0.876  53.198  1.00  0.00    -0.355 N 
HETATM   27  H8  UNL     1      26.275   1.905  53.124  1.00  0.00     0.166 HD
BRANCH  26  28
HETATM   28  C7  UNL     1      27.202  -0.175  53.175  1.00  0.00     0.038 A 
HETATM   29  C2  UNL     1      28.505  -0.042  53.617  1.00  0.00    -0.035 A 
HETATM   30  C1  UNL     1      28.852   1.328  54.141  1.00  0.00     0.050 C 
HETATM   31  C3  UNL     1      29.393  -1.113  53.564  1.00  0.00     0.009 A 
HETATM   32  C4  UNL     1      28.965  -2.307  53.069  1.00  0.00     0.001 A 
HETATM   33  C5  UNL     1      27.670  -2.429  52.632  1.00  0.00     0.002 A 
HETATM   34  C6  UNL     1      26.762  -1.382  52.672  1.00  0.00     0.030 A 
ENDBRANCH  26  28
ENDBRANCH   1  26
BRANCH   3  35
HETATM   35  O2  UNL     1      21.872   1.031  51.772  1.00  0.00    -0.372 OA
HETATM   36  H28 UNL     1      21.066   1.591  51.705  1.00  0.00     0.212 HD
ENDBRANCH   3  35
TORSDOF 7
ENDMDL
MODEL 7
REMARK VINA RESULT:      -8.1      1.609      2.231
REMARK  7 active torsions:
REMARK  status: ('A' for Active; 'I' for Inactive)
REMARK    1  A    between atoms: C7_7  and  N1_8 
REMARK    2  A    between atoms: N1_8  and  C8_9 
REMARK    3  A    between atoms: C9_10  and  C10_11 
REMARK       I    between atoms: C10_11  and  N2_13 
REMARK    4  A    between atoms: N2_13  and  C11_14 
REMARK    5  A    between atoms: C14_17  and  C15_18 
REMARK    6  A    between atoms: C15_18  and  N3_19 
REMARK    7  A    between atoms: C23_28  and  O2_29 
ROOT
HETATM    1  C8  UNL     1      22.545   2.255  51.777  1.00  0.00     0.050 A 
HETATM    2  C9  UNL     1      22.574   3.475  51.315  1.00  0.00     0.084 A 
HETATM    3  C23 UNL     1      21.423   4.396  51.493  1.00  0.00     0.259 A 
HETATM    4  N5  UNL     1      20.389   3.700  52.213  1.00  0.00    -0.369 N 
HETATM    5  C24 UNL     1      20.311   2.380  52.733  1.00  0.00     0.088 A 
HETATM    6  C25 UNL     1      21.414   1.687  52.493  1.00  0.00     0.047 A 
HETATM    7  H29 UNL     1      19.591   4.370  52.322  1.00  0.00     0.161 HD
ENDROOT
BRANCH   2   8
HETATM    8  C10 UNL     1      23.660   4.118  50.591  1.00  0.00     0.258 C 
HETATM    9  O1  UNL     1      24.538   4.858  51.113  1.00  0.00    -0.267 OA
HETATM   10  N2  UNL     1      24.016   4.102  49.215  1.00  0.00    -0.323 N 
HETATM   11  H9  UNL     1      23.418   3.544  48.580  1.00  0.00     0.169 HD
BRANCH  10  12
HETATM   12  C11 UNL     1      25.176   4.890  48.954  1.00  0.00     0.035 A 
HETATM   13  C12 UNL     1      25.138   6.214  48.607  1.00  0.00     0.030 A 
HETATM   14  C13 UNL     1      26.341   6.854  48.384  1.00  0.00     0.011 A 
HETATM   15  C14 UNL     1      27.601   6.261  48.484  1.00  0.00    -0.030 A 
HETATM   16  C21 UNL     1      27.566   4.920  48.840  1.00  0.00     0.011 A 
HETATM   17  C22 UNL     1      26.395   4.249  49.069  1.00  0.00     0.030 A 
BRANCH  15  18
HETATM   18  C15 UNL     1      28.806   7.052  48.223  1.00  0.00     0.311 C 
BRANCH  18  19
HETATM   19  N3  UNL     1      28.487   8.445  48.194  1.00  0.00     0.096 N 
HETATM   20  C16 UNL     1      28.814   9.125  46.974  1.00  0.00     0.303 C 
HETATM   21  C17 UNL     1      30.283   9.327  46.783  1.00  0.00     0.302 C 
HETATM   22  N4  UNL     1      30.935   9.807  47.988  1.00  0.00     0.087 N 
HETATM   23  C18 UNL     1      31.702  11.024  47.681  1.00  0.00     0.310 C 
HETATM   24  C19 UNL     1      29.979  10.204  49.006  1.00  0.00     0.302 C 
HETATM   25  C20 UNL     1      28.997   9.134  49.365  1.00  0.00     0.303 C 
ENDBRANCH  18  19
ENDBRANCH  15  18
ENDBRANCH  10  12
ENDBRANCH   2   8
BRANCH   1  26
HETATM   26  N1  UNL     1      23.607   1.353  51.632  1.00  0.00    -0.355 N 
HETATM   27  H8  UNL     1      23.468   1.037  50.659  1.00  0.00     0.166 HD
BRANCH  26  28
HETATM   28  C7  UNL     1      24.545   1.052  52.666  1.00  0.00     0.038 A 
HETATM   29  C2  UNL     1      24.478  -0.069  53.474  1.00  0.00    -0.035 A 
HETATM   30  C1  UNL     1      23.313  -0.981  53.184  1.00  0.00     0.050 C 
HETATM   31  C3  UNL     1      25.430  -0.297  54.464  1.00  0.00     0.009 A 
HETATM   32  C4  UNL     1      26.440   0.599  54.634  1.00  0.00     0.001 A 
HETATM   33  C5  UNL     1      26.498   1.708  53.828  1.00  0.00     0.002 A 
HETATM   34  C6  UNL     1      25.566   1.963  52.833  1.00  0.00     0.030 A 
ENDBRANCH  26  28
ENDBRANCH   1  26
BRANCH   3  35
HETATM   35  O2  UNL     1      20.894   4.799  50.269  1.00  0.00    -0.372 OA
HETATM   36  H28 UNL     1      20.089   5.351  50.396  1.00  0.00     0.212 HD
ENDBRANCH   3  35
TORSDOF 7
ENDMDL
MODEL 8
REMARK VINA RESULT:      -8.1      1.756      4.170
REMARK  7 active torsions:
REMARK  status: ('A' for Active; 'I' for Inactive)
REMARK    1  A    between atoms: C7_7  and  N1_8 
REMARK    2  A    between atoms: N1_8  and  C8_9 
REMARK    3  A    between atoms: C9_10  and  C10_11 
REMARK       I    between atoms: C10_11  and  N2_13 
REMARK    4  A    between atoms: N2_13  and  C11_14 
REMARK    5  A    between atoms: C14_17  and  C15_18 
REMARK    6  A    between atoms: C15_18  and  N3_19 
REMARK    7  A    between atoms: C23_28  and  O2_29 
ROOT
HETATM    1  C8  UNL     1      24.664   0.997  52.762  1.00  0.00     0.050 A 
HETATM    2  C9  UNL     1      25.808   1.308  52.214  1.00  0.00     0.084 A 
HETATM    3  C23 UNL     1      27.020   0.481  52.435  1.00  0.00     0.259 A 
HETATM    4  N5  UNL     1      26.673  -0.616  53.300  1.00  0.00    -0.369 N 
HETATM    5  C24 UNL     1      25.451  -0.994  53.918  1.00  0.00     0.088 A 
HETATM    6  C25 UNL     1      24.467  -0.158  53.623  1.00  0.00     0.047 A 
HETATM    7  H29 UNL     1      27.545  -1.181  53.440  1.00  0.00     0.161 HD
ENDROOT
BRANCH   2   8
HETATM    8  C10 UNL     1      26.089   2.440  51.345  1.00  0.00     0.258 C 
HETATM    9  O1  UNL     1      27.207   3.017  51.250  1.00  0.00    -0.267 OA
HETATM   10  N2  UNL     1      25.266   3.160  50.437  1.00  0.00    -0.323 N 
HETATM   11  H9  UNL     1      24.281   2.854  50.350  1.00  0.00     0.169 HD
BRANCH  10  12
HETATM   12  C11 UNL     1      25.979   4.213  49.790  1.00  0.00     0.035 A 
HETATM   13  C12 UNL     1      27.113   4.022  49.046  1.00  0.00     0.030 A 
HETATM   14  C13 UNL     1      27.700   5.135  48.475  1.00  0.00     0.011 A 
HETATM   15  C14 UNL     1      27.232   6.445  48.595  1.00  0.00    -0.030 A 
HETATM   16  C21 UNL     1      26.082   6.564  49.361  1.00  0.00     0.011 A 
HETATM   17  C22 UNL     1      25.469   5.488  49.944  1.00  0.00     0.030 A 
BRANCH  15  18
HETATM   18  C15 UNL     1      27.948   7.540  47.937  1.00  0.00     0.311 C 
BRANCH  18  19
HETATM   19  N3  UNL     1      27.715   8.769  48.628  1.00  0.00     0.096 N 
HETATM   20  C16 UNL     1      27.183   9.833  47.827  1.00  0.00     0.303 C 
HETATM   21  C17 UNL     1      28.179  10.412  46.873  1.00  0.00     0.302 C 
HETATM   22  N4  UNL     1      29.467  10.652  47.498  1.00  0.00     0.087 N 
HETATM   23  C18 UNL     1      29.873  12.047  47.267  1.00  0.00     0.310 C 
HETATM   24  C19 UNL     1      29.410  10.504  48.941  1.00  0.00     0.302 C 
HETATM   25  C20 UNL     1      28.877   9.182  49.394  1.00  0.00     0.303 C 
ENDBRANCH  18  19
ENDBRANCH  15  18
ENDBRANCH  10  12
ENDBRANCH   2   8
BRANCH   1  26
HETATM   26  N1  UNL     1      23.495   1.747  52.581  1.00  0.00    -0.355 N 
HETATM   27  H8  UNL     1      23.873   2.709  52.593  1.00  0.00     0.166 HD
BRANCH  26  28
HETATM   28  C7  UNL     1      22.194   1.176  52.442  1.00  0.00     0.038 A 
HETATM   29  C2  UNL     1      21.544   1.008  51.233  1.00  0.00    -0.035 A 
HETATM   30  C1  UNL     1      22.321   1.482  50.033  1.00  0.00     0.050 C 
HETATM   31  C3  UNL     1      20.273   0.442  51.176  1.00  0.00     0.009 A 
HETATM   32  C4  UNL     1      19.667   0.051  52.330  1.00  0.00     0.001 A 
HETATM   33  C5  UNL     1      20.320   0.222  53.525  1.00  0.00     0.002 A 
HETATM   34  C6  UNL     1      21.585   0.781  53.615  1.00  0.00     0.030 A 
ENDBRANCH  26  28
ENDBRANCH   1  26
BRANCH   3  35
HETATM   35  O2  UNL     1      28.032   1.210  53.057  1.00  0.00    -0.372 OA
HETATM   36  H28 UNL     1      27.966   2.166  52.836  1.00  0.00     0.212 HD
ENDBRANCH   3  35
TORSDOF 7
ENDMDL
MODEL 9
REMARK VINA RESULT:      -8.1      3.006      9.167
REMARK  7 active torsions:
REMARK  status: ('A' for Active; 'I' for Inactive)
REMARK    1  A    between atoms: C7_7  and  N1_8 
REMARK    2  A    between atoms: N1_8  and  C8_9 
REMARK    3  A    between atoms: C9_10  and  C10_11 
REMARK       I    between atoms: C10_11  and  N2_13 
REMARK    4  A    between atoms: N2_13  and  C11_14 
REMARK    5  A    between atoms: C14_17  and  C15_18 
REMARK    6  A    between atoms: C15_18  and  N3_19 
REMARK    7  A    between atoms: C23_28  and  O2_29 
ROOT
HETATM    1  C8  UNL     1      29.119   8.676  48.212  1.00  0.00     0.050 A 
HETATM    2  C9  UNL     1      28.048   8.557  48.949  1.00  0.00     0.084 A 
HETATM    3  C23 UNL     1      27.554   9.681  49.783  1.00  0.00     0.259 A 
HETATM    4  N5  UNL     1      28.440  10.802  49.608  1.00  0.00    -0.369 N 
HETATM    5  C24 UNL     1      29.611  10.980  48.823  1.00  0.00     0.088 A 
HETATM    6  C25 UNL     1      29.918   9.889  48.138  1.00  0.00     0.047 A 
HETATM    7  H29 UNL     1      28.070  11.578  50.208  1.00  0.00     0.161 HD
ENDROOT
BRANCH   2   8
HETATM    8  C10 UNL     1      27.196   7.385  49.080  1.00  0.00     0.258 C 
HETATM    9  O1  UNL     1      26.214   7.289  49.866  1.00  0.00    -0.267 OA
HETATM   10  N2  UNL     1      27.218   6.124  48.424  1.00  0.00    -0.323 N 
HETATM   11  H9  UNL     1      27.960   5.973  47.717  1.00  0.00     0.169 HD
BRANCH  10  12
HETATM   12  C11 UNL     1      26.172   5.267  48.879  1.00  0.00     0.035 A 
HETATM   13  C12 UNL     1      24.839   5.540  48.724  1.00  0.00     0.030 A 
HETATM   14  C13 UNL     1      23.934   4.619  49.215  1.00  0.00     0.011 A 
HETATM   15  C14 UNL     1      24.267   3.426  49.859  1.00  0.00    -0.030 A 
HETATM   16  C21 UNL     1      25.633   3.213  49.982  1.00  0.00     0.011 A 
HETATM   17  C22 UNL     1      26.562   4.101  49.510  1.00  0.00     0.030 A 
BRANCH  15  18
HETATM   18  C15 UNL     1      23.209   2.530  50.333  1.00  0.00     0.311 C 
BRANCH  18  19
HETATM   19  N3  UNL     1      22.708   2.980  51.593  1.00  0.00     0.096 N 
HETATM   20  C16 UNL     1      23.354   2.423  52.747  1.00  0.00     0.303 C 
HETATM   21  C17 UNL     1      23.012   0.986  52.981  1.00  0.00     0.302 C 
HETATM   22  N4  UNL     1      21.590   0.728  52.846  1.00  0.00     0.087 N 
HETATM   23  C18 UNL     1      21.098   0.045  54.051  1.00  0.00     0.310 C 
HETATM   24  C19 UNL     1      20.818   1.953  52.757  1.00  0.00     0.302 C 
HETATM   25  C20 UNL     1      21.263   2.872  51.664  1.00  0.00     0.303 C 
ENDBRANCH  18  19
ENDBRANCH  15  18
ENDBRANCH  10  12
ENDBRANCH   2   8
BRANCH   1  26
HETATM   26  N1  UNL     1      29.620   7.643  47.410  1.00  0.00    -0.355 N 
HETATM   27  H8  UNL     1      28.863   7.548  46.714  1.00  0.00     0.166 HD
BRANCH  26  28
HETATM   28  C7  UNL     1      30.869   6.989  47.639  1.00  0.00     0.038 A 
HETATM   29  C2  UNL     1      31.899   6.936  46.717  1.00  0.00    -0.035 A 
HETATM   30  C1  UNL     1      31.609   7.635  45.414  1.00  0.00     0.050 C 
HETATM   31  C3  UNL     1      33.090   6.279  47.011  1.00  0.00     0.009 A 
HETATM   32  C4  UNL     1      33.238   5.681  48.226  1.00  0.00     0.001 A 
HETATM   33  C5  UNL     1      32.210   5.740  49.134  1.00  0.00     0.002 A 
HETATM   34  C6  UNL     1      31.012   6.387  48.871  1.00  0.00     0.030 A 
ENDBRANCH  26  28
ENDBRANCH   1  26
BRANCH   3  35
HETATM   35  O2  UNL     1      27.548   9.350  51.137  1.00  0.00    -0.372 OA
HETATM   36  H28 UNL     1      28.071   9.998  51.662  1.00  0.00     0.212 HD
ENDBRANCH   3  35
TORSDOF 7
ENDMDL
