MODEL 1
REMARK VINA RESULT:      -8.5      0.000      0.000
REMARK  4 active torsions:
REMARK  status: ('A' for Active; 'I' for Inactive)
REMARK    1  A    between atoms: C2_2  and  O1_3 
REMARK    2  A    between atoms: O1_3  and  C3_4 
REMARK    3  A    between atoms: C11_12  and  N1_13 
REMARK    4  A    between atoms: C21_25  and  N3_26 
ROOT
HETATM    1  C3  UNL     1      21.656   6.285  48.959  1.00  0.00     0.132 C 
HETATM    2  C4  UNL     1      20.723   5.236  48.244  1.00  0.00     0.125 C 
HETATM    3  C5  UNL     1      19.995   4.537  49.225  1.00  0.00    -0.104 C 
HETATM    4  C6  UNL     1      19.415   3.952  50.033  1.00  0.00    -0.100 C 
HETATM    5  C7  UNL     1      18.731   3.231  51.022  1.00  0.00     0.108 C 
HETATM    6  C8  UNL     1      18.715   1.908  51.258  1.00  0.00    -0.006 C 
HETATM    7  C9  UNL     1      18.846   0.409  51.336  1.00  0.00     0.032 C 
HETATM    8  C10 UNL     1      19.414  -0.074  52.589  1.00  0.00     0.021 C 
HETATM    9  C11 UNL     1      19.850  -0.545  53.716  1.00  0.00     0.094 C 
HETATM   10  N2  UNL     1      20.923  -0.550  54.598  1.00  0.00    -0.353 N 
HETATM   11  C12 UNL     1      22.276  -0.590  54.215  1.00  0.00     0.089 C 
HETATM   12  C13 UNL     1      23.501  -0.908  53.893  1.00  0.00     0.018 C 
HETATM   13  C14 UNL     1      24.814  -0.509  53.483  1.00  0.00     0.016 C 
HETATM   14  C15 UNL     1      25.337   0.659  53.230  1.00  0.00    -0.008 C 
HETATM   15 BR1  UNL     1      27.167   0.664  52.707  1.00  0.00    -0.056 Br
HETATM   16  C16 UNL     1      24.944   2.084  53.207  1.00  0.00     0.073 C 
HETATM   17  C17 UNL     1      25.135   2.717  51.908  1.00  0.00    -0.022 C 
HETATM   18  C18 UNL     1      25.388   3.074  50.677  1.00  0.00    -0.004 C 
HETATM   19  C19 UNL     1      25.460   3.960  49.535  1.00  0.00    -0.002 C 
HETATM   20  C20 UNL     1      25.132   5.218  49.383  1.00  0.00     0.008 C 
HETATM   21  C21 UNL     1      24.593   6.471  49.959  1.00  0.00     0.240 C 
HETATM   22  C22 UNL     1      23.363   6.208  50.834  1.00  0.00     0.042 C 
HETATM   23  C23 UNL     1      22.293   5.516  50.041  1.00  0.00     0.035 C 
HETATM   24  H16 UNL     1      20.637  -0.520  55.591  1.00  0.00     0.166 HD
ENDROOT
BRANCH   1  25
HETATM   25  O1  UNL     1      22.418   6.839  47.984  1.00  0.00    -0.385 OA
BRANCH  25  26
HETATM   26  C2  UNL     1      22.096   8.136  47.658  1.00  0.00     0.163 C 
HETATM   27  C1  UNL     1      21.981   9.052  48.846  1.00  0.00     0.033 C 
ENDBRANCH  25  26
ENDBRANCH   1  25
BRANCH  21  28
HETATM   28  N3  UNL     1      25.667   6.983  50.832  1.00  0.00     0.086 N 
HETATM   29  H27 UNL     1      26.606   6.856  50.416  1.00  0.00     0.313 HD
HETATM   30  H28 UNL     1      25.636   6.405  51.703  1.00  0.00     0.313 HD
ENDBRANCH  21  28
BRANCH   9  31
HETATM   31  N1  UNL     1      18.624  -1.226  53.828  1.00  0.00    -0.386 N 
HETATM   32  H14 UNL     1      17.616  -1.319  53.575  1.00  0.00     0.157 HD
HETATM   33  H15 UNL     1      18.326  -2.070  54.353  1.00  0.00     0.157 HD
ENDBRANCH   9  31
TORSDOF 4
ENDMDL
MODEL 2
REMARK VINA RESULT:      -7.9      1.391      1.682
REMARK  4 active torsions:
REMARK  status: ('A' for Active; 'I' for Inactive)
REMARK    1  A    between atoms: C2_2  and  O1_3 
REMARK    2  A    between atoms: O1_3  and  C3_4 
REMARK    3  A    between atoms: C11_12  and  N1_13 
REMARK    4  A    between atoms: C21_25  and  N3_26 
ROOT
HETATM    1  C3  UNL     1      22.942   6.500  47.718  1.00  0.00     0.132 C 
HETATM    2  C4  UNL     1      22.108   5.446  46.895  1.00  0.00     0.125 C 
HETATM    3  C5  UNL     1      21.158   4.855  47.750  1.00  0.00    -0.104 C 
HETATM    4  C6  UNL     1      20.395   4.359  48.458  1.00  0.00    -0.100 C 
HETATM    5  C7  UNL     1      19.485   3.745  49.330  1.00  0.00     0.108 C 
HETATM    6  C8  UNL     1      19.342   2.444  49.640  1.00  0.00    -0.006 C 
HETATM    7  C9  UNL     1      19.364   0.950  49.835  1.00  0.00     0.032 C 
HETATM    8  C10 UNL     1      19.641   0.533  51.204  1.00  0.00     0.021 C 
HETATM    9  C11 UNL     1      19.815   0.126  52.423  1.00  0.00     0.094 C 
HETATM   10  N2  UNL     1      20.688   0.135  53.504  1.00  0.00    -0.353 N 
HETATM   11  C12 UNL     1      22.085   0.003  53.406  1.00  0.00     0.089 C 
HETATM   12  C13 UNL     1      23.328  -0.395  53.359  1.00  0.00     0.018 C 
HETATM   13  C14 UNL     1      24.718  -0.088  53.200  1.00  0.00     0.016 C 
HETATM   14  C15 UNL     1      25.351   1.032  52.986  1.00  0.00    -0.008 C 
HETATM   15 BR1  UNL     1      27.246   0.914  52.846  1.00  0.00    -0.056 Br
HETATM   16  C16 UNL     1      25.058   2.469  52.796  1.00  0.00     0.073 C 
HETATM   17  C17 UNL     1      25.542   2.996  51.526  1.00  0.00    -0.022 C 
HETATM   18  C18 UNL     1      26.056   3.250  50.352  1.00  0.00    -0.004 C 
HETATM   19  C19 UNL     1      26.407   4.047  49.196  1.00  0.00    -0.002 C 
HETATM   20  C20 UNL     1      26.193   5.304  48.903  1.00  0.00     0.008 C 
HETATM   21  C21 UNL     1      25.626   6.620  49.279  1.00  0.00     0.240 C 
HETATM   22  C22 UNL     1      24.234   6.479  49.901  1.00  0.00     0.042 C 
HETATM   23  C23 UNL     1      23.303   5.782  48.953  1.00  0.00     0.035 C 
HETATM   24  H16 UNL     1      20.213   0.250  54.414  1.00  0.00     0.166 HD
ENDROOT
BRANCH   1  25
HETATM   25  O1  UNL     1      23.915   6.944  46.886  1.00  0.00    -0.385 OA
BRANCH  25  26
HETATM   26  C2  UNL     1      23.466   7.565  45.742  1.00  0.00     0.163 C 
HETATM   27  C1  UNL     1      24.562   7.932  44.780  1.00  0.00     0.033 C 
ENDBRANCH  25  26
ENDBRANCH   1  25
BRANCH  21  28
HETATM   28  N3  UNL     1      26.534   7.143  50.319  1.00  0.00     0.086 N 
HETATM   29  H27 UNL     1      27.475   6.713  50.271  1.00  0.00     0.313 HD
HETATM   30  H28 UNL     1      26.116   6.868  51.237  1.00  0.00     0.313 HD
ENDBRANCH  21  28
BRANCH   9  31
HETATM   31  N1  UNL     1      18.552  -0.487  52.326  1.00  0.00    -0.386 N 
HETATM   32  H14 UNL     1      17.563  -0.470  51.994  1.00  0.00     0.157 HD
HETATM   33  H15 UNL     1      18.173  -1.391  52.668  1.00  0.00     0.157 HD
ENDBRANCH   9  31
TORSDOF 4
ENDMDL
MODEL 3
REMARK VINA RESULT:      -7.7      3.512      7.183
REMARK  4 active torsions:
REMARK  status: ('A' for Active; 'I' for Inactive)
REMARK    1  A    between atoms: C2_2  and  O1_3 
REMARK    2  A    between atoms: O1_3  and  C3_4 
REMARK    3  A    between atoms: C11_12  and  N1_13 
REMARK    4  A    between atoms: C21_25  and  N3_26 
ROOT
HETATM    1  C3  UNL     1      16.851   0.714  51.884  1.00  0.00     0.132 C 
HETATM    2  C4  UNL     1      17.639  -0.651  51.893  1.00  0.00     0.125 C 
HETATM    3  C5  UNL     1      18.776  -0.510  52.710  1.00  0.00    -0.104 C 
HETATM    4  C6  UNL     1      19.719  -0.385  53.363  1.00  0.00    -0.100 C 
HETATM    5  C7  UNL     1      20.873  -0.218  54.141  1.00  0.00     0.108 C 
HETATM    6  C8  UNL     1      22.164  -0.380  53.801  1.00  0.00    -0.006 C 
HETATM    7  C9  UNL     1      23.526  -0.620  53.204  1.00  0.00     0.032 C 
HETATM    8  C10 UNL     1      24.392   0.552  53.207  1.00  0.00     0.021 C 
HETATM    9  C11 UNL     1      25.215   1.554  53.256  1.00  0.00     0.094 C 
HETATM   10  N2  UNL     1      25.425   2.864  52.846  1.00  0.00    -0.353 N 
HETATM   11  C12 UNL     1      25.107   3.365  51.570  1.00  0.00     0.089 C 
HETATM   12  C13 UNL     1      25.083   3.767  50.328  1.00  0.00     0.018 C 
HETATM   13  C14 UNL     1      24.364   4.334  49.227  1.00  0.00     0.016 C 
HETATM   14  C15 UNL     1      23.132   4.746  49.102  1.00  0.00    -0.008 C 
HETATM   15 BR1  UNL     1      22.646   5.436  47.396  1.00  0.00    -0.056 Br
HETATM   16  C16 UNL     1      21.897   4.855  49.907  1.00  0.00     0.073 C 
HETATM   17  C17 UNL     1      20.766   4.135  49.334  1.00  0.00    -0.022 C 
HETATM   18  C18 UNL     1      19.903   3.435  48.647  1.00  0.00    -0.004 C 
HETATM   19  C19 UNL     1      18.626   2.829  48.336  1.00  0.00    -0.002 C 
HETATM   20  C20 UNL     1      17.479   2.835  48.966  1.00  0.00     0.008 C 
HETATM   21  C21 UNL     1      16.666   3.270  50.126  1.00  0.00     0.240 C 
HETATM   22  C22 UNL     1      17.441   3.141  51.440  1.00  0.00     0.042 C 
HETATM   23  C23 UNL     1      17.895   1.725  51.646  1.00  0.00     0.035 C 
HETATM   24  H16 UNL     1      25.847   3.459  53.577  1.00  0.00     0.166 HD
ENDROOT
BRANCH   1  25
HETATM   25  O1  UNL     1      15.842   0.562  50.992  1.00  0.00    -0.385 OA
BRANCH  25  26
HETATM   26  C2  UNL     1      14.588   0.441  51.545  1.00  0.00     0.163 C 
HETATM   27  C1  UNL     1      14.409   1.217  52.822  1.00  0.00     0.033 C 
ENDBRANCH  25  26
ENDBRANCH   1  25
BRANCH  21  28
HETATM   28  N3  UNL     1      16.407   4.704  49.893  1.00  0.00     0.086 N 
HETATM   29  H27 UNL     1      15.596   4.861  49.268  1.00  0.00     0.313 HD
HETATM   30  H28 UNL     1      17.251   5.078  49.402  1.00  0.00     0.313 HD
ENDBRANCH  21  28
BRANCH   9  31
HETATM   31  N1  UNL     1      26.053   0.739  54.040  1.00  0.00    -0.386 N 
HETATM   32  H14 UNL     1      26.994   0.532  54.440  1.00  0.00     0.157 HD
HETATM   33  H15 UNL     1      25.891  -0.129  54.585  1.00  0.00     0.157 HD
ENDBRANCH   9  31
TORSDOF 4
ENDMDL
MODEL 4
REMARK VINA RESULT:      -7.6      3.078      5.071
REMARK  4 active torsions:
REMARK  status: ('A' for Active; 'I' for Inactive)
REMARK    1  A    between atoms: C2_2  and  O1_3 
REMARK    2  A    between atoms: O1_3  and  C3_4 
REMARK    3  A    between atoms: C11_12  and  N1_13 
REMARK    4  A    between atoms: C21_25  and  N3_26 
ROOT
HETATM    1  C3  UNL     1      18.273   2.146  50.510  1.00  0.00     0.132 C 
HETATM    2  C4  UNL     1      18.384   0.580  50.637  1.00  0.00     0.125 C 
HETATM    3  C5  UNL     1      19.052   0.270  51.837  1.00  0.00    -0.104 C 
HETATM    4  C6  UNL     1      19.618   0.021  52.810  1.00  0.00    -0.100 C 
HETATM    5  C7  UNL     1      20.326  -0.273  53.984  1.00  0.00     0.108 C 
HETATM    6  C8  UNL     1      21.466  -0.967  54.144  1.00  0.00    -0.006 C 
HETATM    7  C9  UNL     1      22.738  -1.773  54.085  1.00  0.00     0.032 C 
HETATM    8  C10 UNL     1      23.914  -1.064  54.574  1.00  0.00     0.021 C 
HETATM    9  C11 UNL     1      24.968  -0.490  55.066  1.00  0.00     0.094 C 
HETATM   10  N2  UNL     1      25.823   0.599  54.944  1.00  0.00    -0.353 N 
HETATM   11  C12 UNL     1      26.269   1.135  53.723  1.00  0.00     0.089 C 
HETATM   12  C13 UNL     1      26.906   1.461  52.630  1.00  0.00     0.018 C 
HETATM   13  C14 UNL     1      26.977   2.230  51.424  1.00  0.00     0.016 C 
HETATM   14  C15 UNL     1      26.170   3.108  50.895  1.00  0.00    -0.008 C 
HETATM   15 BR1  UNL     1      26.725   3.869  49.241  1.00  0.00    -0.056 Br
HETATM   16  C16 UNL     1      24.868   3.750  51.176  1.00  0.00     0.073 C 
HETATM   17  C17 UNL     1      23.880   3.539  50.124  1.00  0.00    -0.022 C 
HETATM   18  C18 UNL     1      23.167   3.231  49.074  1.00  0.00    -0.004 C 
HETATM   19  C19 UNL     1      21.998   3.195  48.222  1.00  0.00    -0.002 C 
HETATM   20  C20 UNL     1      20.798   3.699  48.362  1.00  0.00     0.008 C 
HETATM   21  C21 UNL     1      19.831   4.478  49.170  1.00  0.00     0.240 C 
HETATM   22  C22 UNL     1      19.894   4.093  50.651  1.00  0.00     0.042 C 
HETATM   23  C23 UNL     1      19.630   2.626  50.824  1.00  0.00     0.035 C 
HETATM   24  H16 UNL     1      26.112   0.995  55.853  1.00  0.00     0.166 HD
ENDROOT
BRANCH   1  25
HETATM   25  O1  UNL     1      17.737   2.389  49.289  1.00  0.00    -0.385 OA
BRANCH  25  26
HETATM   26  C2  UNL     1      16.422   2.797  49.299  1.00  0.00     0.163 C 
HETATM   27  C1  UNL     1      16.152   3.954  50.222  1.00  0.00     0.033 C 
ENDBRANCH  25  26
ENDBRANCH   1  25
BRANCH  21  28
HETATM   28  N3  UNL     1      20.275   5.880  49.049  1.00  0.00     0.086 N 
HETATM   29  H27 UNL     1      19.497   6.551  49.180  1.00  0.00     0.313 HD
HETATM   30  H28 UNL     1      20.619   5.995  48.069  1.00  0.00     0.313 HD
ENDBRANCH  21  28
BRANCH   9  31
HETATM   31  N1  UNL     1      25.026  -1.546  55.994  1.00  0.00    -0.386 N 
HETATM   32  H14 UNL     1      25.083  -1.878  56.981  1.00  0.00     0.157 HD
HETATM   33  H15 UNL     1      25.025  -2.579  55.895  1.00  0.00     0.157 HD
ENDBRANCH   9  31
TORSDOF 4
ENDMDL
MODEL 5
REMARK VINA RESULT:      -7.6      3.622      8.635
REMARK  4 active torsions:
REMARK  status: ('A' for Active; 'I' for Inactive)
REMARK    1  A    between atoms: C2_2  and  O1_3 
REMARK    2  A    between atoms: O1_3  and  C3_4 
REMARK    3  A    between atoms: C11_12  and  N1_13 
REMARK    4  A    between atoms: C21_25  and  N3_26 
ROOT
HETATM    1  C3  UNL     1      20.646   1.035  52.413  1.00  0.00     0.132 C 
HETATM    2  C4  UNL     1      21.853   0.232  51.797  1.00  0.00     0.125 C 
HETATM    3  C5  UNL     1      23.001   1.046  51.832  1.00  0.00    -0.104 C 
HETATM    4  C6  UNL     1      23.935   1.722  51.843  1.00  0.00    -0.100 C 
HETATM    5  C7  UNL     1      25.060   2.560  51.840  1.00  0.00     0.108 C 
HETATM    6  C8  UNL     1      25.824   2.961  50.809  1.00  0.00    -0.006 C 
HETATM    7  C9  UNL     1      26.533   3.279  49.518  1.00  0.00     0.032 C 
HETATM    8  C10 UNL     1      26.543   4.697  49.178  1.00  0.00     0.021 C 
HETATM    9  C11 UNL     1      26.632   5.956  48.879  1.00  0.00     0.094 C 
HETATM   10  N2  UNL     1      25.904   7.104  48.594  1.00  0.00    -0.353 N 
HETATM   11  C12 UNL     1      24.741   7.140  47.803  1.00  0.00     0.089 C 
HETATM   12  C13 UNL     1      23.843   7.234  46.859  1.00  0.00     0.018 C 
HETATM   13  C14 UNL     1      22.473   7.172  46.446  1.00  0.00     0.016 C 
HETATM   14  C15 UNL     1      21.371   6.923  47.098  1.00  0.00    -0.008 C 
HETATM   15 BR1  UNL     1      19.765   6.959  46.077  1.00  0.00    -0.056 Br
HETATM   16  C16 UNL     1      20.927   6.592  48.468  1.00  0.00     0.073 C 
HETATM   17  C17 UNL     1      20.202   5.329  48.554  1.00  0.00    -0.022 C 
HETATM   18  C18 UNL     1      19.586   4.188  48.397  1.00  0.00    -0.004 C 
HETATM   19  C19 UNL     1      18.852   3.006  48.793  1.00  0.00    -0.002 C 
HETATM   20  C20 UNL     1      18.421   2.593  49.958  1.00  0.00     0.008 C 
HETATM   21  C21 UNL     1      18.296   2.810  51.418  1.00  0.00     0.240 C 
HETATM   22  C22 UNL     1      19.606   3.317  52.028  1.00  0.00     0.042 C 
HETATM   23  C23 UNL     1      20.722   2.351  51.756  1.00  0.00     0.035 C 
HETATM   24  H16 UNL     1      26.298   7.956  49.024  1.00  0.00     0.166 HD
ENDROOT
BRANCH   1  25
HETATM   25  O1  UNL     1      19.549   0.258  52.243  1.00  0.00    -0.385 OA
BRANCH  25  26
HETATM   26  C2  UNL     1      19.325  -0.662  53.242  1.00  0.00     0.163 C 
HETATM   27  C1  UNL     1      17.991  -1.351  53.147  1.00  0.00     0.033 C 
ENDBRANCH  25  26
ENDBRANCH   1  25
BRANCH  21  28
HETATM   28  N3  UNL     1      17.288   3.878  51.560  1.00  0.00     0.086 N 
HETATM   29  H27 UNL     1      16.437   3.553  52.050  1.00  0.00     0.313 HD
HETATM   30  H28 UNL     1      17.003   4.142  50.589  1.00  0.00     0.313 HD
ENDBRANCH  21  28
BRANCH   9  31
HETATM   31  N1  UNL     1      28.030   5.799  48.934  1.00  0.00    -0.386 N 
HETATM   32  H14 UNL     1      28.977   6.007  48.551  1.00  0.00     0.157 HD
HETATM   33  H15 UNL     1      28.661   5.275  49.570  1.00  0.00     0.157 HD
ENDBRANCH   9  31
TORSDOF 4
ENDMDL
MODEL 6
REMARK VINA RESULT:      -7.3      2.445      3.422
REMARK  4 active torsions:
REMARK  status: ('A' for Active; 'I' for Inactive)
REMARK    1  A    between atoms: C2_2  and  O1_3 
REMARK    2  A    between atoms: O1_3  and  C3_4 
REMARK    3  A    between atoms: C11_12  and  N1_13 
REMARK    4  A    between atoms: C21_25  and  N3_26 
ROOT
HETATM    1  C3  UNL     1      21.400   5.351  49.438  1.00  0.00     0.132 C 
HETATM    2  C4  UNL     1      20.804   4.539  48.226  1.00  0.00     0.125 C 
HETATM    3  C5  UNL     1      19.538   4.044  48.593  1.00  0.00    -0.104 C 
HETATM    4  C6  UNL     1      18.511   3.622  48.905  1.00  0.00    -0.100 C 
HETATM    5  C7  UNL     1      17.273   3.095  49.299  1.00  0.00     0.108 C 
HETATM    6  C8  UNL     1      16.863   1.815  49.340  1.00  0.00    -0.006 C 
HETATM    7  C9  UNL     1      16.621   0.328  49.302  1.00  0.00     0.032 C 
HETATM    8  C10 UNL     1      16.316  -0.257  50.602  1.00  0.00     0.021 C 
HETATM    9  C11 UNL     1      15.973  -0.801  51.728  1.00  0.00     0.094 C 
HETATM   10  N2  UNL     1      16.378  -1.046  53.034  1.00  0.00    -0.353 N 
HETATM   11  C12 UNL     1      17.683  -1.406  53.415  1.00  0.00     0.089 C 
HETATM   12  C13 UNL     1      18.795  -2.007  53.748  1.00  0.00     0.018 C 
HETATM   13  C14 UNL     1      20.171  -1.932  54.135  1.00  0.00     0.016 C 
HETATM   14  C15 UNL     1      20.975  -0.922  54.328  1.00  0.00    -0.008 C 
HETATM   15 BR1  UNL     1      22.755  -1.353  54.846  1.00  0.00    -0.056 Br
HETATM   16  C16 UNL     1      20.957   0.555  54.267  1.00  0.00     0.073 C 
HETATM   17  C17 UNL     1      21.940   1.108  53.342  1.00  0.00    -0.022 C 
HETATM   18  C18 UNL     1      22.879   1.379  52.476  1.00  0.00    -0.004 C 
HETATM   19  C19 UNL     1      23.731   2.208  51.651  1.00  0.00    -0.002 C 
HETATM   20  C20 UNL     1      23.802   3.505  51.494  1.00  0.00     0.008 C 
HETATM   21  C21 UNL     1      23.308   4.858  51.841  1.00  0.00     0.240 C 
HETATM   22  C22 UNL     1      21.778   4.901  51.906  1.00  0.00     0.042 C 
HETATM   23  C23 UNL     1      21.184   4.468  50.597  1.00  0.00     0.035 C 
HETATM   24  H16 UNL     1      15.618  -0.936  53.726  1.00  0.00     0.166 HD
ENDROOT
BRANCH   1  25
HETATM   25  O1  UNL     1      22.660   5.697  49.078  1.00  0.00    -0.385 OA
BRANCH  25  26
HETATM   26  C2  UNL     1      22.817   7.009  48.694  1.00  0.00     0.163 C 
HETATM   27  C1  UNL     1      22.911   7.972  49.845  1.00  0.00     0.033 C 
ENDBRANCH  25  26
ENDBRANCH   1  25
BRANCH  21  28
HETATM   28  N3  UNL     1      23.824   5.115  53.200  1.00  0.00     0.086 N 
HETATM   29  H27 UNL     1      24.403   5.973  53.244  1.00  0.00     0.313 HD
HETATM   30  H28 UNL     1      24.448   4.310  53.433  1.00  0.00     0.313 HD
ENDBRANCH  21  28
BRANCH   9  31
HETATM   31  N1  UNL     1      14.769  -1.175  51.103  1.00  0.00    -0.386 N 
HETATM   32  H14 UNL     1      14.253  -1.484  50.251  1.00  0.00     0.157 HD
HETATM   33  H15 UNL     1      13.792  -1.265  51.440  1.00  0.00     0.157 HD
ENDBRANCH   9  31
TORSDOF 4
ENDMDL
MODEL 7
REMARK VINA RESULT:      -7.2      3.218      5.964
REMARK  4 active torsions:
REMARK  status: ('A' for Active; 'I' for Inactive)
REMARK    1  A    between atoms: C2_2  and  O1_3 
REMARK    2  A    between atoms: O1_3  and  C3_4 
REMARK    3  A    between atoms: C11_12  and  N1_13 
REMARK    4  A    between atoms: C21_25  and  N3_26 
ROOT
HETATM    1  C3  UNL     1      24.409   3.687  50.312  1.00  0.00     0.132 C 
HETATM    2  C4  UNL     1      24.378   3.507  51.877  1.00  0.00     0.125 C 
HETATM    3  C5  UNL     1      23.815   2.252  52.176  1.00  0.00    -0.104 C 
HETATM    4  C6  UNL     1      23.334   1.232  52.418  1.00  0.00    -0.100 C 
HETATM    5  C7  UNL     1      22.728   0.001  52.703  1.00  0.00     0.108 C 
HETATM    6  C8  UNL     1      21.635  -0.264  53.440  1.00  0.00    -0.006 C 
HETATM    7  C9  UNL     1      20.399  -0.324  54.300  1.00  0.00     0.032 C 
HETATM    8  C10 UNL     1      19.232  -0.880  53.626  1.00  0.00     0.021 C 
HETATM    9  C11 UNL     1      18.192  -1.433  53.082  1.00  0.00     0.094 C 
HETATM   10  N2  UNL     1      17.284  -1.345  52.035  1.00  0.00    -0.353 N 
HETATM   11  C12 UNL     1      16.725  -0.145  51.557  1.00  0.00     0.089 C 
HETATM   12  C13 UNL     1      15.995   0.905  51.294  1.00  0.00     0.018 C 
HETATM   13  C14 UNL     1      15.801   2.124  50.567  1.00  0.00     0.016 C 
HETATM   14  C15 UNL     1      16.527   2.737  49.673  1.00  0.00    -0.008 C 
HETATM   15 BR1  UNL     1      15.818   4.367  48.990  1.00  0.00    -0.056 Br
HETATM   16  C16 UNL     1      17.816   2.574  48.969  1.00  0.00     0.073 C 
HETATM   17  C17 UNL     1      18.732   3.691  49.170  1.00  0.00    -0.022 C 
HETATM   18  C18 UNL     1      19.379   4.782  49.481  1.00  0.00    -0.004 C 
HETATM   19  C19 UNL     1      20.483   5.718  49.495  1.00  0.00    -0.002 C 
HETATM   20  C20 UNL     1      21.666   5.683  48.936  1.00  0.00     0.008 C 
HETATM   21  C21 UNL     1      22.654   4.972  48.093  1.00  0.00     0.240 C 
HETATM   22  C22 UNL     1      22.718   3.480  48.432  1.00  0.00     0.042 C 
HETATM   23  C23 UNL     1      23.060   3.285  49.881  1.00  0.00     0.035 C 
HETATM   24  H16 UNL     1      17.045  -2.261  51.622  1.00  0.00     0.166 HD
ENDROOT
BRANCH   1  25
HETATM   25  O1  UNL     1      24.842   4.951  50.086  1.00  0.00    -0.385 OA
BRANCH  25  26
HETATM   26  C2  UNL     1      26.047   5.046  49.426  1.00  0.00     0.163 C 
HETATM   27  C1  UNL     1      26.793   3.743  49.332  1.00  0.00     0.033 C 
ENDBRANCH  25  26
ENDBRANCH   1  25
BRANCH  21  28
HETATM   28  N3  UNL     1      22.141   5.100  46.715  1.00  0.00     0.086 N 
HETATM   29  H27 UNL     1      22.741   4.614  46.025  1.00  0.00     0.313 HD
HETATM   30  H28 UNL     1      22.170   6.119  46.485  1.00  0.00     0.313 HD
ENDBRANCH  21  28
BRANCH   9  31
HETATM   31  N1  UNL     1      18.250  -2.393  54.110  1.00  0.00    -0.386 N 
HETATM   32  H14 UNL     1      18.776  -2.861  54.879  1.00  0.00     0.157 HD
HETATM   33  H15 UNL     1      17.570  -3.089  54.470  1.00  0.00     0.157 HD
ENDBRANCH   9  31
TORSDOF 4
ENDMDL
MODEL 8
REMARK VINA RESULT:      -7.2      9.176     13.357
REMARK  4 active torsions:
REMARK  status: ('A' for Active; 'I' for Inactive)
REMARK    1  A    between atoms: C2_2  and  O1_3 
REMARK    2  A    between atoms: O1_3  and  C3_4 
REMARK    3  A    between atoms: C11_12  and  N1_13 
REMARK    4  A    between atoms: C21_25  and  N3_26 
ROOT
HETATM    1  C3  UNL     1      33.722   7.175  46.954  1.00  0.00     0.132 C 
HETATM    2  C4  UNL     1      33.585   7.722  45.483  1.00  0.00     0.125 C 
HETATM    3  C5  UNL     1      33.394   9.116  45.536  1.00  0.00    -0.104 C 
HETATM    4  C6  UNL     1      33.217  10.254  45.583  1.00  0.00    -0.100 C 
HETATM    5  C7  UNL     1      32.981  11.635  45.652  1.00  0.00     0.108 C 
HETATM    6  C8  UNL     1      31.947  12.350  45.175  1.00  0.00    -0.006 C 
HETATM    7  C9  UNL     1      30.703  12.941  44.563  1.00  0.00     0.032 C 
HETATM    8  C10 UNL     1      29.832  13.613  45.518  1.00  0.00     0.021 C 
HETATM    9  C11 UNL     1      29.066  14.279  46.326  1.00  0.00     0.094 C 
HETATM   10  N2  UNL     1      28.286  14.192  47.473  1.00  0.00    -0.353 N 
HETATM   11  C12 UNL     1      27.447  13.108  47.791  1.00  0.00     0.089 C 
HETATM   12  C13 UNL     1      26.468  12.260  47.960  1.00  0.00     0.018 C 
HETATM   13  C14 UNL     1      25.996  11.002  48.455  1.00  0.00     0.016 C 
HETATM   14  C15 UNL     1      26.593  10.023  49.076  1.00  0.00    -0.008 C 
HETATM   15 BR1  UNL     1      25.505   8.530  49.533  1.00  0.00    -0.056 Br
HETATM   16  C16 UNL     1      27.938   9.663  49.573  1.00  0.00     0.073 C 
HETATM   17  C17 UNL     1      28.453   8.422  49.005  1.00  0.00    -0.022 C 
HETATM   18  C18 UNL     1      28.709   7.304  48.381  1.00  0.00    -0.004 C 
HETATM   19  C19 UNL     1      29.475   6.138  47.999  1.00  0.00    -0.002 C 
HETATM   20  C20 UNL     1      30.665   5.720  48.348  1.00  0.00     0.008 C 
HETATM   21  C21 UNL     1      31.903   5.919  49.138  1.00  0.00     0.240 C 
HETATM   22  C22 UNL     1      32.374   7.376  49.093  1.00  0.00     0.042 C 
HETATM   23  C23 UNL     1      32.606   7.809  47.675  1.00  0.00     0.035 C 
HETATM   24  H16 UNL     1      28.376  15.014  48.092  1.00  0.00     0.166 HD
ENDROOT
BRANCH   1  25
HETATM   25  O1  UNL     1      33.779   5.824  46.851  1.00  0.00    -0.385 OA
BRANCH  25  26
HETATM   26  C2  UNL     1      33.279   5.308  45.678  1.00  0.00     0.163 C 
HETATM   27  C1  UNL     1      32.719   3.918  45.816  1.00  0.00     0.033 C 
ENDBRANCH  25  26
ENDBRANCH   1  25
BRANCH  21  28
HETATM   28  N3  UNL     1      31.519   5.611  50.529  1.00  0.00     0.086 N 
HETATM   29  H27 UNL     1      31.253   6.459  51.061  1.00  0.00     0.313 HD
HETATM   30  H28 UNL     1      32.372   5.216  50.987  1.00  0.00     0.313 HD
ENDBRANCH  21  28
BRANCH   9  31
HETATM   31  N1  UNL     1      29.302  15.403  45.514  1.00  0.00    -0.386 N 
HETATM   32  H14 UNL     1      28.974  16.077  44.788  1.00  0.00     0.157 HD
HETATM   33  H15 UNL     1      30.114  16.039  45.399  1.00  0.00     0.157 HD
ENDBRANCH   9  31
TORSDOF 4
ENDMDL
MODEL 9
REMARK VINA RESULT:      -7.0      9.580     13.907
REMARK  4 active torsions:
REMARK  status: ('A' for Active; 'I' for Inactive)
REMARK    1  A    between atoms: C2_2  and  O1_3 
REMARK    2  A    between atoms: O1_3  and  C3_4 
REMARK    3  A    between atoms: C11_12  and  N1_13 
REMARK    4  A    between atoms: C21_25  and  N3_26 
ROOT
HETATM    1  C3  UNL     1      33.849   6.311  46.790  1.00  0.00     0.132 C 
HETATM    2  C4  UNL     1      33.738   6.642  45.253  1.00  0.00     0.125 C 
HETATM    3  C5  UNL     1      33.810   8.038  45.086  1.00  0.00    -0.104 C 
HETATM    4  C6  UNL     1      33.848   9.183  44.955  1.00  0.00    -0.100 C 
HETATM    5  C7  UNL     1      33.873  10.577  44.806  1.00  0.00     0.108 C 
HETATM    6  C8  UNL     1      32.964  11.394  44.244  1.00  0.00    -0.006 C 
HETATM    7  C9  UNL     1      31.820  12.109  43.572  1.00  0.00     0.032 C 
HETATM    8  C10 UNL     1      31.138  13.072  44.426  1.00  0.00     0.021 C 
HETATM    9  C11 UNL     1      30.550  13.987  45.134  1.00  0.00     0.094 C 
HETATM   10  N2  UNL     1      29.828  14.226  46.296  1.00  0.00    -0.353 N 
HETATM   11  C12 UNL     1      28.822  13.383  46.802  1.00  0.00     0.089 C 
HETATM   12  C13 UNL     1      27.714  12.772  47.127  1.00  0.00     0.018 C 
HETATM   13  C14 UNL     1      27.044  11.717  47.826  1.00  0.00     0.016 C 
HETATM   14  C15 UNL     1      27.483  10.750  48.583  1.00  0.00    -0.008 C 
HETATM   15 BR1  UNL     1      26.164   9.578  49.298  1.00  0.00    -0.056 Br
HETATM   16  C16 UNL     1      28.762  10.222  49.102  1.00  0.00     0.073 C 
HETATM   17  C17 UNL     1      29.011   8.834  48.729  1.00  0.00    -0.022 C 
HETATM   18  C18 UNL     1      29.024   7.605  48.287  1.00  0.00    -0.004 C 
HETATM   19  C19 UNL     1      29.542   6.270  48.080  1.00  0.00    -0.002 C 
HETATM   20  C20 UNL     1      30.652   5.693  48.465  1.00  0.00     0.008 C 
HETATM   21  C21 UNL     1      31.944   5.773  49.186  1.00  0.00     0.240 C 
HETATM   22  C22 UNL     1      32.672   7.089  48.898  1.00  0.00     0.042 C 
HETATM   23  C23 UNL     1      32.907   7.249  47.424  1.00  0.00     0.035 C 
HETATM   24  H16 UNL     1      30.098  15.101  46.774  1.00  0.00     0.166 HD
ENDROOT
BRANCH   1  25
HETATM   25  O1  UNL     1      33.651   4.975  46.903  1.00  0.00    -0.385 OA
BRANCH  25  26
HETATM   26  C2  UNL     1      32.938   4.401  45.875  1.00  0.00     0.163 C 
HETATM   27  C1  UNL     1      32.174   3.169  46.278  1.00  0.00     0.033 C 
ENDBRANCH  25  26
ENDBRANCH   1  25
BRANCH  21  28
HETATM   28  N3  UNL     1      31.584   5.760  50.617  1.00  0.00     0.086 N 
HETATM   29  H27 UNL     1      32.332   5.355  51.207  1.00  0.00     0.313 HD
HETATM   30  H28 UNL     1      30.750   5.135  50.703  1.00  0.00     0.313 HD
ENDBRANCH  21  28
BRANCH   9  31
HETATM   31  N1  UNL     1      30.946  14.908  44.146  1.00  0.00    -0.386 N 
HETATM   32  H14 UNL     1      31.351  15.833  43.885  1.00  0.00     0.157 HD
HETATM   33  H15 UNL     1      30.928  14.888  43.109  1.00  0.00     0.157 HD
ENDBRANCH   9  31
TORSDOF 4
ENDMDL
