MODEL 1
REMARK VINA RESULT:      -7.5      0.000      0.000
REMARK  5 active torsions:
REMARK  status: ('A' for Active; 'I' for Inactive)
REMARK    1  A    between atoms: C1_2  and  C2_4 
REMARK    2  A    between atoms: C2_4  and  O2_5 
REMARK    3  A    between atoms: O2_5  and  C3_6 
REMARK    4  A    between atoms: C7_10  and  N1_11 
REMARK    5  A    between atoms: N1_11  and  C8_12 
ROOT
HETATM    1  C3  UNL     1      25.437  -0.864  53.535  1.00  0.00     0.197 A 
HETATM    2  C4  UNL     1      25.981   0.097  52.544  1.00  0.00     0.012 A 
HETATM    3  C5  UNL     1      25.023   0.958  52.160  1.00  0.00     0.016 A 
HETATM    4  C6  UNL     1      23.759   0.670  52.847  1.00  0.00     0.037 A 
HETATM    5  C7  UNL     1      22.459   1.119  52.924  1.00  0.00     0.141 A 
HETATM    6  N2  UNL     1      21.545   0.548  53.727  1.00  0.00    -0.224 NA
HETATM    7  C13 UNL     1      21.832  -0.506  54.515  1.00  0.00     0.235 A 
HETATM    8  N3  UNL     1      23.104  -0.962  54.454  1.00  0.00    -0.242 NA
HETATM    9  C14 UNL     1      24.029  -0.425  53.676  1.00  0.00     0.082 A 
ENDROOT
BRANCH   5  10
HETATM   10  N1  UNL     1      22.239   2.237  52.039  1.00  0.00    -0.344 N 
HETATM   11  H6  UNL     1      22.166   3.285  52.191  1.00  0.00     0.167 HD
BRANCH  10  12
HETATM   12  C8  UNL     1      22.075   1.937  50.657  1.00  0.00     0.014 A 
HETATM   13  C9  UNL     1      22.694   2.705  49.763  1.00  0.00     0.025 A 
HETATM   14  C10 UNL     1      22.452   2.308  48.401  1.00  0.00    -0.002 A 
HETATM   15  C11 UNL     1      21.643   1.244  48.480  1.00  0.00    -0.021 A 
HETATM   16  C12 UNL     1      21.318   0.893  49.896  1.00  0.00     0.084 A 
ENDBRANCH  10  12
ENDBRANCH   5  10
BRANCH   1  17
HETATM   17  O2  UNL     1      26.186  -0.816  54.683  1.00  0.00    -0.368 OA
BRANCH  17  18
HETATM   18  C2  UNL     1      26.922   0.368  54.780  1.00  0.00     0.260 C 
BRANCH  18  19
HETATM   19  C1  UNL     1      28.363   0.193  54.487  1.00  0.00     0.218 C 
HETATM   20  O1  UNL     1      29.002   1.066  55.040  1.00  0.00    -0.283 OA
HETATM   21 BR1  UNL     1      29.882  -0.630  53.721  1.00  0.00    -0.007 Br
ENDBRANCH  18  19
ENDBRANCH  17  18
ENDBRANCH   1  17
TORSDOF 5
ENDMDL
MODEL 2
REMARK VINA RESULT:      -7.5      4.244      6.832
REMARK  5 active torsions:
REMARK  status: ('A' for Active; 'I' for Inactive)
REMARK    1  A    between atoms: C1_2  and  C2_4 
REMARK    2  A    between atoms: C2_4  and  O2_5 
REMARK    3  A    between atoms: O2_5  and  C3_6 
REMARK    4  A    between atoms: C7_10  and  N1_11 
REMARK    5  A    between atoms: N1_11  and  C8_12 
ROOT
HETATM    1  C3  UNL     1      21.501   0.190  53.426  1.00  0.00     0.197 A 
HETATM    2  C4  UNL     1      22.025   0.875  52.219  1.00  0.00     0.012 A 
HETATM    3  C5  UNL     1      23.365   0.787  52.182  1.00  0.00     0.016 A 
HETATM    4  C6  UNL     1      23.870   0.041  53.340  1.00  0.00     0.037 A 
HETATM    5  C7  UNL     1      25.052  -0.391  53.899  1.00  0.00     0.141 A 
HETATM    6  N2  UNL     1      25.095  -1.092  55.044  1.00  0.00    -0.224 NA
HETATM    7  C13 UNL     1      23.985  -1.424  55.732  1.00  0.00     0.235 A 
HETATM    8  N3  UNL     1      22.813  -1.009  55.199  1.00  0.00    -0.242 NA
HETATM    9  C14 UNL     1      22.734  -0.317  54.075  1.00  0.00     0.082 A 
ENDROOT
BRANCH   5  10
HETATM   10  N1  UNL     1      26.186   0.019  53.107  1.00  0.00    -0.344 N 
HETATM   11  H6  UNL     1      26.371   0.849  52.470  1.00  0.00     0.167 HD
BRANCH  10  12
HETATM   12  C8  UNL     1      27.332  -0.826  53.142  1.00  0.00     0.014 A 
HETATM   13  C9  UNL     1      28.482  -0.317  53.575  1.00  0.00     0.025 A 
HETATM   14  C10 UNL     1      29.568  -1.262  53.563  1.00  0.00    -0.002 A 
HETATM   15  C11 UNL     1      29.041  -2.401  53.097  1.00  0.00    -0.021 A 
HETATM   16  C12 UNL     1      27.587  -2.257  52.783  1.00  0.00     0.084 A 
ENDBRANCH  10  12
ENDBRANCH   5  10
BRANCH   1  17
HETATM   17  O2  UNL     1      20.595  -0.771  53.055  1.00  0.00    -0.368 OA
BRANCH  17  18
HETATM   18  C2  UNL     1      19.284  -0.286  53.060  1.00  0.00     0.260 C 
BRANCH  18  19
HETATM   19  C1  UNL     1      18.270  -1.329  53.335  1.00  0.00     0.218 C 
HETATM   20  O1  UNL     1      17.165  -0.827  53.362  1.00  0.00    -0.283 OA
HETATM   21 BR1  UNL     1      17.641  -3.076  53.687  1.00  0.00    -0.007 Br
ENDBRANCH  18  19
ENDBRANCH  17  18
ENDBRANCH   1  17
TORSDOF 5
ENDMDL
MODEL 3
REMARK VINA RESULT:      -7.3      4.174      6.845
REMARK  5 active torsions:
REMARK  status: ('A' for Active; 'I' for Inactive)
REMARK    1  A    between atoms: C1_2  and  C2_4 
REMARK    2  A    between atoms: C2_4  and  O2_5 
REMARK    3  A    between atoms: O2_5  and  C3_6 
REMARK    4  A    between atoms: C7_10  and  N1_11 
REMARK    5  A    between atoms: N1_11  and  C8_12 
ROOT
HETATM    1  C3  UNL     1      22.331   0.087  52.460  1.00  0.00     0.197 A 
HETATM    2  C4  UNL     1      22.610  -0.815  53.604  1.00  0.00     0.012 A 
HETATM    3  C5  UNL     1      23.836  -0.573  54.096  1.00  0.00     0.016 A 
HETATM    4  C6  UNL     1      24.494   0.503  53.347  1.00  0.00     0.037 A 
HETATM    5  C7  UNL     1      25.677   1.209  53.308  1.00  0.00     0.141 A 
HETATM    6  N2  UNL     1      25.907   2.181  52.410  1.00  0.00    -0.224 NA
HETATM    7  C13 UNL     1      25.000   2.538  51.481  1.00  0.00     0.235 A 
HETATM    8  N3  UNL     1      23.831   1.856  51.502  1.00  0.00    -0.242 NA
HETATM    9  C14 UNL     1      23.571   0.894  52.371  1.00  0.00     0.082 A 
ENDROOT
BRANCH   5  10
HETATM   10  N1  UNL     1      26.592   0.753  54.326  1.00  0.00    -0.344 N 
HETATM   11  H6  UNL     1      26.670   0.928  55.370  1.00  0.00     0.167 HD
BRANCH  10  12
HETATM   12  C8  UNL     1      27.636  -0.119  53.904  1.00  0.00     0.014 A 
HETATM   13  C9  UNL     1      28.874   0.122  54.328  1.00  0.00     0.025 A 
HETATM   14  C10 UNL     1      29.843  -0.822  53.835  1.00  0.00    -0.002 A 
HETATM   15  C11 UNL     1      29.149  -1.676  53.073  1.00  0.00    -0.021 A 
HETATM   16  C12 UNL     1      27.695  -1.335  53.031  1.00  0.00     0.084 A 
ENDBRANCH  10  12
ENDBRANCH   5  10
BRANCH   1  17
HETATM   17  O2  UNL     1      21.183   0.799  52.703  1.00  0.00    -0.368 OA
BRANCH  17  18
HETATM   18  C2  UNL     1      20.195   0.012  53.300  1.00  0.00     0.260 C 
BRANCH  18  19
HETATM   19  C1  UNL     1      18.999  -0.180  52.448  1.00  0.00     0.218 C 
HETATM   20  O1  UNL     1      18.243  -0.970  52.976  1.00  0.00    -0.283 OA
HETATM   21 BR1  UNL     1      17.889   0.092  50.942  1.00  0.00    -0.007 Br
ENDBRANCH  18  19
ENDBRANCH  17  18
ENDBRANCH   1  17
TORSDOF 5
ENDMDL
MODEL 4
REMARK VINA RESULT:      -7.3      4.080      6.686
REMARK  5 active torsions:
REMARK  status: ('A' for Active; 'I' for Inactive)
REMARK    1  A    between atoms: C1_2  and  C2_4 
REMARK    2  A    between atoms: C2_4  and  O2_5 
REMARK    3  A    between atoms: O2_5  and  C3_6 
REMARK    4  A    between atoms: C7_10  and  N1_11 
REMARK    5  A    between atoms: N1_11  and  C8_12 
ROOT
HETATM    1  C3  UNL     1      21.373  -0.147  53.123  1.00  0.00     0.197 A 
HETATM    2  C4  UNL     1      21.567  -1.023  54.305  1.00  0.00     0.012 A 
HETATM    3  C5  UNL     1      22.870  -1.081  54.629  1.00  0.00     0.016 A 
HETATM    4  C6  UNL     1      23.671  -0.261  53.714  1.00  0.00     0.037 A 
HETATM    5  C7  UNL     1      24.976   0.108  53.475  1.00  0.00     0.141 A 
HETATM    6  N2  UNL     1      25.321   0.932  52.472  1.00  0.00    -0.224 NA
HETATM    7  C13 UNL     1      24.417   1.459  51.625  1.00  0.00     0.235 A 
HETATM    8  N3  UNL     1      23.128   1.109  51.842  1.00  0.00    -0.242 NA
HETATM    9  C14 UNL     1      22.753   0.300  52.819  1.00  0.00     0.082 A 
ENDROOT
BRANCH   5  10
HETATM   10  N1  UNL     1      25.875  -0.511  54.418  1.00  0.00    -0.344 N 
HETATM   11  H6  UNL     1      25.738  -0.966  55.368  1.00  0.00     0.167 HD
BRANCH  10  12
HETATM   12  C8  UNL     1      27.253  -0.552  54.059  1.00  0.00     0.014 A 
HETATM   13  C9  UNL     1      28.096   0.265  54.685  1.00  0.00     0.025 A 
HETATM   14  C10 UNL     1      29.458   0.136  54.236  1.00  0.00    -0.002 A 
HETATM   15  C11 UNL     1      29.431  -0.808  53.288  1.00  0.00    -0.021 A 
HETATM   16  C12 UNL     1      28.053  -1.344  53.071  1.00  0.00     0.084 A 
ENDBRANCH  10  12
ENDBRANCH   5  10
BRANCH   1  17
HETATM   17  O2  UNL     1      20.486   0.853  53.431  1.00  0.00    -0.368 OA
BRANCH  17  18
HETATM   18  C2  UNL     1      19.635   1.146  52.361  1.00  0.00     0.260 C 
BRANCH  18  19
HETATM   19  C1  UNL     1      19.659   2.571  51.961  1.00  0.00     0.218 C 
HETATM   20  O1  UNL     1      20.108   3.243  52.868  1.00  0.00    -0.283 OA
HETATM   21 BR1  UNL     1      19.391   4.047  50.811  1.00  0.00    -0.007 Br
ENDBRANCH  18  19
ENDBRANCH  17  18
ENDBRANCH   1  17
TORSDOF 5
ENDMDL
MODEL 5
REMARK VINA RESULT:      -7.2      1.932      2.433
REMARK  5 active torsions:
REMARK  status: ('A' for Active; 'I' for Inactive)
REMARK    1  A    between atoms: C1_2  and  C2_4 
REMARK    2  A    between atoms: C2_4  and  O2_5 
REMARK    3  A    between atoms: O2_5  and  C3_6 
REMARK    4  A    between atoms: C7_10  and  N1_11 
REMARK    5  A    between atoms: N1_11  and  C8_12 
ROOT
HETATM    1  C3  UNL     1      24.947   0.293  53.005  1.00  0.00     0.197 A 
HETATM    2  C4  UNL     1      24.618   1.427  52.106  1.00  0.00     0.012 A 
HETATM    3  C5  UNL     1      23.305   1.702  52.168  1.00  0.00     0.016 A 
HETATM    4  C6  UNL     1      22.628   0.796  53.104  1.00  0.00     0.037 A 
HETATM    5  C7  UNL     1      21.377   0.528  53.614  1.00  0.00     0.141 A 
HETATM    6  N2  UNL     1      21.157  -0.449  54.509  1.00  0.00    -0.224 NA
HETATM    7  C13 UNL     1      22.143  -1.239  54.975  1.00  0.00     0.235 A 
HETATM    8  N3  UNL     1      23.380  -0.993  54.486  1.00  0.00    -0.242 NA
HETATM    9  C14 UNL     1      23.632  -0.040  53.604  1.00  0.00     0.082 A 
ENDROOT
BRANCH   5  10
HETATM   10  N1  UNL     1      20.383   1.411  53.052  1.00  0.00    -0.344 N 
HETATM   11  H6  UNL     1      20.197   2.452  53.141  1.00  0.00     0.167 HD
BRANCH  10  12
HETATM   12  C8  UNL     1      19.417   0.820  52.188  1.00  0.00     0.014 A 
HETATM   13  C9  UNL     1      19.275   1.318  50.962  1.00  0.00     0.025 A 
HETATM   14  C10 UNL     1      18.270   0.643  50.182  1.00  0.00    -0.002 A 
HETATM   15  C11 UNL     1      17.781  -0.310  50.984  1.00  0.00    -0.021 A 
HETATM   16  C12 UNL     1      18.442  -0.308  52.324  1.00  0.00     0.084 A 
ENDBRANCH  10  12
ENDBRANCH   5  10
BRANCH   1  17
HETATM   17  O2  UNL     1      25.918   0.676  53.895  1.00  0.00    -0.368 OA
BRANCH  17  18
HETATM   18  C2  UNL     1      27.146   0.901  53.267  1.00  0.00     0.260 C 
BRANCH  18  19
HETATM   19  C1  UNL     1      28.220  -0.009  53.728  1.00  0.00     0.218 C 
HETATM   20  O1  UNL     1      28.006  -0.347  54.874  1.00  0.00    -0.283 OA
HETATM   21 BR1  UNL     1      29.815  -1.012  53.580  1.00  0.00    -0.007 Br
ENDBRANCH  18  19
ENDBRANCH  17  18
ENDBRANCH   1  17
TORSDOF 5
ENDMDL
MODEL 6
REMARK VINA RESULT:      -7.1      3.920      6.840
REMARK  5 active torsions:
REMARK  status: ('A' for Active; 'I' for Inactive)
REMARK    1  A    between atoms: C1_2  and  C2_4 
REMARK    2  A    between atoms: C2_4  and  O2_5 
REMARK    3  A    between atoms: O2_5  and  C3_6 
REMARK    4  A    between atoms: C7_10  and  N1_11 
REMARK    5  A    between atoms: N1_11  and  C8_12 
ROOT
HETATM    1  C3  UNL     1      23.186   1.377  51.628  1.00  0.00     0.197 A 
HETATM    2  C4  UNL     1      23.164   0.589  52.885  1.00  0.00     0.012 A 
HETATM    3  C5  UNL     1      24.375   0.609  53.466  1.00  0.00     0.016 A 
HETATM    4  C6  UNL     1      25.319   1.403  52.672  1.00  0.00     0.037 A 
HETATM    5  C7  UNL     1      26.635   1.812  52.673  1.00  0.00     0.141 A 
HETATM    6  N2  UNL     1      27.151   2.584  51.702  1.00  0.00    -0.224 NA
HETATM    7  C13 UNL     1      26.421   3.014  50.655  1.00  0.00     0.235 A 
HETATM    8  N3  UNL     1      25.126   2.623  50.635  1.00  0.00    -0.242 NA
HETATM    9  C14 UNL     1      24.585   1.864  51.574  1.00  0.00     0.082 A 
ENDROOT
BRANCH   5  10
HETATM   10  N1  UNL     1      27.342   1.295  53.819  1.00  0.00    -0.344 N 
HETATM   11  H6  UNL     1      27.419   1.605  54.831  1.00  0.00     0.167 HD
BRANCH  10  12
HETATM   12  C8  UNL     1      28.124   0.122  53.614  1.00  0.00     0.014 A 
HETATM   13  C9  UNL     1      29.418   0.160  53.921  1.00  0.00     0.025 A 
HETATM   14  C10 UNL     1      30.103  -1.081  53.669  1.00  0.00    -0.002 A 
HETATM   15  C11 UNL     1      29.171  -1.908  53.182  1.00  0.00    -0.021 A 
HETATM   16  C12 UNL     1      27.831  -1.252  53.094  1.00  0.00     0.084 A 
ENDBRANCH  10  12
ENDBRANCH   5  10
BRANCH   1  17
HETATM   17  O2  UNL     1      22.226   2.355  51.679  1.00  0.00    -0.368 OA
BRANCH  17  18
HETATM   18  C2  UNL     1      21.193   2.124  50.766  1.00  0.00     0.260 C 
BRANCH  18  19
HETATM   19  C1  UNL     1      21.567   2.422  49.364  1.00  0.00     0.218 C 
HETATM   20  O1  UNL     1      20.969   3.407  48.982  1.00  0.00    -0.283 OA
HETATM   21 BR1  UNL     1      22.474   2.163  47.726  1.00  0.00    -0.007 Br
ENDBRANCH  18  19
ENDBRANCH  17  18
ENDBRANCH   1  17
TORSDOF 5
ENDMDL
MODEL 7
REMARK VINA RESULT:      -6.9      3.710      4.739
REMARK  5 active torsions:
REMARK  status: ('A' for Active; 'I' for Inactive)
REMARK    1  A    between atoms: C1_2  and  C2_4 
REMARK    2  A    between atoms: C2_4  and  O2_5 
REMARK    3  A    between atoms: O2_5  and  C3_6 
REMARK    4  A    between atoms: C7_10  and  N1_11 
REMARK    5  A    between atoms: N1_11  and  C8_12 
ROOT
HETATM    1  C3  UNL     1      25.767   1.847  52.563  1.00  0.00     0.197 A 
HETATM    2  C4  UNL     1      26.724   1.783  51.431  1.00  0.00     0.012 A 
HETATM    3  C5  UNL     1      26.439   2.738  50.530  1.00  0.00     0.016 A 
HETATM    4  C6  UNL     1      25.282   3.530  50.960  1.00  0.00     0.037 A 
HETATM    5  C7  UNL     1      24.500   4.588  50.549  1.00  0.00     0.141 A 
HETATM    6  N2  UNL     1      23.465   5.043  51.274  1.00  0.00    -0.224 NA
HETATM    7  C13 UNL     1      23.113   4.500  52.455  1.00  0.00     0.235 A 
HETATM    8  N3  UNL     1      23.869   3.460  52.876  1.00  0.00    -0.242 NA
HETATM    9  C14 UNL     1      24.895   2.985  52.189  1.00  0.00     0.082 A 
ENDROOT
BRANCH   5  10
HETATM   10  N1  UNL     1      24.938   5.098  49.273  1.00  0.00    -0.344 N 
HETATM   11  H6  UNL     1      24.746   4.814  48.268  1.00  0.00     0.167 HD
BRANCH  10  12
HETATM   12  C8  UNL     1      25.816   6.219  49.298  1.00  0.00     0.014 A 
HETATM   13  C9  UNL     1      26.867   6.220  48.481  1.00  0.00     0.025 A 
HETATM   14  C10 UNL     1      27.682   7.401  48.598  1.00  0.00    -0.002 A 
HETATM   15  C11 UNL     1      27.089   8.149  49.535  1.00  0.00    -0.021 A 
HETATM   16  C12 UNL     1      25.858   7.497  50.077  1.00  0.00     0.084 A 
ENDBRANCH  10  12
ENDBRANCH   5  10
BRANCH   1  17
HETATM   17  O2  UNL     1      26.454   1.995  53.741  1.00  0.00    -0.368 OA
BRANCH  17  18
HETATM   18  C2  UNL     1      26.692   0.769  54.368  1.00  0.00     0.260 C 
BRANCH  18  19
HETATM   19  C1  UNL     1      28.111   0.349  54.325  1.00  0.00     0.218 C 
HETATM   20  O1  UNL     1      28.755   1.006  55.117  1.00  0.00    -0.283 OA
HETATM   21 BR1  UNL     1      29.597  -0.660  53.736  1.00  0.00    -0.007 Br
ENDBRANCH  18  19
ENDBRANCH  17  18
ENDBRANCH   1  17
TORSDOF 5
ENDMDL
MODEL 8
REMARK VINA RESULT:      -6.9      4.154      6.798
REMARK  5 active torsions:
REMARK  status: ('A' for Active; 'I' for Inactive)
REMARK    1  A    between atoms: C1_2  and  C2_4 
REMARK    2  A    between atoms: C2_4  and  O2_5 
REMARK    3  A    between atoms: O2_5  and  C3_6 
REMARK    4  A    between atoms: C7_10  and  N1_11 
REMARK    5  A    between atoms: N1_11  and  C8_12 
ROOT
HETATM    1  C3  UNL     1      23.081   1.982  51.224  1.00  0.00     0.197 A 
HETATM    2  C4  UNL     1      22.900   1.276  52.516  1.00  0.00     0.012 A 
HETATM    3  C5  UNL     1      24.075   1.179  53.160  1.00  0.00     0.016 A 
HETATM    4  C6  UNL     1      25.148   1.804  52.380  1.00  0.00     0.037 A 
HETATM    5  C7  UNL     1      26.503   2.048  52.431  1.00  0.00     0.141 A 
HETATM    6  N2  UNL     1      27.158   2.694  51.451  1.00  0.00    -0.224 NA
HETATM    7  C13 UNL     1      26.539   3.150  50.346  1.00  0.00     0.235 A 
HETATM    8  N3  UNL     1      25.207   2.921  50.276  1.00  0.00    -0.242 NA
HETATM    9  C14 UNL     1      24.531   2.289  51.221  1.00  0.00     0.082 A 
ENDROOT
BRANCH   5  10
HETATM   10  N1  UNL     1      27.085   1.514  53.638  1.00  0.00    -0.344 N 
HETATM   11  H6  UNL     1      27.021   1.786  54.663  1.00  0.00     0.167 HD
BRANCH  10  12
HETATM   12  C8  UNL     1      27.937   0.382  53.493  1.00  0.00     0.014 A 
HETATM   13  C9  UNL     1      29.231   0.521  53.772  1.00  0.00     0.025 A 
HETATM   14  C10 UNL     1      29.990  -0.688  53.585  1.00  0.00    -0.002 A 
HETATM   15  C11 UNL     1      29.105  -1.602  53.171  1.00  0.00    -0.021 A 
HETATM   16  C12 UNL     1      27.725  -1.038  53.068  1.00  0.00     0.084 A 
ENDBRANCH  10  12
ENDBRANCH   5  10
BRANCH   1  17
HETATM   17  O2  UNL     1      22.250   3.072  51.173  1.00  0.00    -0.368 OA
BRANCH  17  18
HETATM   18  C2  UNL     1      22.694   4.109  51.997  1.00  0.00     0.260 C 
BRANCH  18  19
HETATM   19  C1  UNL     1      22.629   5.442  51.355  1.00  0.00     0.218 C 
HETATM   20  O1  UNL     1      21.497   5.658  50.974  1.00  0.00    -0.283 OA
HETATM   21 BR1  UNL     1      23.302   7.099  50.744  1.00  0.00    -0.007 Br
ENDBRANCH  18  19
ENDBRANCH  17  18
ENDBRANCH   1  17
TORSDOF 5
ENDMDL
MODEL 9
REMARK VINA RESULT:      -6.7      2.552      3.810
REMARK  5 active torsions:
REMARK  status: ('A' for Active; 'I' for Inactive)
REMARK    1  A    between atoms: C1_2  and  C2_4 
REMARK    2  A    between atoms: C2_4  and  O2_5 
REMARK    3  A    between atoms: O2_5  and  C3_6 
REMARK    4  A    between atoms: C7_10  and  N1_11 
REMARK    5  A    between atoms: N1_11  and  C8_12 
ROOT
HETATM    1  C3  UNL     1      24.488   0.034  53.933  1.00  0.00     0.197 A 
HETATM    2  C4  UNL     1      24.011  -0.992  54.893  1.00  0.00     0.012 A 
HETATM    3  C5  UNL     1      22.679  -1.129  54.799  1.00  0.00     0.016 A 
HETATM    4  C6  UNL     1      22.133  -0.226  53.780  1.00  0.00     0.037 A 
HETATM    5  C7  UNL     1      20.934   0.136  53.206  1.00  0.00     0.141 A 
HETATM    6  N2  UNL     1      20.849   1.065  52.238  1.00  0.00    -0.224 NA
HETATM    7  C13 UNL     1      21.928   1.711  51.759  1.00  0.00     0.235 A 
HETATM    8  N3  UNL     1      23.116   1.370  52.310  1.00  0.00    -0.242 NA
HETATM    9  C14 UNL     1      23.236   0.461  53.264  1.00  0.00     0.082 A 
ENDROOT
BRANCH   5  10
HETATM   10  N1  UNL     1      19.834  -0.594  53.787  1.00  0.00    -0.344 N 
HETATM   11  H6  UNL     1      19.688  -1.074  54.723  1.00  0.00     0.167 HD
BRANCH  10  12
HETATM   12  C8  UNL     1      18.665  -0.738  52.985  1.00  0.00     0.014 A 
HETATM   13  C9  UNL     1      17.662  -1.476  53.453  1.00  0.00     0.025 A 
HETATM   14  C10 UNL     1      16.539  -1.550  52.555  1.00  0.00    -0.002 A 
HETATM   15  C11 UNL     1      16.887  -0.818  51.490  1.00  0.00    -0.021 A 
HETATM   16  C12 UNL     1      18.252  -0.228  51.639  1.00  0.00     0.084 A 
ENDBRANCH  10  12
ENDBRANCH   5  10
BRANCH   1  17
HETATM   17  O2  UNL     1      25.439  -0.511  53.109  1.00  0.00    -0.368 OA
BRANCH  17  18
HETATM   18  C2  UNL     1      26.591   0.278  53.041  1.00  0.00     0.260 C 
BRANCH  18  19
HETATM   19  C1  UNL     1      27.801  -0.398  53.562  1.00  0.00     0.218 C 
HETATM   20  O1  UNL     1      27.800  -0.362  54.776  1.00  0.00    -0.283 OA
HETATM   21 BR1  UNL     1      29.437  -1.338  53.451  1.00  0.00    -0.007 Br
ENDBRANCH  18  19
ENDBRANCH  17  18
ENDBRANCH   1  17
TORSDOF 5
ENDMDL
