MODEL 1
REMARK VINA RESULT:      -8.8      0.000      0.000
REMARK  3 active torsions:
REMARK  status: ('A' for Active; 'I' for Inactive)
REMARK    1  A    between atoms: C1_2  and  C2_4 
REMARK    2  A    between atoms: C10_16  and  N4_17 
REMARK    3  A    between atoms: N4_17  and  C11_18 
ROOT
HETATM    1  C2  UNL     1      22.501   3.577  49.394  1.00  0.00     0.006 C 
HETATM    2  C3  UNL     1      23.490   2.775  49.583  1.00  0.00     0.005 C 
HETATM    3  C4  UNL     1      24.071   2.187  50.889  1.00  0.00     0.156 C 
HETATM    4  N1  UNL     1      23.176   2.733  51.938  1.00  0.00    -0.346 N 
HETATM    5  C5  UNL     1      22.653   4.073  52.286  1.00  0.00     0.097 C 
HETATM    6  C6  UNL     1      21.474   3.809  51.648  1.00  0.00    -0.036 C 
HETATM    7  C7  UNL     1      20.197   3.280  52.259  1.00  0.00     0.213 C 
HETATM    8  O2  UNL     1      20.371   2.070  52.987  1.00  0.00    -0.328 OA
HETATM    9  C8  UNL     1      21.504   1.217  53.075  1.00  0.00     0.197 A 
HETATM   10  N2  UNL     1      21.346   0.033  53.642  1.00  0.00    -0.216 NA
HETATM   11  C9  UNL     1      22.403  -0.802  53.744  1.00  0.00     0.238 A 
HETATM   12  N3  UNL     1      23.649  -0.529  53.308  1.00  0.00    -0.222 NA
HETATM   13  C10 UNL     1      23.931   0.660  52.709  1.00  0.00     0.161 A 
HETATM   14  C17 UNL     1      22.828   1.471  52.627  1.00  0.00     0.134 A 
HETATM   15  C18 UNL     1      21.316   3.953  50.158  1.00  0.00     0.081 C 
ENDROOT
BRANCH  13  16
HETATM   16  N4  UNL     1      25.182   1.131  52.217  1.00  0.00    -0.339 N 
HETATM   17  H8  UNL     1      24.982   1.904  51.489  1.00  0.00     0.167 HD
BRANCH  16  18
HETATM   18  C11 UNL     1      26.484   0.690  52.754  1.00  0.00     0.035 A 
HETATM   19  C12 UNL     1      26.781  -0.622  52.519  1.00  0.00     0.032 A 
HETATM   20  C13 UNL     1      27.987  -1.075  52.982  1.00  0.00     0.046 A 
HETATM   21  C14 UNL     1      28.843  -0.212  53.652  1.00  0.00     0.138 A 
HETATM   22  F1  UNL     1      30.018  -0.714  54.086  1.00  0.00    -0.204 F 
HETATM   23  C15 UNL     1      28.454   1.103  53.842  1.00  0.00     0.074 A 
HETATM   24 CL2  UNL     1      29.618   2.079  54.698  1.00  0.00    -0.081 Cl
HETATM   25  C16 UNL     1      27.248   1.625  53.401  1.00  0.00     0.056 A 
ENDBRANCH  16  18
ENDBRANCH  13  16
BRANCH   1  26
HETATM   26  C1  UNL     1      22.635   4.268  48.083  1.00  0.00     0.248 C 
HETATM   27  O1  UNL     1      23.313   5.304  48.100  1.00  0.00    -0.274 OA
HETATM   28 CL1  UNL     1      21.919   3.702  46.600  1.00  0.00    -0.039 Cl
ENDBRANCH   1  26
TORSDOF 3
ENDMDL
MODEL 2
REMARK VINA RESULT:      -8.7      1.592      1.846
REMARK  3 active torsions:
REMARK  status: ('A' for Active; 'I' for Inactive)
REMARK    1  A    between atoms: C1_2  and  C2_4 
REMARK    2  A    between atoms: C10_16  and  N4_17 
REMARK    3  A    between atoms: N4_17  and  C11_18 
ROOT
HETATM    1  C2  UNL     1      23.578   4.387  49.781  1.00  0.00     0.006 C 
HETATM    2  C3  UNL     1      24.532   3.545  49.971  1.00  0.00     0.005 C 
HETATM    3  C4  UNL     1      24.922   2.736  51.229  1.00  0.00     0.156 C 
HETATM    4  N1  UNL     1      23.884   3.118  52.217  1.00  0.00    -0.346 N 
HETATM    5  C5  UNL     1      23.311   4.392  52.707  1.00  0.00     0.097 C 
HETATM    6  C6  UNL     1      22.237   4.261  51.873  1.00  0.00    -0.036 C 
HETATM    7  C7  UNL     1      20.887   3.665  52.198  1.00  0.00     0.213 C 
HETATM    8  O2  UNL     1      20.960   2.347  52.730  1.00  0.00    -0.328 OA
HETATM    9  C8  UNL     1      22.071   1.469  52.835  1.00  0.00     0.197 A 
HETATM   10  N2  UNL     1      21.838   0.210  53.167  1.00  0.00    -0.216 NA
HETATM   11  C9  UNL     1      22.872  -0.651  53.277  1.00  0.00     0.238 A 
HETATM   12  N3  UNL     1      24.167  -0.335  53.075  1.00  0.00    -0.222 NA
HETATM   13  C10 UNL     1      24.528   0.931  52.730  1.00  0.00     0.161 A 
HETATM   14  C17 UNL     1      23.445   1.767  52.629  1.00  0.00     0.134 A 
HETATM   15  C18 UNL     1      22.294   4.655  50.420  1.00  0.00     0.081 C 
ENDROOT
BRANCH  13  16
HETATM   16  N4  UNL     1      25.835   1.452  52.507  1.00  0.00    -0.339 N 
HETATM   17  H8  UNL     1      25.730   2.450  52.109  1.00  0.00     0.167 HD
BRANCH  16  18
HETATM   18  C11 UNL     1      27.069   0.746  52.903  1.00  0.00     0.035 A 
HETATM   19  C12 UNL     1      28.030   1.544  53.452  1.00  0.00     0.032 A 
HETATM   20  C13 UNL     1      29.188   0.933  53.852  1.00  0.00     0.046 A 
HETATM   21  C14 UNL     1      29.340  -0.437  53.692  1.00  0.00     0.138 A 
HETATM   22  F1  UNL     1      30.503  -0.986  54.104  1.00  0.00    -0.204 F 
HETATM   23  C15 UNL     1      28.309  -1.164  53.123  1.00  0.00     0.074 A 
HETATM   24 CL2  UNL     1      28.629  -2.872  52.979  1.00  0.00    -0.081 Cl
HETATM   25  C16 UNL     1      27.113  -0.608  52.697  1.00  0.00     0.056 A 
ENDBRANCH  16  18
ENDBRANCH  13  16
BRANCH   1  26
HETATM   26  C1  UNL     1      23.897   5.283  48.637  1.00  0.00     0.248 C 
HETATM   27  O1  UNL     1      23.033   5.336  47.751  1.00  0.00    -0.274 OA
HETATM   28 CL1  UNL     1      25.361   6.217  48.503  1.00  0.00    -0.039 Cl
ENDBRANCH   1  26
TORSDOF 3
ENDMDL
MODEL 3
REMARK VINA RESULT:      -8.7      3.880      6.608
REMARK  3 active torsions:
REMARK  status: ('A' for Active; 'I' for Inactive)
REMARK    1  A    between atoms: C1_2  and  C2_4 
REMARK    2  A    between atoms: C10_16  and  N4_17 
REMARK    3  A    between atoms: N4_17  and  C11_18 
ROOT
HETATM    1  C2  UNL     1      27.859   1.210  53.736  1.00  0.00     0.006 C 
HETATM    2  C3  UNL     1      27.738   2.171  52.889  1.00  0.00     0.005 C 
HETATM    3  C4  UNL     1      26.744   2.361  51.720  1.00  0.00     0.156 C 
HETATM    4  N1  UNL     1      25.882   1.158  51.805  1.00  0.00    -0.346 N 
HETATM    5  C5  UNL     1      26.113  -0.300  51.918  1.00  0.00     0.097 C 
HETATM    6  C6  UNL     1      25.904  -0.256  53.268  1.00  0.00    -0.036 C 
HETATM    7  C7  UNL     1      24.614  -0.522  54.008  1.00  0.00     0.213 C 
HETATM    8  O2  UNL     1      23.523   0.273  53.554  1.00  0.00    -0.328 OA
HETATM    9  C8  UNL     1      23.510   1.370  52.652  1.00  0.00     0.197 A 
HETATM   10  N2  UNL     1      22.401   2.084  52.560  1.00  0.00    -0.216 NA
HETATM   11  C9  UNL     1      22.354   3.133  51.711  1.00  0.00     0.238 A 
HETATM   12  N3  UNL     1      23.369   3.532  50.918  1.00  0.00    -0.222 NA
HETATM   13  C10 UNL     1      24.559   2.873  50.927  1.00  0.00     0.161 A 
HETATM   14  C17 UNL     1      24.558   1.818  51.805  1.00  0.00     0.134 A 
HETATM   15  C18 UNL     1      26.982   0.156  54.235  1.00  0.00     0.081 C 
ENDROOT
BRANCH  13  16
HETATM   16  N4  UNL     1      25.722   3.129  50.145  1.00  0.00    -0.339 N 
HETATM   17  H8  UNL     1      26.159   2.178  49.880  1.00  0.00     0.167 HD
BRANCH  16  18
HETATM   18  C11 UNL     1      26.122   4.479  49.702  1.00  0.00     0.035 A 
HETATM   19  C12 UNL     1      27.211   4.509  48.880  1.00  0.00     0.032 A 
HETATM   20  C13 UNL     1      27.610   5.738  48.427  1.00  0.00     0.046 A 
HETATM   21  C14 UNL     1      26.914   6.877  48.806  1.00  0.00     0.138 A 
HETATM   22  F1  UNL     1      27.354   8.061  48.329  1.00  0.00    -0.204 F 
HETATM   23  C15 UNL     1      25.821   6.746  49.644  1.00  0.00     0.074 A 
HETATM   24 CL2  UNL     1      25.038   8.253  50.044  1.00  0.00    -0.081 Cl
HETATM   25  C16 UNL     1      25.365   5.535  50.139  1.00  0.00     0.056 A 
ENDBRANCH  16  18
ENDBRANCH  13  16
BRANCH   1  26
HETATM   26  C1  UNL     1      29.230   1.198  54.314  1.00  0.00     0.248 C 
HETATM   27  O1  UNL     1      29.485   2.131  55.087  1.00  0.00    -0.274 OA
HETATM   28 CL1  UNL     1      30.428  -0.018  53.969  1.00  0.00    -0.039 Cl
ENDBRANCH   1  26
TORSDOF 3
ENDMDL
MODEL 4
REMARK VINA RESULT:      -8.7      3.941      5.340
REMARK  3 active torsions:
REMARK  status: ('A' for Active; 'I' for Inactive)
REMARK    1  A    between atoms: C1_2  and  C2_4 
REMARK    2  A    between atoms: C10_16  and  N4_17 
REMARK    3  A    between atoms: N4_17  and  C11_18 
ROOT
HETATM    1  C2  UNL     1      27.851   5.896  48.232  1.00  0.00     0.006 C 
HETATM    2  C3  UNL     1      27.736   4.738  48.781  1.00  0.00     0.005 C 
HETATM    3  C4  UNL     1      26.616   4.155  49.672  1.00  0.00     0.156 C 
HETATM    4  N1  UNL     1      25.621   5.253  49.733  1.00  0.00    -0.346 N 
HETATM    5  C5  UNL     1      25.667   6.704  50.023  1.00  0.00     0.097 C 
HETATM    6  C6  UNL     1      25.668   6.999  48.689  1.00  0.00    -0.036 C 
HETATM    7  C7  UNL     1      24.477   7.330  47.820  1.00  0.00     0.213 C 
HETATM    8  O2  UNL     1      23.449   6.347  47.863  1.00  0.00    -0.328 OA
HETATM    9  C8  UNL     1      23.451   5.054  48.452  1.00  0.00     0.197 A 
HETATM   10  N2  UNL     1      22.447   4.241  48.167  1.00  0.00    -0.216 NA
HETATM   11  C9  UNL     1      22.417   3.006  48.711  1.00  0.00     0.238 A 
HETATM   12  N3  UNL     1      23.348   2.507  49.549  1.00  0.00    -0.222 NA
HETATM   13  C10 UNL     1      24.426   3.252  49.914  1.00  0.00     0.161 A 
HETATM   14  C17 UNL     1      24.413   4.496  49.336  1.00  0.00     0.134 A 
HETATM   15  C18 UNL     1      26.923   6.958  47.858  1.00  0.00     0.081 C 
ENDROOT
BRANCH  13  16
HETATM   16  N4  UNL     1      25.485   2.907  50.803  1.00  0.00    -0.339 N 
HETATM   17  H8  UNL     1      26.250   3.665  50.717  1.00  0.00     0.167 HD
BRANCH  16  18
HETATM   18  C11 UNL     1      25.418   1.772  51.744  1.00  0.00     0.035 A 
HETATM   19  C12 UNL     1      24.337   1.787  52.577  1.00  0.00     0.032 A 
HETATM   20  C13 UNL     1      24.220   0.745  53.457  1.00  0.00     0.046 A 
HETATM   21  C14 UNL     1      25.174  -0.263  53.470  1.00  0.00     0.138 A 
HETATM   22  F1  UNL     1      25.007  -1.265  54.360  1.00  0.00    -0.204 F 
HETATM   23  C15 UNL     1      26.236  -0.191  52.586  1.00  0.00     0.074 A 
HETATM   24 CL2  UNL     1      27.362  -1.517  52.708  1.00  0.00    -0.081 Cl
HETATM   25  C16 UNL     1      26.415   0.835  51.672  1.00  0.00     0.056 A 
ENDBRANCH  16  18
ENDBRANCH  13  16
BRANCH   1  26
HETATM   26  C1  UNL     1      29.277   6.187  47.927  1.00  0.00     0.248 C 
HETATM   27  O1  UNL     1      30.100   5.486  48.531  1.00  0.00    -0.274 OA
HETATM   28 CL1  UNL     1      29.810   7.410  46.807  1.00  0.00    -0.039 Cl
ENDBRANCH   1  26
TORSDOF 3
ENDMDL
MODEL 5
REMARK VINA RESULT:      -8.5      2.688      4.353
REMARK  3 active torsions:
REMARK  status: ('A' for Active; 'I' for Inactive)
REMARK    1  A    between atoms: C1_2  and  C2_4 
REMARK    2  A    between atoms: C10_16  and  N4_17 
REMARK    3  A    between atoms: N4_17  and  C11_18 
ROOT
HETATM    1  C2  UNL     1      19.591  -0.038  52.587  1.00  0.00     0.006 C 
HETATM    2  C3  UNL     1      20.620   0.112  53.346  1.00  0.00     0.005 C 
HETATM    3  C4  UNL     1      22.017   0.697  53.039  1.00  0.00     0.156 C 
HETATM    4  N1  UNL     1      21.909   1.115  51.620  1.00  0.00    -0.346 N 
HETATM    5  C5  UNL     1      21.443   0.482  50.366  1.00  0.00     0.097 C 
HETATM    6  C6  UNL     1      20.231   1.104  50.471  1.00  0.00    -0.036 C 
HETATM    7  C7  UNL     1      19.807   2.406  49.833  1.00  0.00     0.213 C 
HETATM    8  O2  UNL     1      20.678   3.493  50.126  1.00  0.00    -0.328 OA
HETATM    9  C8  UNL     1      21.760   3.571  51.043  1.00  0.00     0.197 A 
HETATM   10  N2  UNL     1      22.278   4.762  51.292  1.00  0.00    -0.216 NA
HETATM   11  C9  UNL     1      23.308   4.872  52.157  1.00  0.00     0.238 A 
HETATM   12  N3  UNL     1      23.880   3.842  52.814  1.00  0.00    -0.222 NA
HETATM   13  C10 UNL     1      23.431   2.570  52.637  1.00  0.00     0.161 A 
HETATM   14  C17 UNL     1      22.385   2.510  51.751  1.00  0.00     0.134 A 
HETATM   15  C18 UNL     1      19.127   0.570  51.345  1.00  0.00     0.081 C 
ENDROOT
BRANCH  13  16
HETATM   16  N4  UNL     1      23.925   1.365  53.215  1.00  0.00    -0.339 N 
HETATM   17  H8  UNL     1      23.076   0.782  53.541  1.00  0.00     0.167 HD
BRANCH  16  18
HETATM   18  C11 UNL     1      25.351   0.988  53.213  1.00  0.00     0.035 A 
HETATM   19  C12 UNL     1      25.595  -0.317  52.896  1.00  0.00     0.032 A 
HETATM   20  C13 UNL     1      26.905  -0.711  52.862  1.00  0.00     0.046 A 
HETATM   21  C14 UNL     1      27.912   0.201  53.141  1.00  0.00     0.138 A 
HETATM   22  F1  UNL     1      29.186  -0.244  53.094  1.00  0.00    -0.204 F 
HETATM   23  C15 UNL     1      27.567   1.505  53.454  1.00  0.00     0.074 A 
HETATM   24 CL2  UNL     1      28.925   2.547  53.785  1.00  0.00    -0.081 Cl
HETATM   25  C16 UNL     1      26.262   1.969  53.506  1.00  0.00     0.056 A 
ENDBRANCH  16  18
ENDBRANCH  13  16
BRANCH   1  26
HETATM   26  C1  UNL     1      18.692  -1.089  53.134  1.00  0.00     0.248 C 
HETATM   27  O1  UNL     1      19.233  -1.907  53.890  1.00  0.00    -0.274 OA
HETATM   28 CL1  UNL     1      16.991  -1.207  52.776  1.00  0.00    -0.039 Cl
ENDBRANCH   1  26
TORSDOF 3
ENDMDL
MODEL 6
REMARK VINA RESULT:      -8.4      3.819      5.703
REMARK  3 active torsions:
REMARK  status: ('A' for Active; 'I' for Inactive)
REMARK    1  A    between atoms: C1_2  and  C2_4 
REMARK    2  A    between atoms: C10_16  and  N4_17 
REMARK    3  A    between atoms: N4_17  and  C11_18 
ROOT
HETATM    1  C2  UNL     1      23.975   6.033  50.817  1.00  0.00     0.006 C 
HETATM    2  C3  UNL     1      23.410   5.361  51.757  1.00  0.00     0.005 C 
HETATM    3  C4  UNL     1      23.342   3.836  52.002  1.00  0.00     0.156 C 
HETATM    4  N1  UNL     1      24.146   3.275  50.889  1.00  0.00    -0.346 N 
HETATM    5  C5  UNL     1      24.187   3.457  49.420  1.00  0.00     0.097 C 
HETATM    6  C6  UNL     1      25.239   4.320  49.529  1.00  0.00    -0.036 C 
HETATM    7  C7  UNL     1      26.711   3.996  49.412  1.00  0.00     0.213 C 
HETATM    8  O2  UNL     1      27.137   2.961  50.290  1.00  0.00    -0.328 OA
HETATM    9  C8  UNL     1      26.441   2.326  51.353  1.00  0.00     0.197 A 
HETATM   10  N2  UNL     1      27.131   1.543  52.166  1.00  0.00    -0.216 NA
HETATM   11  C9  UNL     1      26.500   0.922  53.186  1.00  0.00     0.238 A 
HETATM   12  N3  UNL     1      25.185   1.028  53.461  1.00  0.00    -0.222 NA
HETATM   13  C10 UNL     1      24.374   1.805  52.692  1.00  0.00     0.161 A 
HETATM   14  C17 UNL     1      25.060   2.415  51.672  1.00  0.00     0.134 A 
HETATM   15  C18 UNL     1      25.054   5.775  49.869  1.00  0.00     0.081 C 
ENDROOT
BRANCH  13  16
HETATM   16  N4  UNL     1      22.970   2.013  52.810  1.00  0.00    -0.339 N 
HETATM   17  H8  UNL     1      22.766   3.046  52.570  1.00  0.00     0.167 HD
BRANCH  16  18
HETATM   18  C11 UNL     1      22.009   0.928  53.086  1.00  0.00     0.035 A 
HETATM   19  C12 UNL     1      22.416   0.034  54.035  1.00  0.00     0.032 A 
HETATM   20  C13 UNL     1      21.550  -0.981  54.339  1.00  0.00     0.046 A 
HETATM   21  C14 UNL     1      20.325  -1.066  53.695  1.00  0.00     0.138 A 
HETATM   22  F1  UNL     1      19.512  -2.089  54.034  1.00  0.00    -0.204 F 
HETATM   23  C15 UNL     1      20.000  -0.112  52.745  1.00  0.00     0.074 A 
HETATM   24 CL2  UNL     1      18.434  -0.334  52.011  1.00  0.00    -0.081 Cl
HETATM   25  C16 UNL     1      20.829   0.940  52.390  1.00  0.00     0.056 A 
ENDBRANCH  16  18
ENDBRANCH  13  16
BRANCH   1  26
HETATM   26  C1  UNL     1      23.353   7.379  50.694  1.00  0.00     0.248 C 
HETATM   27  O1  UNL     1      24.146   8.312  50.511  1.00  0.00    -0.274 OA
HETATM   28 CL1  UNL     1      21.640   7.678  50.787  1.00  0.00    -0.039 Cl
ENDBRANCH   1  26
TORSDOF 3
ENDMDL
MODEL 7
REMARK VINA RESULT:      -8.2      7.951      9.354
REMARK  3 active torsions:
REMARK  status: ('A' for Active; 'I' for Inactive)
REMARK    1  A    between atoms: C1_2  and  C2_4 
REMARK    2  A    between atoms: C10_16  and  N4_17 
REMARK    3  A    between atoms: N4_17  and  C11_18 
ROOT
HETATM    1  C2  UNL     1      26.515   5.779  48.868  1.00  0.00     0.006 C 
HETATM    2  C3  UNL     1      27.618   5.124  48.776  1.00  0.00     0.005 C 
HETATM    3  C4  UNL     1      28.986   5.537  48.186  1.00  0.00     0.156 C 
HETATM    4  N1  UNL     1      28.766   6.941  47.763  1.00  0.00    -0.346 N 
HETATM    5  C5  UNL     1      27.741   7.656  46.969  1.00  0.00     0.097 C 
HETATM    6  C6  UNL     1      27.110   8.072  48.107  1.00  0.00    -0.036 C 
HETATM    7  C7  UNL     1      27.294   9.384  48.833  1.00  0.00     0.213 C 
HETATM    8  O2  UNL     1      28.647   9.661  49.175  1.00  0.00    -0.328 OA
HETATM    9  C8  UNL     1      29.795   8.829  49.091  1.00  0.00     0.197 A 
HETATM   10  N2  UNL     1      30.906   9.244  49.678  1.00  0.00    -0.216 NA
HETATM   11  C9  UNL     1      32.016   8.478  49.616  1.00  0.00     0.238 A 
HETATM   12  N3  UNL     1      32.101   7.288  48.987  1.00  0.00    -0.222 NA
HETATM   13  C10 UNL     1      31.022   6.761  48.348  1.00  0.00     0.161 A 
HETATM   14  C17 UNL     1      29.920   7.573  48.440  1.00  0.00     0.134 A 
HETATM   15  C18 UNL     1      26.149   7.191  48.861  1.00  0.00     0.081 C 
ENDROOT
BRANCH  13  16
HETATM   16  N4  UNL     1      30.932   5.544  47.613  1.00  0.00    -0.339 N 
HETATM   17  H8  UNL     1      29.886   5.314  47.479  1.00  0.00     0.167 HD
BRANCH  16  18
HETATM   18  C11 UNL     1      32.105   4.847  47.049  1.00  0.00     0.035 A 
HETATM   19  C12 UNL     1      32.524   3.765  47.768  1.00  0.00     0.032 A 
HETATM   20  C13 UNL     1      33.598   3.074  47.276  1.00  0.00     0.046 A 
HETATM   21  C14 UNL     1      34.206   3.482  46.098  1.00  0.00     0.138 A 
HETATM   22  F1  UNL     1      35.261   2.763  45.661  1.00  0.00    -0.204 F 
HETATM   23  C15 UNL     1      33.709   4.593  45.438  1.00  0.00     0.074 A 
HETATM   24 CL2  UNL     1      34.563   4.999  43.973  1.00  0.00    -0.081 Cl
HETATM   25  C16 UNL     1      32.627   5.337  45.881  1.00  0.00     0.056 A 
ENDBRANCH  16  18
ENDBRANCH  13  16
BRANCH   1  26
HETATM   26  C1  UNL     1      25.366   4.844  49.007  1.00  0.00     0.248 C 
HETATM   27  O1  UNL     1      24.266   5.305  48.672  1.00  0.00    -0.274 OA
HETATM   28 CL1  UNL     1      25.500   3.208  49.587  1.00  0.00    -0.039 Cl
ENDBRANCH   1  26
TORSDOF 3
ENDMDL
MODEL 8
REMARK VINA RESULT:      -8.1      4.208      7.577
REMARK  3 active torsions:
REMARK  status: ('A' for Active; 'I' for Inactive)
REMARK    1  A    between atoms: C1_2  and  C2_4 
REMARK    2  A    between atoms: C10_16  and  N4_17 
REMARK    3  A    between atoms: N4_17  and  C11_18 
ROOT
HETATM    1  C2  UNL     1      25.229   0.538  53.387  1.00  0.00     0.006 C 
HETATM    2  C3  UNL     1      24.091  -0.052  53.277  1.00  0.00     0.005 C 
HETATM    3  C4  UNL     1      22.745   0.459  52.713  1.00  0.00     0.156 C 
HETATM    4  N1  UNL     1      23.064   1.834  52.259  1.00  0.00    -0.346 N 
HETATM    5  C5  UNL     1      23.737   3.012  52.852  1.00  0.00     0.097 C 
HETATM    6  C6  UNL     1      24.902   2.705  52.208  1.00  0.00    -0.036 C 
HETATM    7  C7  UNL     1      25.389   3.241  50.882  1.00  0.00     0.213 C 
HETATM    8  O2  UNL     1      24.457   3.067  49.821  1.00  0.00    -0.328 OA
HETATM    9  C8  UNL     1      23.243   2.330  49.788  1.00  0.00     0.197 A 
HETATM   10  N2  UNL     1      22.664   2.142  48.614  1.00  0.00    -0.216 NA
HETATM   11  C9  UNL     1      21.507   1.447  48.547  1.00  0.00     0.238 A 
HETATM   12  N3  UNL     1      20.865   0.910  49.603  1.00  0.00    -0.222 NA
HETATM   13  C10 UNL     1      21.367   1.041  50.861  1.00  0.00     0.161 A 
HETATM   14  C17 UNL     1      22.541   1.751  50.878  1.00  0.00     0.134 A 
HETATM   15  C18 UNL     1      25.868   1.679  52.740  1.00  0.00     0.081 C 
ENDROOT
BRANCH  13  16
HETATM   16  N4  UNL     1      20.818   0.572  52.090  1.00  0.00    -0.339 N 
HETATM   17  H8  UNL     1      21.499   0.843  52.882  1.00  0.00     0.167 HD
BRANCH  16  18
HETATM   18  C11 UNL     1      19.483  -0.049  52.198  1.00  0.00     0.035 A 
HETATM   19  C12 UNL     1      19.326  -0.876  53.273  1.00  0.00     0.032 A 
HETATM   20  C13 UNL     1      18.099  -1.462  53.428  1.00  0.00     0.046 A 
HETATM   21  C14 UNL     1      17.086  -1.203  52.516  1.00  0.00     0.138 A 
HETATM   22  F1  UNL     1      15.896  -1.809  52.718  1.00  0.00    -0.204 F 
HETATM   23  C15 UNL     1      17.340  -0.349  51.456  1.00  0.00     0.074 A 
HETATM   24 CL2  UNL     1      15.985  -0.111  50.384  1.00  0.00    -0.081 Cl
HETATM   25  C16 UNL     1      18.559   0.275  51.240  1.00  0.00     0.056 A 
ENDBRANCH  16  18
ENDBRANCH  13  16
BRANCH   1  26
HETATM   26  C1  UNL     1      26.057  -0.122  54.432  1.00  0.00     0.248 C 
HETATM   27  O1  UNL     1      25.453  -0.929  55.152  1.00  0.00    -0.274 OA
HETATM   28 CL1  UNL     1      27.756   0.176  54.669  1.00  0.00    -0.039 Cl
ENDBRANCH   1  26
TORSDOF 3
ENDMDL
MODEL 9
REMARK VINA RESULT:      -8.1      3.637      5.327
REMARK  3 active torsions:
REMARK  status: ('A' for Active; 'I' for Inactive)
REMARK    1  A    between atoms: C1_2  and  C2_4 
REMARK    2  A    between atoms: C10_16  and  N4_17 
REMARK    3  A    between atoms: N4_17  and  C11_18 
ROOT
HETATM    1  C2  UNL     1      19.755   0.053  51.759  1.00  0.00     0.006 C 
HETATM    2  C3  UNL     1      20.577   0.630  50.954  1.00  0.00     0.005 C 
HETATM    3  C4  UNL     1      21.893   1.391  51.237  1.00  0.00     0.156 C 
HETATM    4  N1  UNL     1      22.045   1.276  52.708  1.00  0.00    -0.346 N 
HETATM    5  C5  UNL     1      21.172   1.510  53.881  1.00  0.00     0.097 C 
HETATM    6  C6  UNL     1      20.890   0.176  53.970  1.00  0.00    -0.036 C 
HETATM    7  C7  UNL     1      21.578  -0.854  54.835  1.00  0.00     0.213 C 
HETATM    8  O2  UNL     1      22.988  -0.903  54.648  1.00  0.00    -0.328 OA
HETATM    9  C8  UNL     1      23.799  -0.266  53.672  1.00  0.00     0.197 A 
HETATM   10  N2  UNL     1      25.063  -0.645  53.572  1.00  0.00    -0.216 NA
HETATM   11  C9  UNL     1      25.862  -0.058  52.655  1.00  0.00     0.238 A 
HETATM   12  N3  UNL     1      25.479   0.913  51.803  1.00  0.00    -0.222 NA
HETATM   13  C10 UNL     1      24.202   1.384  51.814  1.00  0.00     0.161 A 
HETATM   14  C17 UNL     1      23.429   0.758  52.759  1.00  0.00     0.134 A 
HETATM   15  C18 UNL     1      19.840  -0.482  53.114  1.00  0.00     0.081 C 
ENDROOT
BRANCH  13  16
HETATM   16  N4  UNL     1      23.629   2.416  51.017  1.00  0.00    -0.339 N 
HETATM   17  H8  UNL     1      22.580   2.195  50.892  1.00  0.00     0.167 HD
BRANCH  16  18
HETATM   18  C11 UNL     1      24.372   3.617  50.588  1.00  0.00     0.035 A 
HETATM   19  C12 UNL     1      25.450   3.365  49.790  1.00  0.00     0.032 A 
HETATM   20  C13 UNL     1      26.161   4.448  49.351  1.00  0.00     0.046 A 
HETATM   21  C14 UNL     1      25.773   5.729  49.717  1.00  0.00     0.138 A 
HETATM   22  F1  UNL     1      26.512   6.760  49.254  1.00  0.00    -0.204 F 
HETATM   23  C15 UNL     1      24.664   5.886  50.530  1.00  0.00     0.074 A 
HETATM   24 CL2  UNL     1      24.286   7.543  50.917  1.00  0.00    -0.081 Cl
HETATM   25  C16 UNL     1      23.901   4.833  51.011  1.00  0.00     0.056 A 
ENDBRANCH  16  18
ENDBRANCH  13  16
BRANCH   1  26
HETATM   26  C1  UNL     1      18.415  -0.076  51.127  1.00  0.00     0.248 C 
HETATM   27  O1  UNL     1      18.296   0.472  50.023  1.00  0.00    -0.274 OA
HETATM   28 CL1  UNL     1      17.074  -0.928  51.841  1.00  0.00    -0.039 Cl
ENDBRANCH   1  26
TORSDOF 3
ENDMDL
