MODEL 1
REMARK VINA RESULT:      -8.6      0.000      0.000
REMARK  3 active torsions:
REMARK  status: ('A' for Active; 'I' for Inactive)
REMARK    1  A    between atoms: C4_4  and  C5_5 
REMARK    2  A    between atoms: C6_6  and  C7_7 
REMARK       I    between atoms: C7_7  and  N1_9 
REMARK    3  A    between atoms: C13_15  and  C14_16 
ROOT
HETATM    1  C1  UNL     1      23.937   0.279  53.041  1.00  0.00     0.020 C 
HETATM    2  C2  UNL     1      25.076   0.858  52.842  1.00  0.00    -0.047 A 
HETATM    3  C3  UNL     1      25.987   1.775  52.003  1.00  0.00    -0.039 A 
HETATM    4  C4  UNL     1      26.424   2.564  51.108  1.00  0.00     0.009 C 
HETATM    5  C13 UNL     1      26.471   1.153  53.247  1.00  0.00     0.085 A 
ENDROOT
BRANCH   4   6
HETATM    6  C5  UNL     1      25.848   3.213  49.899  1.00  0.00     0.006 C 
HETATM    7  C6  UNL     1      24.605   3.652  49.725  1.00  0.00     0.074 C 
BRANCH   7   8
HETATM    8  C7  UNL     1      23.540   3.591  50.689  1.00  0.00     0.243 C 
HETATM    9  O1  UNL     1      23.368   4.010  51.865  1.00  0.00    -0.268 OA
HETATM   10  N1  UNL     1      22.330   2.923  50.370  1.00  0.00    -0.348 N 
HETATM   11  C8  UNL     1      21.944   2.267  49.164  1.00  0.00     0.126 C 
HETATM   12  C12 UNL     1      21.085   2.618  51.026  1.00  0.00     0.130 C 
HETATM   13  C9  UNL     1      21.542   0.872  49.575  1.00  0.00     0.026 C 
HETATM   14  C10 UNL     1      21.139   1.084  51.007  1.00  0.00     0.001 C 
HETATM   15  C11 UNL     1      19.712   0.608  51.178  1.00  0.00     0.011 C 
ENDBRANCH   7   8
ENDBRANCH   4   6
BRANCH   5  16
HETATM   16  C14 UNL     1      27.375   0.013  53.221  1.00  0.00    -0.039 A 
HETATM   17  C15 UNL     1      26.937  -1.220  52.783  1.00  0.00     0.009 A 
HETATM   18  C16 UNL     1      27.613  -2.393  52.679  1.00  0.00     0.001 A 
HETATM   19  C17 UNL     1      28.925  -2.292  53.083  1.00  0.00     0.001 A 
HETATM   20  C18 UNL     1      29.559  -1.129  53.557  1.00  0.00     0.007 A 
HETATM   21  C19 UNL     1      28.698  -0.009  53.593  1.00  0.00    -0.055 A 
HETATM   22  C20 UNL     1      29.405   1.203  54.092  1.00  0.00     0.049 C 
ENDBRANCH   5  16
TORSDOF 3
ENDMDL
MODEL 2
REMARK VINA RESULT:      -8.5      1.579      3.009
REMARK  3 active torsions:
REMARK  status: ('A' for Active; 'I' for Inactive)
REMARK    1  A    between atoms: C4_4  and  C5_5 
REMARK    2  A    between atoms: C6_6  and  C7_7 
REMARK       I    between atoms: C7_7  and  N1_9 
REMARK    3  A    between atoms: C13_15  and  C14_16 
ROOT
HETATM    1  C1  UNL     1      26.702   3.079  49.815  1.00  0.00     0.020 C 
HETATM    2  C2  UNL     1      26.141   2.598  50.877  1.00  0.00    -0.047 A 
HETATM    3  C3  UNL     1      25.199   2.756  52.086  1.00  0.00    -0.039 A 
HETATM    4  C4  UNL     1      24.370   3.225  52.927  1.00  0.00     0.009 C 
HETATM    5  C13 UNL     1      25.907   1.489  51.832  1.00  0.00     0.085 A 
ENDROOT
BRANCH   4   6
HETATM    6  C5  UNL     1      23.636   4.509  53.083  1.00  0.00     0.006 C 
HETATM    7  C6  UNL     1      22.412   4.804  52.656  1.00  0.00     0.074 C 
BRANCH   7   8
HETATM    8  C7  UNL     1      21.526   3.925  51.942  1.00  0.00     0.243 C 
HETATM    9  O1  UNL     1      20.562   3.177  52.252  1.00  0.00    -0.268 OA
HETATM   10  N1  UNL     1      21.663   3.766  50.539  1.00  0.00    -0.348 N 
HETATM   11  C8  UNL     1      22.579   4.384  49.638  1.00  0.00     0.126 C 
HETATM   12  C12 UNL     1      21.034   2.999  49.495  1.00  0.00     0.130 C 
HETATM   13  C9  UNL     1      23.262   3.249  48.916  1.00  0.00     0.026 C 
HETATM   14  C10 UNL     1      22.229   2.162  49.018  1.00  0.00     0.001 C 
HETATM   15  C11 UNL     1      21.886   1.694  47.619  1.00  0.00     0.011 C 
ENDBRANCH   7   8
ENDBRANCH   4   6
BRANCH   5  16
HETATM   16  C14 UNL     1      27.065   1.099  52.621  1.00  0.00    -0.039 A 
HETATM   17  C15 UNL     1      27.895   2.055  53.170  1.00  0.00     0.009 A 
HETATM   18  C16 UNL     1      29.009   1.903  53.929  1.00  0.00     0.001 A 
HETATM   19  C17 UNL     1      29.324   0.582  54.159  1.00  0.00     0.001 A 
HETATM   20  C18 UNL     1      28.606  -0.534  53.690  1.00  0.00     0.007 A 
HETATM   21  C19 UNL     1      27.477  -0.178  52.919  1.00  0.00    -0.055 A 
HETATM   22  C20 UNL     1      26.740  -1.383  52.448  1.00  0.00     0.049 C 
ENDBRANCH   5  16
TORSDOF 3
ENDMDL
MODEL 3
REMARK VINA RESULT:      -8.5      2.443      4.264
REMARK  3 active torsions:
REMARK  status: ('A' for Active; 'I' for Inactive)
REMARK    1  A    between atoms: C4_4  and  C5_5 
REMARK    2  A    between atoms: C6_6  and  C7_7 
REMARK       I    between atoms: C7_7  and  N1_9 
REMARK    3  A    between atoms: C13_15  and  C14_16 
ROOT
HETATM    1  C1  UNL     1      24.151   3.112  52.692  1.00  0.00     0.020 C 
HETATM    2  C2  UNL     1      24.357   1.837  52.756  1.00  0.00    -0.047 A 
HETATM    3  C3  UNL     1      23.994   0.444  53.305  1.00  0.00    -0.039 A 
HETATM    4  C4  UNL     1      23.421  -0.506  53.925  1.00  0.00     0.009 C 
HETATM    5  C13 UNL     1      25.101   0.620  52.349  1.00  0.00     0.085 A 
ENDROOT
BRANCH   4   6
HETATM    6  C5  UNL     1      22.249  -0.620  54.834  1.00  0.00     0.006 C 
HETATM    7  C6  UNL     1      20.987  -0.289  54.580  1.00  0.00     0.074 C 
BRANCH   7   8
HETATM    8  C7  UNL     1      20.483   0.257  53.349  1.00  0.00     0.243 C 
HETATM    9  O1  UNL     1      20.771   1.244  52.620  1.00  0.00    -0.268 OA
HETATM   10  N1  UNL     1      19.396  -0.368  52.687  1.00  0.00    -0.348 N 
HETATM   11  C8  UNL     1      18.669  -1.543  53.040  1.00  0.00     0.126 C 
HETATM   12  C12 UNL     1      18.604  -0.140  51.506  1.00  0.00     0.130 C 
HETATM   13  C9  UNL     1      17.220  -1.123  53.080  1.00  0.00     0.026 C 
HETATM   14  C10 UNL     1      17.220   0.049  52.141  1.00  0.00     0.001 C 
HETATM   15  C11 UNL     1      16.210  -0.215  51.045  1.00  0.00     0.011 C 
ENDBRANCH   7   8
ENDBRANCH   4   6
BRANCH   5  16
HETATM   16  C14 UNL     1      26.489   0.572  52.782  1.00  0.00    -0.039 A 
HETATM   17  C15 UNL     1      27.153   1.728  53.139  1.00  0.00     0.009 A 
HETATM   18  C16 UNL     1      28.430   1.896  53.567  1.00  0.00     0.001 A 
HETATM   19  C17 UNL     1      29.131   0.713  53.640  1.00  0.00     0.001 A 
HETATM   20  C18 UNL     1      28.633  -0.564  53.323  1.00  0.00     0.007 A 
HETATM   21  C19 UNL     1      27.286  -0.541  52.898  1.00  0.00    -0.055 A 
HETATM   22  C20 UNL     1      26.794  -1.910  52.579  1.00  0.00     0.049 C 
ENDBRANCH   5  16
TORSDOF 3
ENDMDL
MODEL 4
REMARK VINA RESULT:      -8.4      2.485      4.593
REMARK  3 active torsions:
REMARK  status: ('A' for Active; 'I' for Inactive)
REMARK    1  A    between atoms: C4_4  and  C5_5 
REMARK    2  A    between atoms: C6_6  and  C7_7 
REMARK       I    between atoms: C7_7  and  N1_9 
REMARK    3  A    between atoms: C13_15  and  C14_16 
ROOT
HETATM    1  C1  UNL     1      26.668   3.290  49.714  1.00  0.00     0.020 C 
HETATM    2  C2  UNL     1      26.085   2.736  50.728  1.00  0.00    -0.047 A 
HETATM    3  C3  UNL     1      25.062   2.784  51.879  1.00  0.00    -0.039 A 
HETATM    4  C4  UNL     1      24.148   3.161  52.677  1.00  0.00     0.009 C 
HETATM    5  C13 UNL     1      25.884   1.585  51.640  1.00  0.00     0.085 A 
ENDROOT
BRANCH   4   6
HETATM    6  C5  UNL     1      23.304   4.379  52.818  1.00  0.00     0.006 C 
HETATM    7  C6  UNL     1      22.938   5.230  51.865  1.00  0.00     0.074 C 
BRANCH   7   8
HETATM    8  C7  UNL     1      23.288   5.148  50.473  1.00  0.00     0.243 C 
HETATM    9  O1  UNL     1      23.117   4.306  49.553  1.00  0.00    -0.268 OA
HETATM   10  N1  UNL     1      24.005   6.206  49.858  1.00  0.00    -0.348 N 
HETATM   11  C8  UNL     1      24.459   7.440  50.410  1.00  0.00     0.126 C 
HETATM   12  C12 UNL     1      24.554   6.496  48.558  1.00  0.00     0.130 C 
HETATM   13  C9  UNL     1      25.940   7.487  50.126  1.00  0.00     0.026 C 
HETATM   14  C10 UNL     1      26.044   6.607  48.913  1.00  0.00     0.001 C 
HETATM   15  C11 UNL     1      26.687   7.402  47.797  1.00  0.00     0.011 C 
ENDBRANCH   7   8
ENDBRANCH   4   6
BRANCH   5  16
HETATM   16  C14 UNL     1      27.020   1.266  52.490  1.00  0.00    -0.039 A 
HETATM   17  C15 UNL     1      27.808   2.270  53.015  1.00  0.00     0.009 A 
HETATM   18  C16 UNL     1      28.896   2.185  53.822  1.00  0.00     0.001 A 
HETATM   19  C17 UNL     1      29.231   0.887  54.135  1.00  0.00     0.001 A 
HETATM   20  C18 UNL     1      28.555  -0.269  53.703  1.00  0.00     0.007 A 
HETATM   21  C19 UNL     1      27.448   0.017  52.873  1.00  0.00    -0.055 A 
HETATM   22  C20 UNL     1      26.756  -1.229  52.443  1.00  0.00     0.049 C 
ENDBRANCH   5  16
TORSDOF 3
ENDMDL
MODEL 5
REMARK VINA RESULT:      -8.4      2.182      6.850
REMARK  3 active torsions:
REMARK  status: ('A' for Active; 'I' for Inactive)
REMARK    1  A    between atoms: C4_4  and  C5_5 
REMARK    2  A    between atoms: C6_6  and  C7_7 
REMARK       I    between atoms: C7_7  and  N1_9 
REMARK    3  A    between atoms: C13_15  and  C14_16 
ROOT
HETATM    1  C1  UNL     1      22.389  -1.008  54.988  1.00  0.00     0.020 C 
HETATM    2  C2  UNL     1      22.306  -0.403  53.847  1.00  0.00    -0.047 A 
HETATM    3  C3  UNL     1      22.620   0.803  52.941  1.00  0.00    -0.039 A 
HETATM    4  C4  UNL     1      23.064   1.909  52.502  1.00  0.00     0.009 C 
HETATM    5  C13 UNL     1      21.856  -0.351  52.435  1.00  0.00     0.085 A 
ENDROOT
BRANCH   4   6
HETATM    6  C5  UNL     1      23.898   3.009  53.059  1.00  0.00     0.006 C 
HETATM    7  C6  UNL     1      25.208   3.186  52.921  1.00  0.00     0.074 C 
BRANCH   7   8
HETATM    8  C7  UNL     1      26.109   2.336  52.189  1.00  0.00     0.243 C 
HETATM    9  O1  UNL     1      26.621   2.351  51.039  1.00  0.00    -0.268 OA
HETATM   10  N1  UNL     1      26.618   1.157  52.791  1.00  0.00    -0.348 N 
HETATM   11  C8  UNL     1      26.396   0.633  54.098  1.00  0.00     0.126 C 
HETATM   12  C12 UNL     1      27.478   0.065  52.415  1.00  0.00     0.130 C 
HETATM   13  C9  UNL     1      25.904  -0.778  53.888  1.00  0.00     0.026 C 
HETATM   14  C10 UNL     1      26.499  -1.109  52.550  1.00  0.00     0.001 C 
HETATM   15  C11 UNL     1      27.348  -2.354  52.697  1.00  0.00     0.011 C 
ENDBRANCH   7   8
ENDBRANCH   4   6
BRANCH   5  16
HETATM   16  C14 UNL     1      20.415  -0.280  52.249  1.00  0.00    -0.039 A 
HETATM   17  C15 UNL     1      19.560  -0.839  53.176  1.00  0.00     0.009 A 
HETATM   18  C16 UNL     1      18.203  -0.879  53.190  1.00  0.00     0.001 A 
HETATM   19  C17 UNL     1      17.638  -0.261  52.097  1.00  0.00     0.001 A 
HETATM   20  C18 UNL     1      18.336   0.367  51.048  1.00  0.00     0.007 A 
HETATM   21  C19 UNL     1      19.738   0.309  51.208  1.00  0.00    -0.055 A 
HETATM   22  C20 UNL     1      20.441   0.988  50.085  1.00  0.00     0.049 C 
ENDBRANCH   5  16
TORSDOF 3
ENDMDL
MODEL 6
REMARK VINA RESULT:      -8.3      2.738      4.450
REMARK  3 active torsions:
REMARK  status: ('A' for Active; 'I' for Inactive)
REMARK    1  A    between atoms: C4_4  and  C5_5 
REMARK    2  A    between atoms: C6_6  and  C7_7 
REMARK       I    between atoms: C7_7  and  N1_9 
REMARK    3  A    between atoms: C13_15  and  C14_16 
ROOT
HETATM    1  C1  UNL     1      22.816   2.307  49.490  1.00  0.00     0.020 C 
HETATM    2  C2  UNL     1      23.819   2.665  50.225  1.00  0.00    -0.047 A 
HETATM    3  C3  UNL     1      25.189   3.351  50.383  1.00  0.00    -0.039 A 
HETATM    4  C4  UNL     1      26.262   3.990  50.150  1.00  0.00     0.009 C 
HETATM    5  C13 UNL     1      24.506   2.739  51.536  1.00  0.00     0.085 A 
ENDROOT
BRANCH   4   6
HETATM    6  C5  UNL     1      26.863   4.647  48.957  1.00  0.00     0.006 C 
HETATM    7  C6  UNL     1      26.801   5.930  48.618  1.00  0.00     0.074 C 
BRANCH   7   8
HETATM    8  C7  UNL     1      26.130   6.971  49.349  1.00  0.00     0.243 C 
HETATM    9  O1  UNL     1      26.477   7.850  50.182  1.00  0.00    -0.268 OA
HETATM   10  N1  UNL     1      24.734   7.164  49.189  1.00  0.00    -0.348 N 
HETATM   11  C8  UNL     1      23.809   6.471  48.354  1.00  0.00     0.126 C 
HETATM   12  C12 UNL     1      23.717   8.029  49.729  1.00  0.00     0.130 C 
HETATM   13  C9  UNL     1      22.715   5.991  49.277  1.00  0.00     0.026 C 
HETATM   14  C10 UNL     1      22.805   6.990  50.395  1.00  0.00     0.001 C 
HETATM   15  C11 UNL     1      21.453   7.653  50.555  1.00  0.00     0.011 C 
ENDBRANCH   7   8
ENDBRANCH   4   6
BRANCH   5  16
HETATM   16  C14 UNL     1      24.938   1.460  52.079  1.00  0.00    -0.039 A 
HETATM   17  C15 UNL     1      26.216   0.994  51.845  1.00  0.00     0.009 A 
HETATM   18  C16 UNL     1      26.808  -0.156  52.258  1.00  0.00     0.001 A 
HETATM   19  C17 UNL     1      25.974  -0.944  53.019  1.00  0.00     0.001 A 
HETATM   20  C18 UNL     1      24.644  -0.646  53.369  1.00  0.00     0.007 A 
HETATM   21  C19 UNL     1      24.203   0.592  52.850  1.00  0.00    -0.055 A 
HETATM   22  C20 UNL     1      22.796   0.876  53.246  1.00  0.00     0.049 C 
ENDBRANCH   5  16
TORSDOF 3
ENDMDL
MODEL 7
REMARK VINA RESULT:      -8.2      3.012      7.235
REMARK  3 active torsions:
REMARK  status: ('A' for Active; 'I' for Inactive)
REMARK    1  A    between atoms: C4_4  and  C5_5 
REMARK    2  A    between atoms: C6_6  and  C7_7 
REMARK       I    between atoms: C7_7  and  N1_9 
REMARK    3  A    between atoms: C13_15  and  C14_16 
ROOT
HETATM    1  C1  UNL     1      24.225   6.807  51.406  1.00  0.00     0.020 C 
HETATM    2  C2  UNL     1      24.429   5.935  50.473  1.00  0.00    -0.047 A 
HETATM    3  C3  UNL     1      24.502   4.471  49.997  1.00  0.00    -0.039 A 
HETATM    4  C4  UNL     1      24.456   3.202  49.960  1.00  0.00     0.009 C 
HETATM    5  C13 UNL     1      24.749   5.587  49.068  1.00  0.00     0.085 A 
ENDROOT
BRANCH   4   6
HETATM    6  C5  UNL     1      24.128   2.127  50.936  1.00  0.00     0.006 C 
HETATM    7  C6  UNL     1      24.944   1.541  51.806  1.00  0.00     0.074 C 
BRANCH   7   8
HETATM    8  C7  UNL     1      26.340   1.832  51.991  1.00  0.00     0.243 C 
HETATM    9  O1  UNL     1      27.160   2.650  51.494  1.00  0.00    -0.268 OA
HETATM   10  N1  UNL     1      27.102   1.089  52.928  1.00  0.00    -0.348 N 
HETATM   11  C8  UNL     1      26.697   0.038  53.802  1.00  0.00     0.126 C 
HETATM   12  C12 UNL     1      28.470   1.040  53.377  1.00  0.00     0.130 C 
HETATM   13  C9  UNL     1      27.627  -1.112  53.506  1.00  0.00     0.026 C 
HETATM   14  C10 UNL     1      28.835  -0.395  52.974  1.00  0.00     0.001 C 
HETATM   15  C11 UNL     1      30.032  -0.781  53.817  1.00  0.00     0.011 C 
ENDBRANCH   7   8
ENDBRANCH   4   6
BRANCH   5  16
HETATM   16  C14 UNL     1      26.096   5.930  48.639  1.00  0.00    -0.039 A 
HETATM   17  C15 UNL     1      27.130   5.027  48.786  1.00  0.00     0.009 A 
HETATM   18  C16 UNL     1      28.440   5.149  48.452  1.00  0.00     0.001 A 
HETATM   19  C17 UNL     1      28.738   6.369  47.889  1.00  0.00     0.001 A 
HETATM   20  C18 UNL     1      27.828   7.417  47.654  1.00  0.00     0.007 A 
HETATM   21  C19 UNL     1      26.513   7.107  48.065  1.00  0.00    -0.055 A 
HETATM   22  C20 UNL     1      25.579   8.234  47.794  1.00  0.00     0.049 C 
ENDBRANCH   5  16
TORSDOF 3
ENDMDL
MODEL 8
REMARK VINA RESULT:      -8.1      1.674      3.541
REMARK  3 active torsions:
REMARK  status: ('A' for Active; 'I' for Inactive)
REMARK    1  A    between atoms: C4_4  and  C5_5 
REMARK    2  A    between atoms: C6_6  and  C7_7 
REMARK       I    between atoms: C7_7  and  N1_9 
REMARK    3  A    between atoms: C13_15  and  C14_16 
ROOT
HETATM    1  C1  UNL     1      25.012   2.942  51.248  1.00  0.00     0.020 C 
HETATM    2  C2  UNL     1      25.107   1.754  51.751  1.00  0.00    -0.047 A 
HETATM    3  C3  UNL     1      24.529   0.606  52.600  1.00  0.00    -0.039 A 
HETATM    4  C4  UNL     1      23.763  -0.102  53.326  1.00  0.00     0.009 C 
HETATM    5  C13 UNL     1      25.836   0.476  51.934  1.00  0.00     0.085 A 
ENDROOT
BRANCH   4   6
HETATM    6  C5  UNL     1      22.407   0.072  53.915  1.00  0.00     0.006 C 
HETATM    7  C6  UNL     1      21.292   0.445  53.294  1.00  0.00     0.074 C 
BRANCH   7   8
HETATM    8  C7  UNL     1      21.163   0.762  51.897  1.00  0.00     0.243 C 
HETATM    9  O1  UNL     1      21.304   0.131  50.817  1.00  0.00    -0.268 OA
HETATM   10  N1  UNL     1      20.794   2.072  51.498  1.00  0.00    -0.348 N 
HETATM   11  C8  UNL     1      20.485   3.214  52.295  1.00  0.00     0.126 C 
HETATM   12  C12 UNL     1      20.592   2.784  50.262  1.00  0.00     0.130 C 
HETATM   13  C9  UNL     1      21.405   4.306  51.806  1.00  0.00     0.026 C 
HETATM   14  C10 UNL     1      21.672   3.867  50.395  1.00  0.00     0.001 C 
HETATM   15  C11 UNL     1      21.268   4.986  49.459  1.00  0.00     0.011 C 
ENDBRANCH   7   8
ENDBRANCH   4   6
BRANCH   5  16
HETATM   16  C14 UNL     1      27.080   0.577  52.682  1.00  0.00    -0.039 A 
HETATM   17  C15 UNL     1      27.582   1.809  53.045  1.00  0.00     0.009 A 
HETATM   18  C16 UNL     1      28.709   2.116  53.737  1.00  0.00     0.001 A 
HETATM   19  C17 UNL     1      29.428   1.002  54.111  1.00  0.00     0.001 A 
HETATM   20  C18 UNL     1      29.083  -0.335  53.839  1.00  0.00     0.007 A 
HETATM   21  C19 UNL     1      27.879  -0.456  53.110  1.00  0.00    -0.055 A 
HETATM   22  C20 UNL     1      27.544  -1.883  52.849  1.00  0.00     0.049 C 
ENDBRANCH   5  16
TORSDOF 3
ENDMDL
MODEL 9
REMARK VINA RESULT:      -8.0      2.510      3.955
REMARK  3 active torsions:
REMARK  status: ('A' for Active; 'I' for Inactive)
REMARK    1  A    between atoms: C4_4  and  C5_5 
REMARK    2  A    between atoms: C6_6  and  C7_7 
REMARK       I    between atoms: C7_7  and  N1_9 
REMARK    3  A    between atoms: C13_15  and  C14_16 
ROOT
HETATM    1  C1  UNL     1      23.473   4.749  53.049  1.00  0.00     0.020 C 
HETATM    2  C2  UNL     1      24.159   3.680  52.805  1.00  0.00    -0.047 A 
HETATM    3  C3  UNL     1      25.148   2.892  51.925  1.00  0.00    -0.039 A 
HETATM    4  C4  UNL     1      25.961   2.565  51.005  1.00  0.00     0.009 C 
HETATM    5  C13 UNL     1      24.598   2.310  53.161  1.00  0.00     0.085 A 
ENDROOT
BRANCH   4   6
HETATM    6  C5  UNL     1      26.529   3.240  49.806  1.00  0.00     0.006 C 
HETATM    7  C6  UNL     1      26.016   4.261  49.128  1.00  0.00     0.074 C 
BRANCH   7   8
HETATM    8  C7  UNL     1      24.781   4.939  49.418  1.00  0.00     0.243 C 
HETATM    9  O1  UNL     1      24.463   6.035  49.950  1.00  0.00    -0.268 OA
HETATM   10  N1  UNL     1      23.543   4.337  49.077  1.00  0.00    -0.348 N 
HETATM   11  C8  UNL     1      23.283   3.093  48.430  1.00  0.00     0.126 C 
HETATM   12  C12 UNL     1      22.143   4.647  49.213  1.00  0.00     0.130 C 
HETATM   13  C9  UNL     1      22.353   2.346  49.353  1.00  0.00     0.026 C 
HETATM   14  C10 UNL     1      21.691   3.474  50.092  1.00  0.00     0.001 C 
HETATM   15  C11 UNL     1      20.193   3.356  49.904  1.00  0.00     0.011 C 
ENDBRANCH   7   8
ENDBRANCH   4   6
BRANCH   5  16
HETATM   16  C14 UNL     1      23.554   1.297  53.121  1.00  0.00    -0.039 A 
HETATM   17  C15 UNL     1      22.232   1.659  52.957  1.00  0.00     0.009 A 
HETATM   18  C16 UNL     1      21.123   0.879  52.891  1.00  0.00     0.001 A 
HETATM   19  C17 UNL     1      21.404  -0.463  53.012  1.00  0.00     0.001 A 
HETATM   20  C18 UNL     1      22.680  -1.030  53.183  1.00  0.00     0.007 A 
HETATM   21  C19 UNL     1      23.710  -0.064  53.227  1.00  0.00    -0.055 A 
HETATM   22  C20 UNL     1      25.045  -0.701  53.401  1.00  0.00     0.049 C 
ENDBRANCH   5  16
TORSDOF 3
ENDMDL
