MODEL 1
REMARK VINA RESULT:     -10.1      0.000      0.000
REMARK  1 active torsions:
REMARK  status: ('A' for Active; 'I' for Inactive)
REMARK    1  A    between atoms: N5_16  and  C12_17 
ROOT
HETATM    1  C1  UNL     1      20.412   0.239  51.140  1.00  0.00     0.030 A 
HETATM    2  C2  UNL     1      21.424   0.010  52.002  1.00  0.00     0.094 A 
HETATM    3  N1  UNL     1      22.233   1.039  52.633  1.00  0.00    -0.330 N 
HETATM    4  C3  UNL     1      23.107   0.241  53.461  1.00  0.00     0.144 A 
HETATM    5  N2  UNL     1      22.647  -0.520  54.470  1.00  0.00    -0.223 NA
HETATM    6  C4  UNL     1      23.477  -1.233  55.274  1.00  0.00     0.236 A 
HETATM    7  N3  UNL     1      24.838  -1.264  55.156  1.00  0.00    -0.241 NA
HETATM    8  C5  UNL     1      25.375  -0.523  54.160  1.00  0.00     0.072 A 
HETATM    9  C6  UNL     1      26.753  -0.419  53.906  1.00  0.00     0.033 A 
HETATM   10  C7  UNL     1      27.294   0.354  52.901  1.00  0.00     0.015 A 
HETATM   11  C8  UNL     1      26.502   1.116  52.033  1.00  0.00    -0.016 A 
HETATM   12  C9  UNL     1      25.282   0.789  52.546  1.00  0.00     0.030 A 
HETATM   13  C10 UNL     1      24.458   0.160  53.404  1.00  0.00     0.040 A 
HETATM   14  C11 UNL     1      26.725   2.048  50.937  1.00  0.00     0.150 C 
HETATM   15  N4  UNL     1      25.769   2.840  51.216  1.00  0.00    -0.184 NA
HETATM   16  N5  UNL     1      25.343   3.977  50.616  1.00  0.00    -0.280 N 
HETATM   17  C17 UNL     1      24.267   3.918  51.594  1.00  0.00     0.093 C 
HETATM   18  C18 UNL     1      23.156   3.284  52.048  1.00  0.00     0.067 C 
HETATM   19  C19 UNL     1      21.995   2.439  52.347  1.00  0.00     0.153 A 
HETATM   20  C20 UNL     1      20.866   2.544  51.413  1.00  0.00     0.068 A 
HETATM   21  N7  UNL     1      20.638   3.848  51.169  1.00  0.00    -0.262 NA
HETATM   22  C21 UNL     1      19.635   4.170  50.320  1.00  0.00     0.117 A 
HETATM   23  C22 UNL     1      18.824   3.256  49.681  1.00  0.00     0.020 A 
HETATM   24  C23 UNL     1      19.056   1.921  49.930  1.00  0.00     0.015 A 
HETATM   25  C24 UNL     1      20.070   1.611  50.788  1.00  0.00    -0.008 A 
ENDROOT
BRANCH  16  26
HETATM   26  C12 UNL     1      25.140   5.151  49.791  1.00  0.00     0.112 C 
HETATM   27  C13 UNL     1      24.621   6.339  50.515  1.00  0.00     0.057 C 
HETATM   28  C14 UNL     1      25.536   7.523  50.532  1.00  0.00     0.271 C 
HETATM   29  N6  UNL     1      26.266   7.764  49.333  1.00  0.00     0.083 N 
HETATM   30  C15 UNL     1      26.103   6.778  48.297  1.00  0.00     0.271 C 
HETATM   31  H13 UNL     1      26.214   8.739  48.984  1.00  0.00     0.315 HD
HETATM   32  C16 UNL     1      26.374   5.432  48.964  1.00  0.00     0.057 C 
ENDBRANCH  16  26
TORSDOF 1
ENDMDL
MODEL 2
REMARK VINA RESULT:     -10.0      2.178      5.640
REMARK  1 active torsions:
REMARK  status: ('A' for Active; 'I' for Inactive)
REMARK    1  A    between atoms: N5_16  and  C12_17 
ROOT
HETATM    1  C1  UNL     1      24.538   4.218  50.852  1.00  0.00     0.030 A 
HETATM    2  C2  UNL     1      24.784   3.057  51.492  1.00  0.00     0.094 A 
HETATM    3  N1  UNL     1      24.090   1.804  51.246  1.00  0.00    -0.330 N 
HETATM    4  C3  UNL     1      24.776   0.920  52.158  1.00  0.00     0.144 A 
HETATM    5  N2  UNL     1      26.085   0.632  52.036  1.00  0.00    -0.223 NA
HETATM    6  C4  UNL     1      26.715  -0.235  52.869  1.00  0.00     0.236 A 
HETATM    7  N3  UNL     1      26.114  -0.899  53.901  1.00  0.00    -0.241 NA
HETATM    8  C5  UNL     1      24.796  -0.659  54.089  1.00  0.00     0.072 A 
HETATM    9  C6  UNL     1      24.015  -1.268  55.085  1.00  0.00     0.033 A 
HETATM   10  C7  UNL     1      22.667  -1.032  55.257  1.00  0.00     0.015 A 
HETATM   11  C8  UNL     1      21.950  -0.151  54.439  1.00  0.00    -0.016 A 
HETATM   12  C9  UNL     1      22.974   0.238  53.627  1.00  0.00     0.030 A 
HETATM   13  C10 UNL     1      24.251   0.230  53.200  1.00  0.00     0.040 A 
HETATM   14  C11 UNL     1      20.567   0.284  54.305  1.00  0.00     0.150 C 
HETATM   15  N4  UNL     1      20.557   0.364  53.035  1.00  0.00    -0.184 NA
HETATM   16  N5  UNL     1      19.579   0.720  52.167  1.00  0.00    -0.280 N 
HETATM   17  C17 UNL     1      20.623   0.588  51.162  1.00  0.00     0.093 C 
HETATM   18  C18 UNL     1      21.787   1.054  50.642  1.00  0.00     0.067 C 
HETATM   19  C19 UNL     1      23.031   1.733  50.261  1.00  0.00     0.153 A 
HETATM   20  C20 UNL     1      22.878   3.052  49.636  1.00  0.00     0.068 A 
HETATM   21  N7  UNL     1      21.906   2.972  48.707  1.00  0.00    -0.262 NA
HETATM   22  C21 UNL     1      21.598   4.090  48.011  1.00  0.00     0.117 A 
HETATM   23  C22 UNL     1      22.207   5.315  48.183  1.00  0.00     0.020 A 
HETATM   24  C23 UNL     1      23.201   5.399  49.133  1.00  0.00     0.015 A 
HETATM   25  C24 UNL     1      23.503   4.264  49.827  1.00  0.00    -0.008 A 
ENDROOT
BRANCH  16  26
HETATM   26  C12 UNL     1      18.355   1.112  51.498  1.00  0.00     0.112 C 
HETATM   27  C13 UNL     1      18.339   2.508  50.994  1.00  0.00     0.057 C 
HETATM   28  C14 UNL     1      18.224   2.648  49.509  1.00  0.00     0.271 C 
HETATM   29  N6  UNL     1      17.364   1.717  48.861  1.00  0.00     0.083 N 
HETATM   30  C15 UNL     1      16.795   0.701  49.707  1.00  0.00     0.271 C 
HETATM   31  H13 UNL     1      16.675   2.143  48.213  1.00  0.00     0.315 HD
HETATM   32  C16 UNL     1      17.974   0.085  50.456  1.00  0.00     0.057 C 
ENDBRANCH  16  26
TORSDOF 1
ENDMDL
MODEL 3
REMARK VINA RESULT:      -9.2      1.930      7.734
REMARK  1 active torsions:
REMARK  status: ('A' for Active; 'I' for Inactive)
REMARK    1  A    between atoms: N5_16  and  C12_17 
ROOT
HETATM    1  C1  UNL     1      26.253   2.865  50.679  1.00  0.00     0.030 A 
HETATM    2  C2  UNL     1      25.443   3.941  50.618  1.00  0.00     0.094 A 
HETATM    3  N1  UNL     1      24.228   4.118  51.397  1.00  0.00    -0.330 N 
HETATM    4  C3  UNL     1      23.808   5.431  50.968  1.00  0.00     0.144 A 
HETATM    5  N2  UNL     1      24.543   6.534  51.198  1.00  0.00    -0.223 NA
HETATM    6  C4  UNL     1      24.122   7.772  50.832  1.00  0.00     0.236 A 
HETATM    7  N3  UNL     1      22.938   8.038  50.204  1.00  0.00    -0.241 NA
HETATM    8  C5  UNL     1      22.145   6.976  49.936  1.00  0.00     0.072 A 
HETATM    9  C6  UNL     1      20.887   7.065  49.316  1.00  0.00     0.033 A 
HETATM   10  C7  UNL     1      20.075   5.979  49.064  1.00  0.00     0.015 A 
HETATM   11  C8  UNL     1      20.441   4.673  49.412  1.00  0.00    -0.016 A 
HETATM   12  C9  UNL     1      21.657   4.952  49.962  1.00  0.00     0.030 A 
HETATM   13  C10 UNL     1      22.655   5.770  50.342  1.00  0.00     0.040 A 
HETATM   14  C11 UNL     1      19.838   3.349  49.346  1.00  0.00     0.150 C 
HETATM   15  N4  UNL     1      20.302   2.917  50.449  1.00  0.00    -0.184 NA
HETATM   16  N5  UNL     1      20.162   1.724  51.074  1.00  0.00    -0.280 N 
HETATM   17  C17 UNL     1      21.112   2.276  52.029  1.00  0.00     0.093 C 
HETATM   18  C18 UNL     1      22.377   2.697  52.283  1.00  0.00     0.067 C 
HETATM   19  C19 UNL     1      23.790   3.089  52.317  1.00  0.00     0.153 A 
HETATM   20  C20 UNL     1      24.763   1.989  52.294  1.00  0.00     0.068 A 
HETATM   21  N7  UNL     1      24.359   1.048  53.167  1.00  0.00    -0.262 NA
HETATM   22  C21 UNL     1      25.118  -0.065  53.298  1.00  0.00     0.117 A 
HETATM   23  C22 UNL     1      26.281  -0.310  52.598  1.00  0.00     0.020 A 
HETATM   24  C23 UNL     1      26.695   0.654  51.704  1.00  0.00     0.015 A 
HETATM   25  C24 UNL     1      25.921   1.771  51.583  1.00  0.00    -0.008 A 
ENDROOT
BRANCH  16  26
HETATM   26  C12 UNL     1      19.814   0.386  51.506  1.00  0.00     0.112 C 
HETATM   27  C13 UNL     1      20.760  -0.223  52.476  1.00  0.00     0.057 C 
HETATM   28  C14 UNL     1      20.183  -0.526  53.823  1.00  0.00     0.271 C 
HETATM   29  N6  UNL     1      18.845  -1.013  53.833  1.00  0.00     0.083 N 
HETATM   30  C15 UNL     1      18.189  -1.056  52.552  1.00  0.00     0.271 C 
HETATM   31  H13 UNL     1      18.702  -1.873  54.395  1.00  0.00     0.315 HD
HETATM   32  C16 UNL     1      18.370   0.336  51.952  1.00  0.00     0.057 C 
ENDBRANCH  16  26
TORSDOF 1
ENDMDL
MODEL 4
REMARK VINA RESULT:      -9.1      2.032      5.302
REMARK  1 active torsions:
REMARK  status: ('A' for Active; 'I' for Inactive)
REMARK    1  A    between atoms: N5_16  and  C12_17 
ROOT
HETATM    1  C1  UNL     1      22.410   2.896  48.790  1.00  0.00     0.030 A 
HETATM    2  C2  UNL     1      21.641   2.262  49.698  1.00  0.00     0.094 A 
HETATM    3  N1  UNL     1      21.763   2.403  51.139  1.00  0.00    -0.330 N 
HETATM    4  C3  UNL     1      20.689   1.553  51.596  1.00  0.00     0.144 A 
HETATM    5  N2  UNL     1      19.398   1.811  51.320  1.00  0.00    -0.223 NA
HETATM    6  C4  UNL     1      18.389   1.034  51.790  1.00  0.00     0.236 A 
HETATM    7  N3  UNL     1      18.559  -0.073  52.574  1.00  0.00    -0.241 NA
HETATM    8  C5  UNL     1      19.832  -0.398  52.892  1.00  0.00     0.072 A 
HETATM    9  C6  UNL     1      20.191  -1.487  53.704  1.00  0.00     0.033 A 
HETATM   10  C7  UNL     1      21.491  -1.800  54.040  1.00  0.00     0.015 A 
HETATM   11  C8  UNL     1      22.583  -1.046  53.594  1.00  0.00    -0.016 A 
HETATM   12  C9  UNL     1      21.896  -0.119  52.868  1.00  0.00     0.030 A 
HETATM   13  C10 UNL     1      20.779   0.445  52.372  1.00  0.00     0.040 A 
HETATM   14  C11 UNL     1      24.027  -1.055  53.784  1.00  0.00     0.150 C 
HETATM   15  N4  UNL     1      24.185   0.208  53.799  1.00  0.00    -0.184 NA
HETATM   16  N5  UNL     1      25.295   0.970  53.940  1.00  0.00    -0.280 N 
HETATM   17  C17 UNL     1      24.388   2.081  53.691  1.00  0.00     0.093 C 
HETATM   18  C18 UNL     1      23.581   2.736  52.818  1.00  0.00     0.067 C 
HETATM   19  C19 UNL     1      22.778   3.265  51.710  1.00  0.00     0.153 A 
HETATM   20  C20 UNL     1      23.528   3.898  50.618  1.00  0.00     0.068 A 
HETATM   21  N7  UNL     1      24.454   4.712  51.156  1.00  0.00    -0.262 NA
HETATM   22  C21 UNL     1      25.266   5.395  50.316  1.00  0.00     0.117 A 
HETATM   23  C22 UNL     1      25.217   5.317  48.940  1.00  0.00     0.020 A 
HETATM   24  C23 UNL     1      24.268   4.483  48.388  1.00  0.00     0.015 A 
HETATM   25  C24 UNL     1      23.456   3.802  49.246  1.00  0.00    -0.008 A 
ENDROOT
BRANCH  16  26
HETATM   26  C12 UNL     1      26.625   1.510  54.138  1.00  0.00     0.112 C 
HETATM   27  C13 UNL     1      27.558   0.617  54.870  1.00  0.00     0.057 C 
HETATM   28  C14 UNL     1      28.752   0.166  54.089  1.00  0.00     0.271 C 
HETATM   29  N6  UNL     1      29.332   1.135  53.222  1.00  0.00     0.083 N 
HETATM   30  C15 UNL     1      28.633   2.390  53.137  1.00  0.00     0.271 C 
HETATM   31  H13 UNL     1      30.358   1.243  53.319  1.00  0.00     0.315 HD
HETATM   32  C16 UNL     1      27.180   2.031  52.832  1.00  0.00     0.057 C 
ENDBRANCH  16  26
TORSDOF 1
ENDMDL
MODEL 5
REMARK VINA RESULT:      -9.1      1.856      3.003
REMARK  1 active torsions:
REMARK  status: ('A' for Active; 'I' for Inactive)
REMARK    1  A    between atoms: N5_16  and  C12_17 
ROOT
HETATM    1  C1  UNL     1      20.011   3.912  49.734  1.00  0.00     0.030 A 
HETATM    2  C2  UNL     1      20.902   3.232  50.483  1.00  0.00     0.094 A 
HETATM    3  N1  UNL     1      21.966   3.834  51.268  1.00  0.00    -0.330 N 
HETATM    4  C3  UNL     1      22.560   2.668  51.877  1.00  0.00     0.144 A 
HETATM    5  N2  UNL     1      21.887   1.880  52.735  1.00  0.00    -0.223 NA
HETATM    6  C4  UNL     1      22.464   0.810  53.339  1.00  0.00     0.236 A 
HETATM    7  N3  UNL     1      23.759   0.416  53.153  1.00  0.00    -0.241 NA
HETATM    8  C5  UNL     1      24.501   1.160  52.301  1.00  0.00     0.072 A 
HETATM    9  C6  UNL     1      25.853   0.915  52.008  1.00  0.00     0.033 A 
HETATM   10  C7  UNL     1      26.607   1.691  51.153  1.00  0.00     0.015 A 
HETATM   11  C8  UNL     1      26.081   2.807  50.494  1.00  0.00    -0.016 A 
HETATM   12  C9  UNL     1      24.812   2.746  50.988  1.00  0.00     0.030 A 
HETATM   13  C10 UNL     1      23.831   2.217  51.741  1.00  0.00     0.040 A 
HETATM   14  C11 UNL     1      26.579   3.842  49.596  1.00  0.00     0.150 C 
HETATM   15  N4  UNL     1      25.890   4.799  50.074  1.00  0.00    -0.184 NA
HETATM   16  N5  UNL     1      25.819   6.108  49.733  1.00  0.00    -0.280 N 
HETATM   17  C17 UNL     1      24.759   6.160  50.730  1.00  0.00     0.093 C 
HETATM   18  C18 UNL     1      23.507   5.791  51.101  1.00  0.00     0.067 C 
HETATM   19  C19 UNL     1      22.147   5.271  51.279  1.00  0.00     0.153 A 
HETATM   20  C20 UNL     1      21.109   5.884  50.440  1.00  0.00     0.068 A 
HETATM   21  N7  UNL     1      21.272   7.220  50.473  1.00  0.00    -0.262 NA
HETATM   22  C21 UNL     1      20.415   7.982  49.754  1.00  0.00     0.117 A 
HETATM   23  C22 UNL     1      19.383   7.490  48.984  1.00  0.00     0.020 A 
HETATM   24  C23 UNL     1      19.215   6.123  48.950  1.00  0.00     0.015 A 
HETATM   25  C24 UNL     1      20.085   5.367  49.680  1.00  0.00    -0.008 A 
ENDROOT
BRANCH  16  26
HETATM   26  C12 UNL     1      25.975   7.434  49.171  1.00  0.00     0.112 C 
HETATM   27  C13 UNL     1      26.135   8.521  50.170  1.00  0.00     0.057 C 
HETATM   28  C14 UNL     1      27.444   9.243  50.121  1.00  0.00     0.271 C 
HETATM   29  N6  UNL     1      27.980   9.475  48.822  1.00  0.00     0.083 N 
HETATM   30  C15 UNL     1      27.239   8.897  47.731  1.00  0.00     0.271 C 
HETATM   31  H13 UNL     1      28.274  10.454  48.644  1.00  0.00     0.315 HD
HETATM   32  C16 UNL     1      27.043   7.429  48.101  1.00  0.00     0.057 C 
ENDBRANCH  16  26
TORSDOF 1
ENDMDL
MODEL 6
REMARK VINA RESULT:      -9.0      1.700      6.274
REMARK  1 active torsions:
REMARK  status: ('A' for Active; 'I' for Inactive)
REMARK    1  A    between atoms: N5_16  and  C12_17 
ROOT
HETATM    1  C1  UNL     1      22.078   5.056  48.258  1.00  0.00     0.030 A 
HETATM    2  C2  UNL     1      21.129   4.509  49.045  1.00  0.00     0.094 A 
HETATM    3  N1  UNL     1      21.272   4.245  50.466  1.00  0.00    -0.330 N 
HETATM    4  C3  UNL     1      19.968   3.712  50.785  1.00  0.00     0.144 A 
HETATM    5  N2  UNL     1      18.843   4.441  50.670  1.00  0.00    -0.223 NA
HETATM    6  C4  UNL     1      17.626   3.950  51.014  1.00  0.00     0.236 A 
HETATM    7  N3  UNL     1      17.402   2.694  51.502  1.00  0.00    -0.241 NA
HETATM    8  C5  UNL     1      18.487   1.899  51.645  1.00  0.00     0.072 A 
HETATM    9  C6  UNL     1      18.447   0.589  52.151  1.00  0.00     0.033 A 
HETATM   10  C7  UNL     1      19.561  -0.208  52.311  1.00  0.00     0.015 A 
HETATM   11  C8  UNL     1      20.849   0.229  51.979  1.00  0.00    -0.016 A 
HETATM   12  C9  UNL     1      20.524   1.478  51.541  1.00  0.00     0.030 A 
HETATM   13  C10 UNL     1      19.670   2.483  51.271  1.00  0.00     0.040 A 
HETATM   14  C11 UNL     1      22.203  -0.302  52.059  1.00  0.00     0.150 C 
HETATM   15  N4  UNL     1      22.777   0.794  52.358  1.00  0.00    -0.184 NA
HETATM   16  N5  UNL     1      24.077   1.088  52.596  1.00  0.00    -0.280 N 
HETATM   17  C17 UNL     1      23.601   2.461  52.679  1.00  0.00     0.093 C 
HETATM   18  C18 UNL     1      23.073   3.537  52.044  1.00  0.00     0.067 C 
HETATM   19  C19 UNL     1      22.510   4.556  51.150  1.00  0.00     0.153 A 
HETATM   20  C20 UNL     1      23.444   5.153  50.187  1.00  0.00     0.068 A 
HETATM   21  N7  UNL     1      24.584   5.458  50.835  1.00  0.00    -0.262 NA
HETATM   22  C21 UNL     1      25.589   6.018  50.123  1.00  0.00     0.117 A 
HETATM   23  C22 UNL     1      25.534   6.300  48.775  1.00  0.00     0.020 A 
HETATM   24  C23 UNL     1      24.368   5.988  48.111  1.00  0.00     0.015 A 
HETATM   25  C24 UNL     1      23.362   5.425  48.840  1.00  0.00    -0.008 A 
ENDROOT
BRANCH  16  26
HETATM   26  C12 UNL     1      25.508   1.092  52.821  1.00  0.00     0.112 C 
HETATM   27  C13 UNL     1      25.923   1.461  54.198  1.00  0.00     0.057 C 
HETATM   28  C14 UNL     1      26.638   0.388  54.957  1.00  0.00     0.271 C 
HETATM   29  N6  UNL     1      27.543  -0.412  54.201  1.00  0.00     0.083 N 
HETATM   30  C15 UNL     1      27.577  -0.145  52.787  1.00  0.00     0.271 C 
HETATM   31  H13 UNL     1      28.486  -0.511  54.622  1.00  0.00     0.315 HD
HETATM   32  C16 UNL     1      26.122  -0.198  52.325  1.00  0.00     0.057 C 
ENDBRANCH  16  26
TORSDOF 1
ENDMDL
MODEL 7
REMARK VINA RESULT:      -8.6      2.932      4.561
REMARK  1 active torsions:
REMARK  status: ('A' for Active; 'I' for Inactive)
REMARK    1  A    between atoms: N5_16  and  C12_17 
ROOT
HETATM    1  C1  UNL     1      21.320   3.542  46.421  1.00  0.00     0.030 A 
HETATM    2  C2  UNL     1      21.475   3.221  47.721  1.00  0.00     0.094 A 
HETATM    3  N1  UNL     1      22.119   4.061  48.718  1.00  0.00    -0.330 N 
HETATM    4  C3  UNL     1      21.964   3.255  49.906  1.00  0.00     0.144 A 
HETATM    5  N2  UNL     1      20.758   2.952  50.420  1.00  0.00    -0.223 NA
HETATM    6  C4  UNL     1      20.620   2.232  51.562  1.00  0.00     0.236 A 
HETATM    7  N3  UNL     1      21.658   1.742  52.304  1.00  0.00    -0.241 NA
HETATM    8  C5  UNL     1      22.904   2.004  51.848  1.00  0.00     0.072 A 
HETATM    9  C6  UNL     1      24.084   1.598  52.493  1.00  0.00     0.033 A 
HETATM   10  C7  UNL     1      25.351   1.887  52.031  1.00  0.00     0.015 A 
HETATM   11  C8  UNL     1      25.572   2.623  50.862  1.00  0.00    -0.016 A 
HETATM   12  C9  UNL     1      24.271   2.839  50.518  1.00  0.00     0.030 A 
HETATM   13  C10 UNL     1      22.940   2.736  50.689  1.00  0.00     0.040 A 
HETATM   14  C11 UNL     1      26.725   3.138  50.134  1.00  0.00     0.150 C 
HETATM   15  N4  UNL     1      26.195   4.236  49.770  1.00  0.00    -0.184 NA
HETATM   16  N5  UNL     1      26.682   5.265  49.036  1.00  0.00    -0.280 N 
HETATM   17  C17 UNL     1      25.330   5.794  49.149  1.00  0.00     0.093 C 
HETATM   18  C18 UNL     1      24.017   5.678  48.826  1.00  0.00     0.067 C 
HETATM   19  C19 UNL     1      22.670   5.348  48.348  1.00  0.00     0.153 A 
HETATM   20  C20 UNL     1      22.421   5.575  46.919  1.00  0.00     0.068 A 
HETATM   21  N7  UNL     1      22.918   6.782  46.588  1.00  0.00    -0.262 NA
HETATM   22  C21 UNL     1      22.799   7.188  45.303  1.00  0.00     0.117 A 
HETATM   23  C22 UNL     1      22.205   6.453  44.299  1.00  0.00     0.020 A 
HETATM   24  C23 UNL     1      21.696   5.218  44.636  1.00  0.00     0.015 A 
HETATM   25  C24 UNL     1      21.822   4.821  45.935  1.00  0.00    -0.008 A 
ENDROOT
BRANCH  16  26
HETATM   26  C12 UNL     1      27.470   6.202  48.262  1.00  0.00     0.112 C 
HETATM   27  C13 UNL     1      27.234   7.632  48.586  1.00  0.00     0.057 C 
HETATM   28  C14 UNL     1      28.417   8.363  49.139  1.00  0.00     0.271 C 
HETATM   29  N6  UNL     1      29.678   8.028  48.569  1.00  0.00     0.083 N 
HETATM   30  C15 UNL     1      29.661   6.960  47.605  1.00  0.00     0.271 C 
HETATM   31  H13 UNL     1      30.246   8.843  48.269  1.00  0.00     0.315 HD
HETATM   32  C16 UNL     1      28.929   5.806  48.285  1.00  0.00     0.057 C 
ENDBRANCH  16  26
TORSDOF 1
ENDMDL
MODEL 8
REMARK VINA RESULT:      -8.5      2.377      6.190
REMARK  1 active torsions:
REMARK  status: ('A' for Active; 'I' for Inactive)
REMARK    1  A    between atoms: N5_16  and  C12_17 
ROOT
HETATM    1  C1  UNL     1      23.594   6.491  51.125  1.00  0.00     0.030 A 
HETATM    2  C2  UNL     1      24.025   5.227  51.311  1.00  0.00     0.094 A 
HETATM    3  N1  UNL     1      23.456   4.049  50.679  1.00  0.00    -0.330 N 
HETATM    4  C3  UNL     1      24.316   3.010  51.196  1.00  0.00     0.144 A 
HETATM    5  N2  UNL     1      25.632   2.961  50.922  1.00  0.00    -0.223 NA
HETATM    6  C4  UNL     1      26.427   1.958  51.374  1.00  0.00     0.236 A 
HETATM    7  N3  UNL     1      25.999   0.909  52.139  1.00  0.00    -0.241 NA
HETATM    8  C5  UNL     1      24.685   0.891  52.457  1.00  0.00     0.072 A 
HETATM    9  C6  UNL     1      24.069  -0.119  53.216  1.00  0.00     0.033 A 
HETATM   10  C7  UNL     1      22.724  -0.140  53.520  1.00  0.00     0.015 A 
HETATM   11  C8  UNL     1      21.843   0.859  53.090  1.00  0.00    -0.016 A 
HETATM   12  C9  UNL     1      22.740   1.634  52.418  1.00  0.00     0.030 A 
HETATM   13  C10 UNL     1      23.966   1.945  51.957  1.00  0.00     0.040 A 
HETATM   14  C11 UNL     1      20.413   1.122  53.179  1.00  0.00     0.150 C 
HETATM   15  N4  UNL     1      20.281   1.624  52.017  1.00  0.00    -0.184 NA
HETATM   16  N5  UNL     1      19.196   2.115  51.372  1.00  0.00    -0.280 N 
HETATM   17  C17 UNL     1      20.154   2.474  50.337  1.00  0.00     0.093 C 
HETATM   18  C18 UNL     1      21.207   3.241  49.957  1.00  0.00     0.067 C 
HETATM   19  C19 UNL     1      22.328   4.171  49.779  1.00  0.00     0.153 A 
HETATM   20  C20 UNL     1      21.973   5.590  49.657  1.00  0.00     0.068 A 
HETATM   21  N7  UNL     1      20.938   5.697  48.803  1.00  0.00    -0.262 NA
HETATM   22  C21 UNL     1      20.445   6.932  48.552  1.00  0.00     0.117 A 
HETATM   23  C22 UNL     1      20.926   8.097  49.110  1.00  0.00     0.020 A 
HETATM   24  C23 UNL     1      21.986   7.990  49.984  1.00  0.00     0.015 A 
HETATM   25  C24 UNL     1      22.473   6.739  50.228  1.00  0.00    -0.008 A 
ENDROOT
BRANCH  16  26
HETATM   26  C12 UNL     1      17.881   2.540  50.936  1.00  0.00     0.112 C 
HETATM   27  C13 UNL     1      16.804   1.535  51.130  1.00  0.00     0.057 C 
HETATM   28  C14 UNL     1      15.717   1.940  52.074  1.00  0.00     0.271 C 
HETATM   29  N6  UNL     1      15.324   3.308  52.022  1.00  0.00     0.083 N 
HETATM   30  C15 UNL     1      16.091   4.142  51.135  1.00  0.00     0.271 C 
HETATM   31  H13 UNL     1      14.301   3.460  51.944  1.00  0.00     0.315 HD
HETATM   32  C16 UNL     1      17.552   3.901  51.507  1.00  0.00     0.057 C 
ENDBRANCH  16  26
TORSDOF 1
ENDMDL
MODEL 9
REMARK VINA RESULT:      -8.3      1.927      7.626
REMARK  1 active torsions:
REMARK  status: ('A' for Active; 'I' for Inactive)
REMARK    1  A    between atoms: N5_16  and  C12_17 
ROOT
HETATM    1  C1  UNL     1      26.595   2.228  50.427  1.00  0.00     0.030 A 
HETATM    2  C2  UNL     1      26.214   3.414  49.910  1.00  0.00     0.094 A 
HETATM    3  N1  UNL     1      25.126   4.234  50.414  1.00  0.00    -0.330 N 
HETATM    4  C3  UNL     1      25.199   5.373  49.529  1.00  0.00     0.144 A 
HETATM    5  N2  UNL     1      26.270   6.187  49.489  1.00  0.00    -0.223 NA
HETATM    6  C4  UNL     1      26.316   7.281  48.687  1.00  0.00     0.236 A 
HETATM    7  N3  UNL     1      25.311   7.676  47.849  1.00  0.00    -0.241 NA
HETATM    8  C5  UNL     1      24.200   6.904  47.833  1.00  0.00     0.072 A 
HETATM    9  C6  UNL     1      23.064   7.170  47.050  1.00  0.00     0.033 A 
HETATM   10  C7  UNL     1      21.928   6.389  47.054  1.00  0.00     0.015 A 
HETATM   11  C8  UNL     1      21.807   5.245  47.853  1.00  0.00    -0.016 A 
HETATM   12  C9  UNL     1      23.034   5.291  48.445  1.00  0.00     0.030 A 
HETATM   13  C10 UNL     1      24.249   5.823  48.674  1.00  0.00     0.040 A 
HETATM   14  C11 UNL     1      20.779   4.253  48.137  1.00  0.00     0.150 C 
HETATM   15  N4  UNL     1      21.044   4.111  49.373  1.00  0.00    -0.184 NA
HETATM   16  N5  UNL     1      20.484   3.328  50.325  1.00  0.00    -0.280 N 
HETATM   17  C17 UNL     1      21.551   3.842  51.171  1.00  0.00     0.093 C 
HETATM   18  C18 UNL     1      22.879   3.894  51.447  1.00  0.00     0.067 C 
HETATM   19  C19 UNL     1      24.339   3.795  51.548  1.00  0.00     0.153 A 
HETATM   20  C20 UNL     1      24.866   2.507  52.017  1.00  0.00     0.068 A 
HETATM   21  N7  UNL     1      24.143   2.116  53.083  1.00  0.00    -0.262 NA
HETATM   22  C21 UNL     1      24.461   0.939  53.670  1.00  0.00     0.117 A 
HETATM   23  C22 UNL     1      25.476   0.103  53.255  1.00  0.00     0.020 A 
HETATM   24  C23 UNL     1      26.217   0.503  52.163  1.00  0.00     0.015 A 
HETATM   25  C24 UNL     1      25.886   1.691  51.581  1.00  0.00    -0.008 A 
ENDROOT
BRANCH  16  26
HETATM   26  C12 UNL     1      19.682   2.416  51.115  1.00  0.00     0.112 C 
HETATM   27  C13 UNL     1      18.258   2.323  50.707  1.00  0.00     0.057 C 
HETATM   28  C14 UNL     1      17.821   0.978  50.218  1.00  0.00     0.271 C 
HETATM   29  N6  UNL     1      18.372  -0.142  50.903  1.00  0.00     0.083 N 
HETATM   30  C15 UNL     1      19.351   0.165  51.912  1.00  0.00     0.271 C 
HETATM   31  H13 UNL     1      17.675  -0.846  51.210  1.00  0.00     0.315 HD
HETATM   32  C16 UNL     1      20.371   1.075  51.230  1.00  0.00     0.057 C 
ENDBRANCH  16  26
TORSDOF 1
ENDMDL
