MODEL 1
REMARK VINA RESULT:      -7.8      0.000      0.000
REMARK  9 active torsions:
REMARK  status: ('A' for Active; 'I' for Inactive)
REMARK    1  A    between atoms: C2_2  and  C3_3 
REMARK    2  A    between atoms: C3_3  and  N1_4 
REMARK    3  A    between atoms: C3_3  and  C4_5 
REMARK    4  A    between atoms: C4_5  and  C5_6 
REMARK    5  A    between atoms: C5_6  and  C6_7 
REMARK    6  A    between atoms: C6_7  and  C7_8 
REMARK    7  A    between atoms: C9_10  and  C10_11 
REMARK    8  A    between atoms: N2_18  and  C16_19 
REMARK    9  A    between atoms: C17_21  and  O1_22 
ROOT
HETATM    1  C7  UNL     1      24.182   0.109  53.528  1.00  0.00     0.092 C 
HETATM    2  C8  UNL     1      23.197  -0.980  53.100  1.00  0.00     0.055 C 
HETATM    3  C9  UNL     1      22.195   0.086  53.474  1.00  0.00     0.122 C 
HETATM    4  N2  UNL     1      23.165   1.039  52.974  1.00  0.00    -0.346 N 
ENDROOT
BRANCH   1   5
HETATM    5  C6  UNL     1      25.469   0.157  52.730  1.00  0.00     0.052 C 
BRANCH   5   6
HETATM    6  C5  UNL     1      26.519  -0.532  53.481  1.00  0.00    -0.022 C 
BRANCH   6   7
HETATM    7  C4  UNL     1      26.784  -1.592  52.708  1.00  0.00     0.026 C 
BRANCH   7   8
HETATM    8  C3  UNL     1      28.181  -1.788  53.054  1.00  0.00     0.035 C 
BRANCH   8   9
HETATM    9  C2  UNL     1      29.422  -1.370  53.371  1.00  0.00    -0.008 C 
HETATM   10  C1  UNL     1      30.240  -0.323  53.570  1.00  0.00     0.026 C 
ENDBRANCH   8   9
BRANCH   8  11
HETATM   11  N1  UNL     1      28.487  -3.177  53.117  1.00  0.00    -0.398 N 
HETATM   12  H3  UNL     1      28.859  -4.167  53.059  1.00  0.00     0.156 HD
HETATM   13  H4  UNL     1      28.685  -4.189  53.180  1.00  0.00     0.156 HD
ENDBRANCH   8  11
ENDBRANCH   7   8
ENDBRANCH   6   7
ENDBRANCH   5   6
ENDBRANCH   1   5
BRANCH   4  14
HETATM   14  C16 UNL     1      23.366   2.258  52.277  1.00  0.00     0.172 A 
HETATM   15  N3  UNL     1      23.517   3.319  52.797  1.00  0.00    -0.200 NA
HETATM   16  C17 UNL     1      23.708   4.471  52.161  1.00  0.00     0.171 A 
HETATM   17  C18 UNL     1      23.733   4.428  50.745  1.00  0.00     0.111 A 
HETATM   18  S1  UNL     1      23.463   2.630  50.425  1.00  0.00    -0.060 SA
BRANCH  16  19
HETATM   19  O1  UNL     1      23.905   5.799  52.511  1.00  0.00    -0.344 OA
HETATM   20  H17 UNL     1      23.243   6.285  53.105  1.00  0.00     0.219 HD
ENDBRANCH  16  19
ENDBRANCH   4  14
BRANCH   3  21
HETATM   21  C10 UNL     1      20.899   0.009  52.814  1.00  0.00    -0.035 A 
HETATM   22  C11 UNL     1      20.689   0.460  51.497  1.00  0.00     0.012 A 
HETATM   23  C12 UNL     1      19.464   0.422  50.818  1.00  0.00     0.043 A 
HETATM   24  C13 UNL     1      18.438  -0.114  51.577  1.00  0.00     0.116 A 
HETATM   25  F1  UNL     1      17.227  -0.153  50.926  1.00  0.00    -0.206 F 
HETATM   26  C14 UNL     1      18.565  -0.573  52.859  1.00  0.00     0.043 A 
HETATM   27  C15 UNL     1      19.790  -0.505  53.458  1.00  0.00     0.012 A 
ENDBRANCH   3  21
TORSDOF 9
ENDMDL
MODEL 2
REMARK VINA RESULT:      -7.7      3.099      7.119
REMARK  9 active torsions:
REMARK  status: ('A' for Active; 'I' for Inactive)
REMARK    1  A    between atoms: C2_2  and  C3_3 
REMARK    2  A    between atoms: C3_3  and  N1_4 
REMARK    3  A    between atoms: C3_3  and  C4_5 
REMARK    4  A    between atoms: C4_5  and  C5_6 
REMARK    5  A    between atoms: C5_6  and  C6_7 
REMARK    6  A    between atoms: C6_7  and  C7_8 
REMARK    7  A    between atoms: C9_10  and  C10_11 
REMARK    8  A    between atoms: N2_18  and  C16_19 
REMARK    9  A    between atoms: C17_21  and  O1_22 
ROOT
HETATM    1  C7  UNL     1      22.309  -0.296  53.227  1.00  0.00     0.092 C 
HETATM    2  C8  UNL     1      23.299  -0.891  54.229  1.00  0.00     0.055 C 
HETATM    3  C9  UNL     1      24.254  -0.674  53.080  1.00  0.00     0.122 C 
HETATM    4  N2  UNL     1      23.473   0.509  52.778  1.00  0.00    -0.346 N 
ENDROOT
BRANCH   1   5
HETATM    5  C6  UNL     1      21.231   0.579  53.834  1.00  0.00     0.052 C 
BRANCH   5   6
HETATM    6  C5  UNL     1      19.979   0.363  53.108  1.00  0.00    -0.022 C 
BRANCH   6   7
HETATM    7  C4  UNL     1      19.638  -0.878  53.477  1.00  0.00     0.026 C 
BRANCH   7   8
HETATM    8  C3  UNL     1      18.306  -0.933  52.901  1.00  0.00     0.035 C 
BRANCH   8   9
HETATM    9  C2  UNL     1      17.387  -0.699  51.943  1.00  0.00    -0.008 C 
HETATM   10  C1  UNL     1      17.140  -0.199  50.721  1.00  0.00     0.026 C 
ENDBRANCH   8   9
BRANCH   8  11
HETATM   11  N1  UNL     1      17.409  -1.598  53.787  1.00  0.00    -0.398 N 
HETATM   12  H3  UNL     1      16.743  -1.934  54.538  1.00  0.00     0.156 HD
HETATM   13  H4  UNL     1      16.761  -2.104  54.410  1.00  0.00     0.156 HD
ENDBRANCH   8  11
ENDBRANCH   7   8
ENDBRANCH   6   7
ENDBRANCH   5   6
ENDBRANCH   1   5
BRANCH   4  14
HETATM   14  C16 UNL     1      23.498   1.852  52.324  1.00  0.00     0.172 A 
HETATM   15  N3  UNL     1      23.754   2.793  53.007  1.00  0.00    -0.200 NA
HETATM   16  C17 UNL     1      23.784   4.059  52.598  1.00  0.00     0.171 A 
HETATM   17  C18 UNL     1      23.485   4.302  51.235  1.00  0.00     0.111 A 
HETATM   18  S1  UNL     1      23.167   2.593  50.616  1.00  0.00    -0.060 SA
BRANCH  16  19
HETATM   19  O1  UNL     1      24.042   5.298  53.165  1.00  0.00    -0.344 OA
HETATM   20  H17 UNL     1      23.863   6.155  52.652  1.00  0.00     0.219 HD
ENDBRANCH  16  19
ENDBRANCH   4  14
BRANCH   3  21
HETATM   21  C10 UNL     1      25.656  -0.502  53.435  1.00  0.00    -0.035 A 
HETATM   22  C11 UNL     1      26.703  -1.099  52.708  1.00  0.00     0.012 A 
HETATM   23  C12 UNL     1      28.066  -0.979  53.011  1.00  0.00     0.043 A 
HETATM   24  C13 UNL     1      28.309  -0.195  54.126  1.00  0.00     0.116 A 
HETATM   25  F1  UNL     1      29.641  -0.072  54.439  1.00  0.00    -0.206 F 
HETATM   26  C14 UNL     1      27.346   0.418  54.880  1.00  0.00     0.043 A 
HETATM   27  C15 UNL     1      26.037   0.258  54.525  1.00  0.00     0.012 A 
ENDBRANCH   3  21
TORSDOF 9
ENDMDL
MODEL 3
REMARK VINA RESULT:      -7.6      3.724      6.890
REMARK  9 active torsions:
REMARK  status: ('A' for Active; 'I' for Inactive)
REMARK    1  A    between atoms: C2_2  and  C3_3 
REMARK    2  A    between atoms: C3_3  and  N1_4 
REMARK    3  A    between atoms: C3_3  and  C4_5 
REMARK    4  A    between atoms: C4_5  and  C5_6 
REMARK    5  A    between atoms: C5_6  and  C6_7 
REMARK    6  A    between atoms: C6_7  and  C7_8 
REMARK    7  A    between atoms: C9_10  and  C10_11 
REMARK    8  A    between atoms: N2_18  and  C16_19 
REMARK    9  A    between atoms: C17_21  and  O1_22 
ROOT
HETATM    1  C7  UNL     1      24.056   1.420  52.999  1.00  0.00     0.092 C 
HETATM    2  C8  UNL     1      23.701   1.936  51.604  1.00  0.00     0.055 C 
HETATM    3  C9  UNL     1      24.608   3.066  52.031  1.00  0.00     0.122 C 
HETATM    4  N2  UNL     1      25.372   2.058  52.739  1.00  0.00    -0.346 N 
ENDROOT
BRANCH   1   5
HETATM    5  C6  UNL     1      24.183  -0.086  53.111  1.00  0.00     0.052 C 
BRANCH   5   6
HETATM    6  C5  UNL     1      23.207  -0.574  54.084  1.00  0.00    -0.022 C 
BRANCH   6   7
HETATM    7  C4  UNL     1      22.386  -1.315  53.329  1.00  0.00     0.026 C 
BRANCH   7   8
HETATM    8  C3  UNL     1      21.161  -0.555  53.503  1.00  0.00     0.035 C 
BRANCH   8   9
HETATM    9  C2  UNL     1      20.383   0.539  53.377  1.00  0.00    -0.008 C 
HETATM   10  C1  UNL     1      20.255   1.775  52.867  1.00  0.00     0.026 C 
ENDBRANCH   8   9
BRANCH   8  11
HETATM   11  N1  UNL     1      20.180  -1.340  54.173  1.00  0.00    -0.398 N 
HETATM   12  H3  UNL     1      19.438  -2.016  54.513  1.00  0.00     0.156 HD
HETATM   13  H4  UNL     1      19.473  -1.893  54.684  1.00  0.00     0.156 HD
ENDBRANCH   8  11
ENDBRANCH   7   8
ENDBRANCH   6   7
ENDBRANCH   5   6
ENDBRANCH   1   5
BRANCH   4  14
HETATM   14  C16 UNL     1      26.662   1.616  53.127  1.00  0.00     0.172 A 
HETATM   15  N3  UNL     1      27.449   2.272  53.735  1.00  0.00    -0.200 NA
HETATM   16  C17 UNL     1      28.662   1.875  54.108  1.00  0.00     0.171 A 
HETATM   17  C18 UNL     1      29.046   0.559  53.751  1.00  0.00     0.111 A 
HETATM   18  S1  UNL     1      27.545  -0.034  52.854  1.00  0.00    -0.060 SA
BRANCH  16  19
HETATM   19  O1  UNL     1      29.736   2.418  54.797  1.00  0.00    -0.344 OA
HETATM   20  H17 UNL     1      29.775   3.409  55.005  1.00  0.00     0.219 HD
ENDBRANCH  16  19
ENDBRANCH   4  14
BRANCH   3  21
HETATM   21  C10 UNL     1      25.264   3.802  50.959  1.00  0.00    -0.035 A 
HETATM   22  C11 UNL     1      26.344   3.275  50.225  1.00  0.00     0.012 A 
HETATM   23  C12 UNL     1      27.020   3.943  49.195  1.00  0.00     0.043 A 
HETATM   24  C13 UNL     1      26.521   5.210  48.949  1.00  0.00     0.116 A 
HETATM   25  F1  UNL     1      27.177   5.880  47.944  1.00  0.00    -0.206 F 
HETATM   26  C14 UNL     1      25.476   5.787  49.618  1.00  0.00     0.043 A 
HETATM   27  C15 UNL     1      24.864   5.078  50.610  1.00  0.00     0.012 A 
ENDBRANCH   3  21
TORSDOF 9
ENDMDL
MODEL 4
REMARK VINA RESULT:      -7.6      3.773      7.194
REMARK  9 active torsions:
REMARK  status: ('A' for Active; 'I' for Inactive)
REMARK    1  A    between atoms: C2_2  and  C3_3 
REMARK    2  A    between atoms: C3_3  and  N1_4 
REMARK    3  A    between atoms: C3_3  and  C4_5 
REMARK    4  A    between atoms: C4_5  and  C5_6 
REMARK    5  A    between atoms: C5_6  and  C6_7 
REMARK    6  A    between atoms: C6_7  and  C7_8 
REMARK    7  A    between atoms: C9_10  and  C10_11 
REMARK    8  A    between atoms: N2_18  and  C16_19 
REMARK    9  A    between atoms: C17_21  and  O1_22 
ROOT
HETATM    1  C7  UNL     1      25.101   2.700  51.726  1.00  0.00     0.092 C 
HETATM    2  C8  UNL     1      26.416   2.090  51.240  1.00  0.00     0.055 C 
HETATM    3  C9  UNL     1      26.449   1.578  52.660  1.00  0.00     0.122 C 
HETATM    4  N2  UNL     1      25.008   1.470  52.554  1.00  0.00    -0.346 N 
ENDROOT
BRANCH   1   5
HETATM    5  C6  UNL     1      23.998   2.753  50.688  1.00  0.00     0.052 C 
BRANCH   5   6
HETATM    6  C5  UNL     1      24.537   3.317  49.451  1.00  0.00    -0.022 C 
BRANCH   6   7
HETATM    7  C4  UNL     1      24.143   4.595  49.516  1.00  0.00     0.026 C 
BRANCH   7   8
HETATM    8  C3  UNL     1      25.441   5.242  49.450  1.00  0.00     0.035 C 
BRANCH   8   9
HETATM    9  C2  UNL     1      26.675   5.438  48.944  1.00  0.00    -0.008 C 
HETATM   10  C1  UNL     1      27.835   4.879  48.561  1.00  0.00     0.026 C 
ENDBRANCH   8   9
BRANCH   8  11
HETATM   11  N1  UNL     1      25.544   6.253  50.448  1.00  0.00    -0.398 N 
HETATM   12  H3  UNL     1      25.654   7.118  51.050  1.00  0.00     0.156 HD
HETATM   13  H4  UNL     1      25.612   6.965  51.193  1.00  0.00     0.156 HD
ENDBRANCH   8  11
ENDBRANCH   7   8
ENDBRANCH   6   7
ENDBRANCH   5   6
ENDBRANCH   1   5
BRANCH   4  14
HETATM   14  C16 UNL     1      23.855   0.721  52.900  1.00  0.00     0.172 A 
HETATM   15  N3  UNL     1      23.764   0.021  53.859  1.00  0.00    -0.200 NA
HETATM   16  C17 UNL     1      22.691  -0.688  54.200  1.00  0.00     0.171 A 
HETATM   17  C18 UNL     1      21.564  -0.600  53.345  1.00  0.00     0.111 A 
HETATM   18  S1  UNL     1      22.174   0.562  52.047  1.00  0.00    -0.060 SA
BRANCH  16  19
HETATM   19  O1  UNL     1      22.333  -1.550  55.225  1.00  0.00    -0.344 OA
HETATM   20  H17 UNL     1      22.319  -1.237  56.190  1.00  0.00     0.219 HD
ENDBRANCH  16  19
ENDBRANCH   4  14
BRANCH   3  21
HETATM   21  C10 UNL     1      27.217   0.360  52.885  1.00  0.00    -0.035 A 
HETATM   22  C11 UNL     1      28.441   0.351  53.579  1.00  0.00     0.012 A 
HETATM   23  C12 UNL     1      29.226  -0.786  53.813  1.00  0.00     0.043 A 
HETATM   24  C13 UNL     1      28.680  -1.943  53.286  1.00  0.00     0.116 A 
HETATM   25  F1  UNL     1      29.442  -3.066  53.503  1.00  0.00    -0.206 F 
HETATM   26  C14 UNL     1      27.497  -2.012  52.602  1.00  0.00     0.043 A 
HETATM   27  C15 UNL     1      26.784  -0.864  52.412  1.00  0.00     0.012 A 
ENDBRANCH   3  21
TORSDOF 9
ENDMDL
MODEL 5
REMARK VINA RESULT:      -7.3      3.418      5.857
REMARK  9 active torsions:
REMARK  status: ('A' for Active; 'I' for Inactive)
REMARK    1  A    between atoms: C2_2  and  C3_3 
REMARK    2  A    between atoms: C3_3  and  N1_4 
REMARK    3  A    between atoms: C3_3  and  C4_5 
REMARK    4  A    between atoms: C4_5  and  C5_6 
REMARK    5  A    between atoms: C5_6  and  C6_7 
REMARK    6  A    between atoms: C6_7  and  C7_8 
REMARK    7  A    between atoms: C9_10  and  C10_11 
REMARK    8  A    between atoms: N2_18  and  C16_19 
REMARK    9  A    between atoms: C17_21  and  O1_22 
ROOT
HETATM    1  C7  UNL     1      26.457   2.946  50.944  1.00  0.00     0.092 C 
HETATM    2  C8  UNL     1      26.526   1.464  51.312  1.00  0.00     0.055 C 
HETATM    3  C9  UNL     1      25.752   1.953  52.514  1.00  0.00     0.122 C 
HETATM    4  N2  UNL     1      25.131   2.899  51.610  1.00  0.00    -0.346 N 
ENDROOT
BRANCH   1   5
HETATM    5  C6  UNL     1      26.324   3.232  49.462  1.00  0.00     0.052 C 
BRANCH   5   6
HETATM    6  C5  UNL     1      27.199   4.350  49.113  1.00  0.00    -0.022 C 
BRANCH   6   7
HETATM    7  C4  UNL     1      26.345   5.378  49.035  1.00  0.00     0.026 C 
BRANCH   7   8
HETATM    8  C3  UNL     1      27.263   6.409  48.584  1.00  0.00     0.035 C 
BRANCH   8   9
HETATM    9  C2  UNL     1      28.143   6.958  47.724  1.00  0.00    -0.008 C 
HETATM   10  C1  UNL     1      29.433   7.120  47.387  1.00  0.00     0.026 C 
ENDBRANCH   8   9
BRANCH   8  11
HETATM   11  N1  UNL     1      27.311   7.478  49.525  1.00  0.00    -0.398 N 
HETATM   12  H3  UNL     1      27.238   8.360  50.105  1.00  0.00     0.156 HD
HETATM   13  H4  UNL     1      27.363   8.235  50.224  1.00  0.00     0.156 HD
ENDBRANCH   8  11
ENDBRANCH   7   8
ENDBRANCH   6   7
ENDBRANCH   5   6
ENDBRANCH   1   5
BRANCH   4  14
HETATM   14  C16 UNL     1      23.940   3.585  51.261  1.00  0.00     0.172 A 
HETATM   15  N3  UNL     1      23.618   4.647  51.693  1.00  0.00    -0.200 NA
HETATM   16  C17 UNL     1      22.506   5.306  51.376  1.00  0.00     0.171 A 
HETATM   17  C18 UNL     1      21.635   4.687  50.446  1.00  0.00     0.111 A 
HETATM   18  S1  UNL     1      22.537   3.118  50.081  1.00  0.00    -0.060 SA
BRANCH  16  19
HETATM   19  O1  UNL     1      21.913   6.511  51.720  1.00  0.00    -0.344 OA
HETATM   20  H17 UNL     1      21.813   7.257  51.039  1.00  0.00     0.219 HD
ENDBRANCH  16  19
ENDBRANCH   4  14
BRANCH   3  21
HETATM   21  C10 UNL     1      24.903   0.970  53.174  1.00  0.00    -0.035 A 
HETATM   22  C11 UNL     1      23.518   0.884  52.943  1.00  0.00     0.012 A 
HETATM   23  C12 UNL     1      22.653  -0.031  53.558  1.00  0.00     0.043 A 
HETATM   24  C13 UNL     1      23.296  -0.875  54.446  1.00  0.00     0.116 A 
HETATM   25  F1  UNL     1      22.460  -1.776  55.062  1.00  0.00    -0.206 F 
HETATM   26  C14 UNL     1      24.636  -0.854  54.720  1.00  0.00     0.043 A 
HETATM   27  C15 UNL     1      25.419   0.065  54.083  1.00  0.00     0.012 A 
ENDBRANCH   3  21
TORSDOF 9
ENDMDL
MODEL 6
REMARK VINA RESULT:      -7.1      3.859      6.024
REMARK  9 active torsions:
REMARK  status: ('A' for Active; 'I' for Inactive)
REMARK    1  A    between atoms: C2_2  and  C3_3 
REMARK    2  A    between atoms: C3_3  and  N1_4 
REMARK    3  A    between atoms: C3_3  and  C4_5 
REMARK    4  A    between atoms: C4_5  and  C5_6 
REMARK    5  A    between atoms: C5_6  and  C6_7 
REMARK    6  A    between atoms: C6_7  and  C7_8 
REMARK    7  A    between atoms: C9_10  and  C10_11 
REMARK    8  A    between atoms: N2_18  and  C16_19 
REMARK    9  A    between atoms: C17_21  and  O1_22 
ROOT
HETATM    1  C7  UNL     1      25.873   1.352  51.744  1.00  0.00     0.092 C 
HETATM    2  C8  UNL     1      26.877   2.505  51.715  1.00  0.00     0.055 C 
HETATM    3  C9  UNL     1      26.275   2.704  50.344  1.00  0.00     0.122 C 
HETATM    4  N2  UNL     1      25.027   2.264  50.933  1.00  0.00    -0.346 N 
ENDROOT
BRANCH   1   5
HETATM    5  C6  UNL     1      25.252   1.078  53.098  1.00  0.00     0.052 C 
BRANCH   5   6
HETATM    6  C5  UNL     1      25.808  -0.164  53.633  1.00  0.00    -0.022 C 
BRANCH   6   7
HETATM    7  C4  UNL     1      26.360   0.234  54.785  1.00  0.00     0.026 C 
BRANCH   7   8
HETATM    8  C3  UNL     1      27.760   0.033  54.454  1.00  0.00     0.035 C 
BRANCH   8   9
HETATM    9  C2  UNL     1      28.791  -0.631  53.896  1.00  0.00    -0.008 C 
HETATM   10  C1  UNL     1      30.077  -0.592  53.508  1.00  0.00     0.026 C 
ENDBRANCH   8   9
BRANCH   8  11
HETATM   11  N1  UNL     1      28.552   1.097  54.973  1.00  0.00    -0.398 N 
HETATM   12  H3  UNL     1      29.282   1.774  55.335  1.00  0.00     0.156 HD
HETATM   13  H4  UNL     1      29.101   1.885  55.353  1.00  0.00     0.156 HD
ENDBRANCH   8  11
ENDBRANCH   7   8
ENDBRANCH   6   7
ENDBRANCH   5   6
ENDBRANCH   1   5
BRANCH   4  14
HETATM   14  C16 UNL     1      23.618   2.426  50.964  1.00  0.00     0.172 A 
HETATM   15  N3  UNL     1      22.855   1.860  50.247  1.00  0.00    -0.200 NA
HETATM   16  C17 UNL     1      21.531   1.999  50.262  1.00  0.00     0.171 A 
HETATM   17  C18 UNL     1      20.990   2.897  51.214  1.00  0.00     0.111 A 
HETATM   18  S1  UNL     1      22.516   3.505  52.058  1.00  0.00    -0.060 SA
BRANCH  16  19
HETATM   19  O1  UNL     1      20.452   1.478  49.564  1.00  0.00    -0.344 OA
HETATM   20  H17 UNL     1      20.187   0.504  49.664  1.00  0.00     0.219 HD
ENDBRANCH  16  19
ENDBRANCH   4  14
BRANCH   3  21
HETATM   21  C10 UNL     1      26.344   4.055  49.803  1.00  0.00    -0.035 A 
HETATM   22  C11 UNL     1      27.362   4.471  48.925  1.00  0.00     0.012 A 
HETATM   23  C12 UNL     1      27.484   5.759  48.385  1.00  0.00     0.043 A 
HETATM   24  C13 UNL     1      26.485   6.621  48.803  1.00  0.00     0.116 A 
HETATM   25  F1  UNL     1      26.595   7.890  48.286  1.00  0.00    -0.206 F 
HETATM   26  C14 UNL     1      25.465   6.289  49.651  1.00  0.00     0.043 A 
HETATM   27  C15 UNL     1      25.408   5.015  50.138  1.00  0.00     0.012 A 
ENDBRANCH   3  21
TORSDOF 9
ENDMDL
MODEL 7
REMARK VINA RESULT:      -7.1      4.088      6.240
REMARK  9 active torsions:
REMARK  status: ('A' for Active; 'I' for Inactive)
REMARK    1  A    between atoms: C2_2  and  C3_3 
REMARK    2  A    between atoms: C3_3  and  N1_4 
REMARK    3  A    between atoms: C3_3  and  C4_5 
REMARK    4  A    between atoms: C4_5  and  C5_6 
REMARK    5  A    between atoms: C5_6  and  C6_7 
REMARK    6  A    between atoms: C6_7  and  C7_8 
REMARK    7  A    between atoms: C9_10  and  C10_11 
REMARK    8  A    between atoms: N2_18  and  C16_19 
REMARK    9  A    between atoms: C17_21  and  O1_22 
ROOT
HETATM    1  C7  UNL     1      25.590   1.735  51.535  1.00  0.00     0.092 C 
HETATM    2  C8  UNL     1      26.805   2.642  51.339  1.00  0.00     0.055 C 
HETATM    3  C9  UNL     1      26.060   2.996  50.074  1.00  0.00     0.122 C 
HETATM    4  N2  UNL     1      24.850   2.826  50.852  1.00  0.00    -0.346 N 
ENDROOT
BRANCH   1   5
HETATM    5  C6  UNL     1      25.137   1.574  52.973  1.00  0.00     0.052 C 
BRANCH   5   6
HETATM    6  C5  UNL     1      26.275   1.818  53.859  1.00  0.00    -0.022 C 
BRANCH   6   7
HETATM    7  C4  UNL     1      26.352   0.679  54.557  1.00  0.00     0.026 C 
BRANCH   7   8
HETATM    8  C3  UNL     1      27.713   0.295  54.226  1.00  0.00     0.035 C 
BRANCH   8   9
HETATM    9  C2  UNL     1      28.648  -0.376  53.525  1.00  0.00    -0.008 C 
HETATM   10  C1  UNL     1      29.860  -0.955  53.533  1.00  0.00     0.026 C 
ENDBRANCH   8   9
BRANCH   8  11
HETATM   11  N1  UNL     1      28.639   0.968  55.075  1.00  0.00    -0.398 N 
HETATM   12  H3  UNL     1      29.200   1.446  55.835  1.00  0.00     0.156 HD
HETATM   13  H4  UNL     1      29.329   1.457  55.666  1.00  0.00     0.156 HD
ENDBRANCH   8  11
ENDBRANCH   7   8
ENDBRANCH   6   7
ENDBRANCH   5   6
ENDBRANCH   1   5
BRANCH   4  14
HETATM   14  C16 UNL     1      23.532   3.290  51.096  1.00  0.00     0.172 A 
HETATM   15  N3  UNL     1      22.566   2.931  50.501  1.00  0.00    -0.200 NA
HETATM   16  C17 UNL     1      21.323   3.354  50.716  1.00  0.00     0.171 A 
HETATM   17  C18 UNL     1      21.139   4.313  51.743  1.00  0.00     0.111 A 
HETATM   18  S1  UNL     1      22.868   4.542  52.348  1.00  0.00    -0.060 SA
BRANCH  16  19
HETATM   19  O1  UNL     1      20.065   3.108  50.187  1.00  0.00    -0.344 OA
HETATM   20  H17 UNL     1      19.739   2.160  50.037  1.00  0.00     0.219 HD
ENDBRANCH  16  19
ENDBRANCH   4  14
BRANCH   3  21
HETATM   21  C10 UNL     1      26.339   4.311  49.511  1.00  0.00    -0.035 A 
HETATM   22  C11 UNL     1      25.430   5.382  49.596  1.00  0.00     0.012 A 
HETATM   23  C12 UNL     1      25.640   6.661  49.063  1.00  0.00     0.043 A 
HETATM   24  C13 UNL     1      26.860   6.790  48.422  1.00  0.00     0.116 A 
HETATM   25  F1  UNL     1      27.079   8.039  47.890  1.00  0.00    -0.206 F 
HETATM   26  C14 UNL     1      27.793   5.797  48.302  1.00  0.00     0.043 A 
HETATM   27  C15 UNL     1      27.521   4.575  48.846  1.00  0.00     0.012 A 
ENDBRANCH   3  21
TORSDOF 9
ENDMDL
MODEL 8
REMARK VINA RESULT:      -6.9      3.810      6.090
REMARK  9 active torsions:
REMARK  status: ('A' for Active; 'I' for Inactive)
REMARK    1  A    between atoms: C2_2  and  C3_3 
REMARK    2  A    between atoms: C3_3  and  N1_4 
REMARK    3  A    between atoms: C3_3  and  C4_5 
REMARK    4  A    between atoms: C4_5  and  C5_6 
REMARK    5  A    between atoms: C5_6  and  C6_7 
REMARK    6  A    between atoms: C6_7  and  C7_8 
REMARK    7  A    between atoms: C9_10  and  C10_11 
REMARK    8  A    between atoms: N2_18  and  C16_19 
REMARK    9  A    between atoms: C17_21  and  O1_22 
ROOT
HETATM    1  C7  UNL     1      26.010   3.279  50.807  1.00  0.00     0.092 C 
HETATM    2  C8  UNL     1      26.322   2.022  51.620  1.00  0.00     0.055 C 
HETATM    3  C9  UNL     1      25.030   2.408  52.300  1.00  0.00     0.122 C 
HETATM    4  N2  UNL     1      24.594   2.873  50.999  1.00  0.00    -0.346 N 
ENDROOT
BRANCH   1   5
HETATM    5  C6  UNL     1      26.412   3.213  49.347  1.00  0.00     0.052 C 
BRANCH   5   6
HETATM    6  C5  UNL     1      27.278   4.351  49.041  1.00  0.00    -0.022 C 
BRANCH   6   7
HETATM    7  C4  UNL     1      26.414   5.373  48.998  1.00  0.00     0.026 C 
BRANCH   7   8
HETATM    8  C3  UNL     1      27.282   6.387  48.424  1.00  0.00     0.035 C 
BRANCH   8   9
HETATM    9  C2  UNL     1      27.558   7.437  47.626  1.00  0.00    -0.008 C 
HETATM   10  C1  UNL     1      28.261   7.901  46.580  1.00  0.00     0.026 C 
ENDBRANCH   8   9
BRANCH   8  11
HETATM   11  N1  UNL     1      28.598   6.274  48.957  1.00  0.00    -0.398 N 
HETATM   12  H3  UNL     1      29.585   6.034  49.259  1.00  0.00     0.156 HD
HETATM   13  H4  UNL     1      29.548   6.219  49.358  1.00  0.00     0.156 HD
ENDBRANCH   8  11
ENDBRANCH   7   8
ENDBRANCH   6   7
ENDBRANCH   5   6
ENDBRANCH   1   5
BRANCH   4  14
HETATM   14  C16 UNL     1      23.507   2.997  50.097  1.00  0.00     0.172 A 
HETATM   15  N3  UNL     1      22.861   2.085  49.686  1.00  0.00    -0.200 NA
HETATM   16  C17 UNL     1      21.838   2.182  48.840  1.00  0.00     0.171 A 
HETATM   17  C18 UNL     1      21.493   3.482  48.395  1.00  0.00     0.111 A 
HETATM   18  S1  UNL     1      22.739   4.519  49.278  1.00  0.00    -0.060 SA
BRANCH  16  19
HETATM   19  O1  UNL     1      20.948   1.314  48.227  1.00  0.00    -0.344 OA
HETATM   20  H17 UNL     1      20.804   0.376  48.584  1.00  0.00     0.219 HD
ENDBRANCH  16  19
ENDBRANCH   4  14
BRANCH   3  21
HETATM   21  C10 UNL     1      24.288   1.325  52.930  1.00  0.00    -0.035 A 
HETATM   22  C11 UNL     1      22.884   1.323  53.029  1.00  0.00     0.012 A 
HETATM   23  C12 UNL     1      22.120   0.315  53.634  1.00  0.00     0.043 A 
HETATM   24  C13 UNL     1      22.887  -0.716  54.146  1.00  0.00     0.116 A 
HETATM   25  F1  UNL     1      22.153  -1.710  54.748  1.00  0.00    -0.206 F 
HETATM   26  C14 UNL     1      24.253  -0.785  54.086  1.00  0.00     0.043 A 
HETATM   27  C15 UNL     1      24.932   0.233  53.480  1.00  0.00     0.012 A 
ENDBRANCH   3  21
TORSDOF 9
ENDMDL
MODEL 9
REMARK VINA RESULT:      -6.8      3.123      5.308
REMARK  9 active torsions:
REMARK  status: ('A' for Active; 'I' for Inactive)
REMARK    1  A    between atoms: C2_2  and  C3_3 
REMARK    2  A    between atoms: C3_3  and  N1_4 
REMARK    3  A    between atoms: C3_3  and  C4_5 
REMARK    4  A    between atoms: C4_5  and  C5_6 
REMARK    5  A    between atoms: C5_6  and  C6_7 
REMARK    6  A    between atoms: C6_7  and  C7_8 
REMARK    7  A    between atoms: C9_10  and  C10_11 
REMARK    8  A    between atoms: N2_18  and  C16_19 
REMARK    9  A    between atoms: C17_21  and  O1_22 
ROOT
HETATM    1  C7  UNL     1      25.059   1.236  51.841  1.00  0.00     0.092 C 
HETATM    2  C8  UNL     1      25.796   2.571  51.950  1.00  0.00     0.055 C 
HETATM    3  C9  UNL     1      25.045   2.840  50.668  1.00  0.00     0.122 C 
HETATM    4  N2  UNL     1      23.973   2.054  51.243  1.00  0.00    -0.346 N 
ENDROOT
BRANCH   1   5
HETATM    5  C6  UNL     1      24.632   0.630  53.163  1.00  0.00     0.052 C 
BRANCH   5   6
HETATM    6  C5  UNL     1      25.602  -0.393  53.551  1.00  0.00    -0.022 C 
BRANCH   6   7
HETATM    7  C4  UNL     1      26.171   0.140  54.638  1.00  0.00     0.026 C 
BRANCH   7   8
HETATM    8  C3  UNL     1      27.568  -0.016  54.270  1.00  0.00     0.035 C 
BRANCH   8   9
HETATM    9  C2  UNL     1      28.586  -0.568  53.581  1.00  0.00    -0.008 C 
HETATM   10  C1  UNL     1      29.909  -0.793  53.516  1.00  0.00     0.026 C 
ENDBRANCH   8   9
BRANCH   8  11
HETATM   11  N1  UNL     1      28.381   0.893  55.006  1.00  0.00    -0.398 N 
HETATM   12  H3  UNL     1      29.123   1.456  55.509  1.00  0.00     0.156 HD
HETATM   13  H4  UNL     1      28.945   1.569  55.545  1.00  0.00     0.156 HD
ENDBRANCH   8  11
ENDBRANCH   7   8
ENDBRANCH   6   7
ENDBRANCH   5   6
ENDBRANCH   1   5
BRANCH   4  14
HETATM   14  C16 UNL     1      22.570   1.899  51.380  1.00  0.00     0.172 A 
HETATM   15  N3  UNL     1      21.845   2.697  51.885  1.00  0.00    -0.200 NA
HETATM   16  C17 UNL     1      20.528   2.569  52.021  1.00  0.00     0.171 A 
HETATM   17  C18 UNL     1      19.942   1.380  51.520  1.00  0.00     0.111 A 
HETATM   18  S1  UNL     1      21.419   0.492  50.857  1.00  0.00    -0.060 SA
BRANCH  16  19
HETATM   19  O1  UNL     1      19.488   3.320  52.549  1.00  0.00    -0.344 OA
HETATM   20  H17 UNL     1      19.062   4.069  52.015  1.00  0.00     0.219 HD
ENDBRANCH  16  19
ENDBRANCH   4  14
BRANCH   3  21
HETATM   21  C10 UNL     1      24.785   4.240  50.359  1.00  0.00    -0.035 A 
HETATM   22  C11 UNL     1      24.306   5.154  51.317  1.00  0.00     0.012 A 
HETATM   23  C12 UNL     1      24.027   6.505  51.072  1.00  0.00     0.043 A 
HETATM   24  C13 UNL     1      24.268   6.883  49.763  1.00  0.00     0.116 A 
HETATM   25  F1  UNL     1      23.994   8.205  49.506  1.00  0.00    -0.206 F 
HETATM   26  C14 UNL     1      24.734   6.053  48.779  1.00  0.00     0.043 A 
HETATM   27  C15 UNL     1      24.986   4.748  49.090  1.00  0.00     0.012 A 
ENDBRANCH   3  21
TORSDOF 9
ENDMDL
