MODEL 1
REMARK VINA RESULT:     -10.0      0.000      0.000
REMARK  6 active torsions:
REMARK  status: ('A' for Active; 'I' for Inactive)
REMARK    1  A    between atoms: O1_2  and  C2_3 
REMARK    2  A    between atoms: C5_6  and  C6_7 
REMARK    3  A    between atoms: C17_21  and  C18_22 
REMARK    4  A    between atoms: C18_22  and  C19_23 
REMARK    5  A    between atoms: C19_23  and  C20_24 
REMARK    6  A    between atoms: C20_24  and  O3_26 
ROOT
HETATM    1  C6  UNL     1      23.444   0.159  53.033  1.00  0.00    -0.024 A 
HETATM    2  C7  UNL     1      22.964   0.983  52.041  1.00  0.00     0.013 A 
HETATM    3  C8  UNL     1      21.612   1.002  51.787  1.00  0.00     0.015 A 
HETATM    4  C9  UNL     1      20.677   0.249  52.453  1.00  0.00     0.007 A 
HETATM    5  C10 UNL     1      21.179  -0.566  53.441  1.00  0.00     0.047 A 
HETATM    6  C11 UNL     1      22.529  -0.607  53.719  1.00  0.00     0.042 A 
HETATM    7  N1  UNL     1      20.039  -1.215  53.987  1.00  0.00    -0.322 N 
HETATM    8  C12 UNL     1      18.860  -0.789  53.325  1.00  0.00     0.257 A 
HETATM    9  O2  UNL     1      17.820  -1.321  53.755  1.00  0.00    -0.267 OA
HETATM   10  C13 UNL     1      19.232   0.179  52.304  1.00  0.00     0.051 A 
HETATM   11  C14 UNL     1      18.366   0.704  51.460  1.00  0.00    -0.017 C 
HETATM   12  C15 UNL     1      18.653   1.586  50.318  1.00  0.00     0.157 C 
HETATM   13  N2  UNL     1      18.532   2.952  50.841  1.00  0.00    -0.393 N 
HETATM   14  C16 UNL     1      17.201   3.397  51.204  1.00  0.00     0.115 C 
HETATM   15  C17 UNL     1      16.007   2.786  51.441  1.00  0.00     0.062 C 
HETATM   16  O4  UNL     1      16.035   1.415  51.316  1.00  0.00    -0.345 OA
HETATM   17  C22 UNL     1      16.952   0.417  51.761  1.00  0.00     0.156 C 
HETATM   18  C23 UNL     1      16.509  -0.898  51.196  1.00  0.00     0.045 C 
HETATM   19  H9  UNL     1      20.195  -1.905  54.781  1.00  0.00     0.169 HD
HETATM   20  H12 UNL     1      19.302   3.653  50.982  1.00  0.00     0.159 HD
ENDROOT
BRANCH   1  21
HETATM   21  C5  UNL     1      24.859   0.074  53.371  1.00  0.00    -0.026 A 
HETATM   22  C4  UNL     1      25.346  -0.215  54.626  1.00  0.00     0.015 A 
HETATM   23  C3  UNL     1      26.719  -0.270  54.832  1.00  0.00     0.037 A 
HETATM   24  C2  UNL     1      27.616  -0.037  53.792  1.00  0.00     0.068 A 
HETATM   25  C25 UNL     1      27.103   0.251  52.545  1.00  0.00     0.037 A 
HETATM   26  C24 UNL     1      25.752   0.309  52.320  1.00  0.00     0.015 A 
BRANCH  24  27
HETATM   27  O1  UNL     1      28.933  -0.137  54.202  1.00  0.00    -0.356 OA
HETATM   28  C1  UNL     1      29.787  -1.078  53.603  1.00  0.00     0.210 C 
ENDBRANCH  24  27
ENDBRANCH   1  21
BRANCH  15  29
HETATM   29  C18 UNL     1      14.933   3.728  51.782  1.00  0.00     0.068 C 
BRANCH  29  30
HETATM   30  C19 UNL     1      13.970   3.365  52.837  1.00  0.00     0.038 C 
BRANCH  30  31
HETATM   31  C20 UNL     1      13.614   4.474  53.757  1.00  0.00     0.114 C 
HETATM   32  C21 UNL     1      12.312   4.052  54.457  1.00  0.00     0.039 C 
BRANCH  31  33
HETATM   33  O3  UNL     1      14.582   4.784  54.660  1.00  0.00    -0.396 OA
HETATM   34  H22 UNL     1      14.271   4.991  55.585  1.00  0.00     0.210 HD
ENDBRANCH  31  33
ENDBRANCH  30  31
ENDBRANCH  29  30
ENDBRANCH  15  29
TORSDOF 6
ENDMDL
MODEL 2
REMARK VINA RESULT:      -9.0      7.880     11.640
REMARK  6 active torsions:
REMARK  status: ('A' for Active; 'I' for Inactive)
REMARK    1  A    between atoms: O1_2  and  C2_3 
REMARK    2  A    between atoms: C5_6  and  C6_7 
REMARK    3  A    between atoms: C17_21  and  C18_22 
REMARK    4  A    between atoms: C18_22  and  C19_23 
REMARK    5  A    between atoms: C19_23  and  C20_24 
REMARK    6  A    between atoms: C20_24  and  O3_26 
ROOT
HETATM    1  C6  UNL     1      24.976   2.933  50.855  1.00  0.00    -0.024 A 
HETATM    2  C7  UNL     1      26.277   2.849  50.415  1.00  0.00     0.013 A 
HETATM    3  C8  UNL     1      26.824   3.917  49.743  1.00  0.00     0.015 A 
HETATM    4  C9  UNL     1      26.166   5.090  49.465  1.00  0.00     0.007 A 
HETATM    5  C10 UNL     1      24.868   5.154  49.915  1.00  0.00     0.047 A 
HETATM    6  C11 UNL     1      24.292   4.099  50.591  1.00  0.00     0.042 A 
HETATM    7  N1  UNL     1      24.415   6.445  49.531  1.00  0.00    -0.322 N 
HETATM    8  C12 UNL     1      25.442   7.150  48.853  1.00  0.00     0.257 A 
HETATM    9  O2  UNL     1      25.112   8.292  48.488  1.00  0.00    -0.267 OA
HETATM   10  C13 UNL     1      26.618   6.294  48.786  1.00  0.00     0.051 A 
HETATM   11  C14 UNL     1      27.718   6.633  48.145  1.00  0.00    -0.017 C 
HETATM   12  C15 UNL     1      28.908   5.800  47.908  1.00  0.00     0.157 C 
HETATM   13  N2  UNL     1      29.815   6.090  49.024  1.00  0.00    -0.393 N 
HETATM   14  C16 UNL     1      30.408   7.412  49.057  1.00  0.00     0.115 C 
HETATM   15  C17 UNL     1      30.153   8.603  48.449  1.00  0.00     0.062 C 
HETATM   16  O4  UNL     1      29.078   8.583  47.588  1.00  0.00    -0.345 OA
HETATM   17  C22 UNL     1      27.765   8.032  47.685  1.00  0.00     0.156 C 
HETATM   18  C23 UNL     1      27.091   8.217  46.360  1.00  0.00     0.045 C 
HETATM   19  H9  UNL     1      23.419   6.715  49.782  1.00  0.00     0.169 HD
HETATM   20  H12 UNL     1      30.090   5.447  49.808  1.00  0.00     0.159 HD
ENDROOT
BRANCH   1  21
HETATM   21  C5  UNL     1      24.314   1.852  51.575  1.00  0.00    -0.026 A 
HETATM   22  C4  UNL     1      24.931   1.031  52.490  1.00  0.00     0.015 A 
HETATM   23  C3  UNL     1      24.198   0.030  53.116  1.00  0.00     0.037 A 
HETATM   24  C2  UNL     1      22.847  -0.160  52.835  1.00  0.00     0.068 A 
HETATM   25  C25 UNL     1      22.252   0.676  51.914  1.00  0.00     0.037 A 
HETATM   26  C24 UNL     1      22.957   1.670  51.286  1.00  0.00     0.015 A 
BRANCH  24  27
HETATM   27  O1  UNL     1      22.301  -1.203  53.560  1.00  0.00    -0.356 OA
HETATM   28  C1  UNL     1      22.353  -1.189  54.964  1.00  0.00     0.210 C 
ENDBRANCH  24  27
ENDBRANCH   1  21
BRANCH  15  29
HETATM   29  C18 UNL     1      31.088   9.665  48.841  1.00  0.00     0.068 C 
BRANCH  29  30
HETATM   30  C19 UNL     1      31.317  10.795  47.921  1.00  0.00     0.038 C 
BRANCH  30  31
HETATM   31  C20 UNL     1      30.697  12.074  48.346  1.00  0.00     0.114 C 
HETATM   32  C21 UNL     1      29.323  12.137  47.659  1.00  0.00     0.039 C 
BRANCH  31  33
HETATM   33  O3  UNL     1      30.583  12.220  49.693  1.00  0.00    -0.396 OA
HETATM   34  H22 UNL     1      31.354  12.652  50.155  1.00  0.00     0.210 HD
ENDBRANCH  31  33
ENDBRANCH  30  31
ENDBRANCH  29  30
ENDBRANCH  15  29
TORSDOF 6
ENDMDL
MODEL 3
REMARK VINA RESULT:      -8.2      4.360      5.361
REMARK  6 active torsions:
REMARK  status: ('A' for Active; 'I' for Inactive)
REMARK    1  A    between atoms: O1_2  and  C2_3 
REMARK    2  A    between atoms: C5_6  and  C6_7 
REMARK    3  A    between atoms: C17_21  and  C18_22 
REMARK    4  A    between atoms: C18_22  and  C19_23 
REMARK    5  A    between atoms: C19_23  and  C20_24 
REMARK    6  A    between atoms: C20_24  and  O3_26 
ROOT
HETATM    1  C6  UNL     1      24.409   1.850  51.911  1.00  0.00    -0.024 A 
HETATM    2  C7  UNL     1      24.594   2.796  50.930  1.00  0.00     0.013 A 
HETATM    3  C8  UNL     1      23.522   3.560  50.531  1.00  0.00     0.015 A 
HETATM    4  C9  UNL     1      22.251   3.457  51.040  1.00  0.00     0.007 A 
HETATM    5  C10 UNL     1      22.089   2.506  52.021  1.00  0.00     0.047 A 
HETATM    6  C11 UNL     1      23.144   1.724  52.442  1.00  0.00     0.042 A 
HETATM    7  N1  UNL     1      20.721   2.602  52.395  1.00  0.00    -0.322 N 
HETATM    8  C12 UNL     1      20.068   3.607  51.638  1.00  0.00     0.257 A 
HETATM    9  O2  UNL     1      18.864   3.745  51.915  1.00  0.00    -0.267 OA
HETATM   10  C13 UNL     1      21.040   4.200  50.729  1.00  0.00     0.051 A 
HETATM   11  C14 UNL     1      20.723   5.113  49.833  1.00  0.00    -0.017 C 
HETATM   12  C15 UNL     1      21.591   5.681  48.790  1.00  0.00     0.157 C 
HETATM   13  N2  UNL     1      22.178   6.887  49.386  1.00  0.00    -0.393 N 
HETATM   14  C16 UNL     1      21.279   7.998  49.630  1.00  0.00     0.115 C 
HETATM   15  C17 UNL     1      19.928   8.154  49.694  1.00  0.00     0.062 C 
HETATM   16  O4  UNL     1      19.211   6.998  49.483  1.00  0.00    -0.345 OA
HETATM   17  C22 UNL     1      19.360   5.660  49.957  1.00  0.00     0.156 C 
HETATM   18  C23 UNL     1      18.342   4.810  49.262  1.00  0.00     0.045 C 
HETATM   19  H9  UNL     1      20.368   1.946  53.153  1.00  0.00     0.169 HD
HETATM   20  H12 UNL     1      23.181   7.043  49.656  1.00  0.00     0.159 HD
ENDROOT
BRANCH   1  21
HETATM   21  C5  UNL     1      25.485   0.995  52.397  1.00  0.00    -0.026 A 
HETATM   22  C4  UNL     1      25.331  -0.321  52.766  1.00  0.00     0.015 A 
HETATM   23  C3  UNL     1      26.432  -1.041  53.215  1.00  0.00     0.037 A 
HETATM   24  C2  UNL     1      27.693  -0.454  53.299  1.00  0.00     0.068 A 
HETATM   25  C25 UNL     1      27.821   0.866  52.924  1.00  0.00     0.037 A 
HETATM   26  C24 UNL     1      26.748   1.593  52.477  1.00  0.00     0.015 A 
BRANCH  24  27
HETATM   27  O1  UNL     1      28.651  -1.334  53.768  1.00  0.00    -0.356 OA
HETATM   28  C1  UNL     1      30.013  -0.997  53.695  1.00  0.00     0.210 C 
ENDBRANCH  24  27
ENDBRANCH   1  21
BRANCH  15  29
HETATM   29  C18 UNL     1      19.518   9.535  49.977  1.00  0.00     0.068 C 
BRANCH  29  30
HETATM   30  C19 UNL     1      19.414  10.495  48.863  1.00  0.00     0.038 C 
BRANCH  30  31
HETATM   31  C20 UNL     1      18.025  10.865  48.492  1.00  0.00     0.114 C 
HETATM   32  C21 UNL     1      17.750  10.196  47.135  1.00  0.00     0.039 C 
BRANCH  31  33
HETATM   33  O3  UNL     1      17.089  10.517  49.414  1.00  0.00    -0.396 OA
HETATM   34  H22 UNL     1      16.663  11.269  49.912  1.00  0.00     0.210 HD
ENDBRANCH  31  33
ENDBRANCH  30  31
ENDBRANCH  29  30
ENDBRANCH  15  29
TORSDOF 6
ENDMDL
MODEL 4
REMARK VINA RESULT:      -8.2      2.397      4.475
REMARK  6 active torsions:
REMARK  status: ('A' for Active; 'I' for Inactive)
REMARK    1  A    between atoms: O1_2  and  C2_3 
REMARK    2  A    between atoms: C5_6  and  C6_7 
REMARK    3  A    between atoms: C17_21  and  C18_22 
REMARK    4  A    between atoms: C18_22  and  C19_23 
REMARK    5  A    between atoms: C19_23  and  C20_24 
REMARK    6  A    between atoms: C20_24  and  O3_26 
ROOT
HETATM    1  C6  UNL     1      23.282   0.065  53.016  1.00  0.00    -0.024 A 
HETATM    2  C7  UNL     1      22.465  -0.579  53.916  1.00  0.00     0.013 A 
HETATM    3  C8  UNL     1      21.118  -0.663  53.652  1.00  0.00     0.015 A 
HETATM    4  C9  UNL     1      20.502  -0.146  52.539  1.00  0.00     0.007 A 
HETATM    5  C10 UNL     1      21.337   0.493  51.652  1.00  0.00     0.047 A 
HETATM    6  C11 UNL     1      22.692   0.593  51.889  1.00  0.00     0.042 A 
HETATM    7  N1  UNL     1      20.487   0.916  50.596  1.00  0.00    -0.322 N 
HETATM    8  C12 UNL     1      19.146   0.532  50.853  1.00  0.00     0.257 A 
HETATM    9  O2  UNL     1      18.345   0.873  49.965  1.00  0.00    -0.267 OA
HETATM   10  C13 UNL     1      19.108  -0.172  52.126  1.00  0.00     0.051 A 
HETATM   11  C14 UNL     1      17.989  -0.588  52.685  1.00  0.00    -0.017 C 
HETATM   12  C15 UNL     1      17.825  -1.192  54.017  1.00  0.00     0.157 C 
HETATM   13  N2  UNL     1      17.916  -2.640  53.802  1.00  0.00    -0.393 N 
HETATM   14  C16 UNL     1      16.823  -3.264  53.081  1.00  0.00     0.115 C 
HETATM   15  C17 UNL     1      15.806  -2.821  52.293  1.00  0.00     0.062 C 
HETATM   16  O4  UNL     1      15.779  -1.455  52.113  1.00  0.00    -0.345 OA
HETATM   17  C22 UNL     1      16.793  -0.492  51.829  1.00  0.00     0.156 C 
HETATM   18  C23 UNL     1      16.163   0.866  51.885  1.00  0.00     0.045 C 
HETATM   19  H9  UNL     1      20.928   1.441  49.784  1.00  0.00     0.169 HD
HETATM   20  H12 UNL     1      18.684  -3.286  54.113  1.00  0.00     0.159 HD
ENDROOT
BRANCH   1  21
HETATM   21  C5  UNL     1      24.720   0.202  53.212  1.00  0.00    -0.026 A 
HETATM   22  C4  UNL     1      25.402  -0.244  54.321  1.00  0.00     0.015 A 
HETATM   23  C3  UNL     1      26.777  -0.057  54.400  1.00  0.00     0.037 A 
HETATM   24  C2  UNL     1      27.481   0.575  53.377  1.00  0.00     0.068 A 
HETATM   25  C25 UNL     1      26.774   1.013  52.277  1.00  0.00     0.037 A 
HETATM   26  C24 UNL     1      25.417   0.838  52.179  1.00  0.00     0.015 A 
BRANCH  24  27
HETATM   27  O1  UNL     1      28.834   0.662  53.646  1.00  0.00    -0.356 OA
HETATM   28  C1  UNL     1      29.606  -0.506  53.765  1.00  0.00     0.210 C 
ENDBRANCH  24  27
ENDBRANCH   1  21
BRANCH  15  29
HETATM   29  C18 UNL     1      14.944  -3.901  51.797  1.00  0.00     0.068 C 
BRANCH  29  30
HETATM   30  C19 UNL     1      13.567  -4.014  52.312  1.00  0.00     0.038 C 
BRANCH  30  31
HETATM   31  C20 UNL     1      13.425  -4.872  53.514  1.00  0.00     0.114 C 
HETATM   32  C21 UNL     1      14.278  -6.125  53.253  1.00  0.00     0.039 C 
BRANCH  31  33
HETATM   33  O3  UNL     1      13.779  -4.267  54.678  1.00  0.00    -0.396 OA
HETATM   34  H22 UNL     1      14.732  -4.372  54.957  1.00  0.00     0.210 HD
ENDBRANCH  31  33
ENDBRANCH  30  31
ENDBRANCH  29  30
ENDBRANCH  15  29
TORSDOF 6
ENDMDL
MODEL 5
REMARK VINA RESULT:      -8.0     10.844     15.920
REMARK  6 active torsions:
REMARK  status: ('A' for Active; 'I' for Inactive)
REMARK    1  A    between atoms: O1_2  and  C2_3 
REMARK    2  A    between atoms: C5_6  and  C6_7 
REMARK    3  A    between atoms: C17_21  and  C18_22 
REMARK    4  A    between atoms: C18_22  and  C19_23 
REMARK    5  A    between atoms: C19_23  and  C20_24 
REMARK    6  A    between atoms: C20_24  and  O3_26 
ROOT
HETATM    1  C6  UNL     1      27.621   5.909  48.583  1.00  0.00    -0.024 A 
HETATM    2  C7  UNL     1      27.803   7.270  48.500  1.00  0.00     0.013 A 
HETATM    3  C8  UNL     1      29.055   7.758  48.206  1.00  0.00     0.015 A 
HETATM    4  C9  UNL     1      30.167   6.984  47.982  1.00  0.00     0.007 A 
HETATM    5  C10 UNL     1      29.962   5.627  48.068  1.00  0.00     0.047 A 
HETATM    6  C11 UNL     1      28.719   5.108  48.362  1.00  0.00     0.042 A 
HETATM    7  N1  UNL     1      31.229   5.051  47.784  1.00  0.00    -0.322 N 
HETATM    8  C12 UNL     1      32.189   6.064  47.530  1.00  0.00     0.257 A 
HETATM    9  O2  UNL     1      33.326   5.628  47.274  1.00  0.00    -0.267 OA
HETATM   10  C13 UNL     1      31.533   7.358  47.650  1.00  0.00     0.051 A 
HETATM   11  C14 UNL     1      32.177   8.503  47.550  1.00  0.00    -0.017 C 
HETATM   12  C15 UNL     1      31.640   9.854  47.779  1.00  0.00     0.157 C 
HETATM   13  N2  UNL     1      31.192  10.323  46.463  1.00  0.00    -0.393 N 
HETATM   14  C16 UNL     1      32.223  10.600  45.482  1.00  0.00     0.115 C 
HETATM   15  C17 UNL     1      33.543  10.295  45.354  1.00  0.00     0.062 C 
HETATM   16  O4  UNL     1      34.056   9.539  46.385  1.00  0.00    -0.345 OA
HETATM   17  C22 UNL     1      33.571   8.395  47.086  1.00  0.00     0.156 C 
HETATM   18  C23 UNL     1      34.521   8.107  48.207  1.00  0.00     0.045 C 
HETATM   19  H9  UNL     1      31.306   3.992  47.795  1.00  0.00     0.169 HD
HETATM   20  H12 UNL     1      30.204  10.486  46.144  1.00  0.00     0.159 HD
ENDROOT
BRANCH   1  21
HETATM   21  C5  UNL     1      26.331   5.302  48.889  1.00  0.00    -0.026 A 
HETATM   22  C4  UNL     1      25.116   5.924  48.718  1.00  0.00     0.015 A 
HETATM   23  C3  UNL     1      23.948   5.246  49.045  1.00  0.00     0.037 A 
HETATM   24  C2  UNL     1      23.982   3.946  49.545  1.00  0.00     0.068 A 
HETATM   25  C25 UNL     1      25.212   3.346  49.708  1.00  0.00     0.037 A 
HETATM   26  C24 UNL     1      26.377   3.996  49.390  1.00  0.00     0.015 A 
BRANCH  24  27
HETATM   27  O1  UNL     1      22.718   3.451  49.808  1.00  0.00    -0.356 OA
HETATM   28  C1  UNL     1      22.474   2.069  49.737  1.00  0.00     0.210 C 
ENDBRANCH  24  27
ENDBRANCH   1  21
BRANCH  15  29
HETATM   29  C18 UNL     1      34.148  10.841  44.132  1.00  0.00     0.068 C 
BRANCH  29  30
HETATM   30  C19 UNL     1      34.935   9.949  43.261  1.00  0.00     0.038 C 
BRANCH  30  31
HETATM   31  C20 UNL     1      36.390   9.928  43.549  1.00  0.00     0.114 C 
HETATM   32  C21 UNL     1      36.923  11.321  43.176  1.00  0.00     0.039 C 
BRANCH  31  33
HETATM   33  O3  UNL     1      36.701   9.608  44.832  1.00  0.00    -0.396 OA
HETATM   34  H22 UNL     1      37.148  10.321  45.368  1.00  0.00     0.210 HD
ENDBRANCH  31  33
ENDBRANCH  30  31
ENDBRANCH  29  30
ENDBRANCH  15  29
TORSDOF 6
ENDMDL
MODEL 6
REMARK VINA RESULT:      -7.9      9.387     12.021
REMARK  6 active torsions:
REMARK  status: ('A' for Active; 'I' for Inactive)
REMARK    1  A    between atoms: O1_2  and  C2_3 
REMARK    2  A    between atoms: C5_6  and  C6_7 
REMARK    3  A    between atoms: C17_21  and  C18_22 
REMARK    4  A    between atoms: C18_22  and  C19_23 
REMARK    5  A    between atoms: C19_23  and  C20_24 
REMARK    6  A    between atoms: C20_24  and  O3_26 
ROOT
HETATM    1  C6  UNL     1      25.813   3.924  49.969  1.00  0.00    -0.024 A 
HETATM    2  C7  UNL     1      27.059   4.213  49.462  1.00  0.00     0.013 A 
HETATM    3  C8  UNL     1      27.223   5.350  48.705  1.00  0.00     0.015 A 
HETATM    4  C9  UNL     1      26.226   6.245  48.405  1.00  0.00     0.007 A 
HETATM    5  C10 UNL     1      24.989   5.937  48.924  1.00  0.00     0.047 A 
HETATM    6  C11 UNL     1      24.793   4.805  49.685  1.00  0.00     0.042 A 
HETATM    7  N1  UNL     1      24.146   7.000  48.501  1.00  0.00    -0.322 N 
HETATM    8  C12 UNL     1      24.878   7.938  47.730  1.00  0.00     0.257 A 
HETATM    9  O2  UNL     1      24.198   8.898  47.325  1.00  0.00    -0.267 OA
HETATM   10  C13 UNL     1      26.257   7.481  47.640  1.00  0.00     0.051 A 
HETATM   11  C14 UNL     1      27.174   8.097  46.921  1.00  0.00    -0.017 C 
HETATM   12  C15 UNL     1      28.553   7.653  46.660  1.00  0.00     0.157 C 
HETATM   13  N2  UNL     1      29.368   8.280  47.707  1.00  0.00    -0.393 N 
HETATM   14  C16 UNL     1      29.524   9.720  47.637  1.00  0.00     0.115 C 
HETATM   15  C17 UNL     1      28.892  10.732  46.984  1.00  0.00     0.062 C 
HETATM   16  O4  UNL     1      27.842  10.328  46.188  1.00  0.00    -0.345 OA
HETATM   17  C22 UNL     1      26.769   9.409  46.388  1.00  0.00     0.156 C 
HETATM   18  C23 UNL     1      26.021   9.290  45.096  1.00  0.00     0.045 C 
HETATM   19  H9  UNL     1      23.125   6.968  48.793  1.00  0.00     0.169 HD
HETATM   20  H12 UNL     1      29.858   7.806  48.506  1.00  0.00     0.159 HD
ENDROOT
BRANCH   1  21
HETATM   21  C5  UNL     1      25.545   2.743  50.780  1.00  0.00    -0.026 A 
HETATM   22  C4  UNL     1      24.293   2.339  51.182  1.00  0.00     0.015 A 
HETATM   23  C3  UNL     1      24.158   1.193  51.956  1.00  0.00     0.037 A 
HETATM   24  C2  UNL     1      25.269   0.442  52.335  1.00  0.00     0.068 A 
HETATM   25  C25 UNL     1      26.512   0.868  51.920  1.00  0.00     0.037 A 
HETATM   26  C24 UNL     1      26.668   1.995  51.155  1.00  0.00     0.015 A 
BRANCH  24  27
HETATM   27  O1  UNL     1      24.923  -0.657  53.100  1.00  0.00    -0.356 OA
HETATM   28  C1  UNL     1      25.224  -0.683  54.472  1.00  0.00     0.210 C 
ENDBRANCH  24  27
ENDBRANCH   1  21
BRANCH  15  29
HETATM   29  C18 UNL     1      29.467  12.053  47.267  1.00  0.00     0.068 C 
BRANCH  29  30
HETATM   30  C19 UNL     1      29.581  13.035  46.173  1.00  0.00     0.038 C 
BRANCH  30  31
HETATM   31  C20 UNL     1      28.984  14.362  46.467  1.00  0.00     0.114 C 
HETATM   32  C21 UNL     1      28.148  14.184  47.745  1.00  0.00     0.039 C 
BRANCH  31  33
HETATM   33  O3  UNL     1      29.891  15.364  46.606  1.00  0.00    -0.396 OA
HETATM   34  H22 UNL     1      29.668  16.071  47.273  1.00  0.00     0.210 HD
ENDBRANCH  31  33
ENDBRANCH  30  31
ENDBRANCH  29  30
ENDBRANCH  15  29
TORSDOF 6
ENDMDL
MODEL 7
REMARK VINA RESULT:      -7.8      8.154     10.948
REMARK  6 active torsions:
REMARK  status: ('A' for Active; 'I' for Inactive)
REMARK    1  A    between atoms: O1_2  and  C2_3 
REMARK    2  A    between atoms: C5_6  and  C6_7 
REMARK    3  A    between atoms: C17_21  and  C18_22 
REMARK    4  A    between atoms: C18_22  and  C19_23 
REMARK    5  A    between atoms: C19_23  and  C20_24 
REMARK    6  A    between atoms: C20_24  and  O3_26 
ROOT
HETATM    1  C6  UNL     1      24.238   2.961  50.684  1.00  0.00    -0.024 A 
HETATM    2  C7  UNL     1      23.460   3.990  50.204  1.00  0.00     0.013 A 
HETATM    3  C8  UNL     1      24.062   5.011  49.506  1.00  0.00     0.015 A 
HETATM    4  C9  UNL     1      25.407   5.094  49.240  1.00  0.00     0.007 A 
HETATM    5  C10 UNL     1      26.165   4.055  49.727  1.00  0.00     0.047 A 
HETATM    6  C11 UNL     1      25.590   3.017  50.431  1.00  0.00     0.042 A 
HETATM    7  N1  UNL     1      27.492   4.352  49.316  1.00  0.00    -0.322 N 
HETATM    8  C12 UNL     1      27.526   5.566  48.586  1.00  0.00     0.257 A 
HETATM    9  O2  UNL     1      28.662   5.888  48.194  1.00  0.00    -0.267 OA
HETATM   10  C13 UNL     1      26.171   6.093  48.510  1.00  0.00     0.051 A 
HETATM   11  C14 UNL     1      25.881   7.256  47.962  1.00  0.00    -0.017 C 
HETATM   12  C15 UNL     1      24.576   7.936  47.945  1.00  0.00     0.157 C 
HETATM   13  N2  UNL     1      23.933   7.514  46.695  1.00  0.00    -0.393 N 
HETATM   14  C16 UNL     1      24.516   8.007  45.463  1.00  0.00     0.115 C 
HETATM   15  C17 UNL     1      25.700   8.579  45.113  1.00  0.00     0.062 C 
HETATM   16  O4  UNL     1      26.583   8.743  46.157  1.00  0.00    -0.345 OA
HETATM   17  C22 UNL     1      26.989   7.893  47.229  1.00  0.00     0.156 C 
HETATM   18  C23 UNL     1      27.883   8.687  48.131  1.00  0.00     0.045 C 
HETATM   19  H9  UNL     1      28.260   3.669  49.588  1.00  0.00     0.169 HD
HETATM   20  H12 UNL     1      23.092   6.894  46.586  1.00  0.00     0.159 HD
ENDROOT
BRANCH   1  21
HETATM   21  C5  UNL     1      23.687   1.839  51.434  1.00  0.00    -0.026 A 
HETATM   22  C4  UNL     1      22.461   1.264  51.190  1.00  0.00     0.015 A 
HETATM   23  C3  UNL     1      22.038   0.196  51.972  1.00  0.00     0.037 A 
HETATM   24  C2  UNL     1      22.832  -0.306  53.001  1.00  0.00     0.068 A 
HETATM   25  C25 UNL     1      24.056   0.288  53.225  1.00  0.00     0.037 A 
HETATM   26  C24 UNL     1      24.493   1.342  52.464  1.00  0.00     0.015 A 
BRANCH  24  27
HETATM   27  O1  UNL     1      22.234  -1.366  53.658  1.00  0.00    -0.356 OA
HETATM   28  C1  UNL     1      20.975  -1.202  54.259  1.00  0.00     0.210 C 
ENDBRANCH  24  27
ENDBRANCH   1  21
BRANCH  15  29
HETATM   29  C18 UNL     1      25.786   8.905  43.684  1.00  0.00     0.068 C 
BRANCH  29  30
HETATM   30  C19 UNL     1      26.032  10.302  43.280  1.00  0.00     0.038 C 
BRANCH  30  31
HETATM   31  C20 UNL     1      27.410  10.574  42.800  1.00  0.00     0.114 C 
HETATM   32  C21 UNL     1      27.891  11.822  43.557  1.00  0.00     0.039 C 
BRANCH  31  33
HETATM   33  O3  UNL     1      28.272   9.536  42.959  1.00  0.00    -0.396 OA
HETATM   34  H22 UNL     1      29.046   9.696  43.568  1.00  0.00     0.210 HD
ENDBRANCH  31  33
ENDBRANCH  30  31
ENDBRANCH  29  30
ENDBRANCH  15  29
TORSDOF 6
ENDMDL
MODEL 8
REMARK VINA RESULT:      -7.7      9.702     13.408
REMARK  6 active torsions:
REMARK  status: ('A' for Active; 'I' for Inactive)
REMARK    1  A    between atoms: O1_2  and  C2_3 
REMARK    2  A    between atoms: C5_6  and  C6_7 
REMARK    3  A    between atoms: C17_21  and  C18_22 
REMARK    4  A    between atoms: C18_22  and  C19_23 
REMARK    5  A    between atoms: C19_23  and  C20_24 
REMARK    6  A    between atoms: C20_24  and  O3_26 
ROOT
HETATM    1  C6  UNL     1      25.667   4.654  49.377  1.00  0.00    -0.024 A 
HETATM    2  C7  UNL     1      25.349   5.992  49.353  1.00  0.00     0.013 A 
HETATM    3  C8  UNL     1      26.304   6.897  48.951  1.00  0.00     0.015 A 
HETATM    4  C9  UNL     1      27.580   6.571  48.561  1.00  0.00     0.007 A 
HETATM    5  C10 UNL     1      27.875   5.228  48.590  1.00  0.00     0.047 A 
HETATM    6  C11 UNL     1      26.940   4.297  48.989  1.00  0.00     0.042 A 
HETATM    7  N1  UNL     1      29.219   5.143  48.135  1.00  0.00    -0.322 N 
HETATM    8  C12 UNL     1      29.724   6.434  47.835  1.00  0.00     0.257 A 
HETATM    9  O2  UNL     1      30.900   6.433  47.430  1.00  0.00    -0.267 OA
HETATM   10  C13 UNL     1      28.676   7.409  48.102  1.00  0.00     0.051 A 
HETATM   11  C14 UNL     1      28.861   8.710  47.997  1.00  0.00    -0.017 C 
HETATM   12  C15 UNL     1      27.917   9.779  48.362  1.00  0.00     0.157 C 
HETATM   13  N2  UNL     1      27.174  10.078  47.132  1.00  0.00    -0.393 N 
HETATM   14  C16 UNL     1      27.913  10.717  46.061  1.00  0.00     0.115 C 
HETATM   15  C17 UNL     1      29.230  10.902  45.770  1.00  0.00     0.062 C 
HETATM   16  O4  UNL     1      30.098  10.362  46.693  1.00  0.00    -0.345 OA
HETATM   17  C22 UNL     1      30.136   9.110  47.376  1.00  0.00     0.156 C 
HETATM   18  C23 UNL     1      31.258   9.161  48.367  1.00  0.00     0.045 C 
HETATM   19  H9  UNL     1      29.662   4.179  48.076  1.00  0.00     0.169 HD
HETATM   20  H12 UNL     1      26.160   9.885  46.935  1.00  0.00     0.159 HD
ENDROOT
BRANCH   1  21
HETATM   21  C5  UNL     1      24.720   3.625  49.789  1.00  0.00    -0.026 A 
HETATM   22  C4  UNL     1      24.850   2.852  50.919  1.00  0.00     0.015 A 
HETATM   23  C3  UNL     1      23.883   1.899  51.213  1.00  0.00     0.037 A 
HETATM   24  C2  UNL     1      22.780   1.708  50.382  1.00  0.00     0.068 A 
HETATM   25  C25 UNL     1      22.674   2.495  49.255  1.00  0.00     0.037 A 
HETATM   26  C24 UNL     1      23.617   3.442  48.948  1.00  0.00     0.015 A 
BRANCH  24  27
HETATM   27  O1  UNL     1      21.937   0.716  50.847  1.00  0.00    -0.356 OA
HETATM   28  C1  UNL     1      21.948   0.362  52.207  1.00  0.00     0.210 C 
ENDBRANCH  24  27
ENDBRANCH   1  21
BRANCH  15  29
HETATM   29  C18 UNL     1      29.448  11.644  44.522  1.00  0.00     0.068 C 
BRANCH  29  30
HETATM   30  C19 UNL     1      30.807  11.708  43.954  1.00  0.00     0.038 C 
BRANCH  30  31
HETATM   31  C20 UNL     1      31.673  12.762  44.539  1.00  0.00     0.114 C 
HETATM   32  C21 UNL     1      30.876  14.073  44.449  1.00  0.00     0.039 C 
BRANCH  31  33
HETATM   33  O3  UNL     1      32.074  12.513  45.813  1.00  0.00    -0.396 OA
HETATM   34  H22 UNL     1      32.623  13.223  46.249  1.00  0.00     0.210 HD
ENDBRANCH  31  33
ENDBRANCH  30  31
ENDBRANCH  29  30
ENDBRANCH  15  29
TORSDOF 6
ENDMDL
MODEL 9
REMARK VINA RESULT:      -7.6      6.137     11.765
REMARK  6 active torsions:
REMARK  status: ('A' for Active; 'I' for Inactive)
REMARK    1  A    between atoms: O1_2  and  C2_3 
REMARK    2  A    between atoms: C5_6  and  C6_7 
REMARK    3  A    between atoms: C17_21  and  C18_22 
REMARK    4  A    between atoms: C18_22  and  C19_23 
REMARK    5  A    between atoms: C19_23  and  C20_24 
REMARK    6  A    between atoms: C20_24  and  O3_26 
ROOT
HETATM    1  C6  UNL     1      21.321   8.329  49.521  1.00  0.00    -0.024 A 
HETATM    2  C7  UNL     1      20.974   7.094  50.017  1.00  0.00     0.013 A 
HETATM    3  C8  UNL     1      21.956   6.148  50.196  1.00  0.00     0.015 A 
HETATM    4  C9  UNL     1      23.288   6.334  49.915  1.00  0.00     0.007 A 
HETATM    5  C10 UNL     1      23.612   7.577  49.421  1.00  0.00     0.047 A 
HETATM    6  C11 UNL     1      22.650   8.546  49.230  1.00  0.00     0.042 A 
HETATM    7  N1  UNL     1      25.019   7.533  49.230  1.00  0.00    -0.322 N 
HETATM    8  C12 UNL     1      25.533   6.267  49.608  1.00  0.00     0.257 A 
HETATM    9  O2  UNL     1      26.764   6.159  49.465  1.00  0.00    -0.267 OA
HETATM   10  C13 UNL     1      24.425   5.441  50.067  1.00  0.00     0.051 A 
HETATM   11  C14 UNL     1      24.565   4.177  50.413  1.00  0.00    -0.017 C 
HETATM   12  C15 UNL     1      23.500   3.224  50.766  1.00  0.00     0.157 C 
HETATM   13  N2  UNL     1      23.372   3.308  52.225  1.00  0.00    -0.393 N 
HETATM   14  C16 UNL     1      24.476   2.790  53.009  1.00  0.00     0.115 C 
HETATM   15  C17 UNL     1      25.771   2.458  52.756  1.00  0.00     0.062 C 
HETATM   16  O4  UNL     1      26.162   2.648  51.449  1.00  0.00    -0.345 OA
HETATM   17  C22 UNL     1      25.959   3.711  50.518  1.00  0.00     0.156 C 
HETATM   18  C23 UNL     1      26.513   3.276  49.197  1.00  0.00     0.045 C 
HETATM   19  H9  UNL     1      25.495   8.403  48.848  1.00  0.00     0.169 HD
HETATM   20  H12 UNL     1      22.566   3.700  52.775  1.00  0.00     0.159 HD
ENDROOT
BRANCH   1  21
HETATM   21  C5  UNL     1      20.349   9.392  49.298  1.00  0.00    -0.026 A 
HETATM   22  C4  UNL     1      18.985   9.233  49.386  1.00  0.00     0.015 A 
HETATM   23  C3  UNL     1      18.152  10.320  49.152  1.00  0.00     0.037 A 
HETATM   24  C2  UNL     1      18.671  11.572  48.829  1.00  0.00     0.068 A 
HETATM   25  C25 UNL     1      20.041  11.705  48.747  1.00  0.00     0.037 A 
HETATM   26  C24 UNL     1      20.880  10.645  48.975  1.00  0.00     0.015 A 
BRANCH  24  27
HETATM   27  O1  UNL     1      17.681  12.518  48.635  1.00  0.00    -0.356 OA
HETATM   28  C1  UNL     1      17.944  13.667  47.871  1.00  0.00     0.210 C 
ENDBRANCH  24  27
ENDBRANCH   1  21
BRANCH  15  29
HETATM   29  C18 UNL     1      26.484   1.961  53.939  1.00  0.00     0.068 C 
BRANCH  29  30
HETATM   30  C19 UNL     1      27.884   1.519  53.800  1.00  0.00     0.038 C 
BRANCH  30  31
HETATM   31  C20 UNL     1      28.082   0.051  53.896  1.00  0.00     0.114 C 
HETATM   32  C21 UNL     1      29.585  -0.194  53.686  1.00  0.00     0.039 C 
BRANCH  31  33
HETATM   33  O3  UNL     1      27.650  -0.496  55.062  1.00  0.00    -0.396 OA
HETATM   34  H22 UNL     1      27.099   0.095  55.648  1.00  0.00     0.210 HD
ENDBRANCH  31  33
ENDBRANCH  30  31
ENDBRANCH  29  30
ENDBRANCH  15  29
TORSDOF 6
ENDMDL
