MODEL 1
REMARK VINA RESULT:      -7.6      0.000      0.000
REMARK  5 active torsions:
REMARK  status: ('A' for Active; 'I' for Inactive)
REMARK    1  A    between atoms: C3_3  and  O1_4 
REMARK    2  A    between atoms: C3_3  and  N1_6 
REMARK    3  A    between atoms: N1_6  and  N2_8 
REMARK    4  A    between atoms: C8_14  and  N6_15 
REMARK    5  A    between atoms: N6_15  and  C9_16 
ROOT
HETATM    1  N2  UNL     1      25.648  -0.345  53.620  1.00  0.00    -0.186 N 
HETATM    2  N3  UNL     1      25.589  -0.758  54.957  1.00  0.00    -0.137 NA
HETATM    3  C6  UNL     1      24.322  -1.033  55.022  1.00  0.00     0.183 C 
HETATM    4  N4  UNL     1      23.074  -1.458  55.621  1.00  0.00    -0.222 NA
HETATM    5  C7  UNL     1      21.977  -1.081  54.985  1.00  0.00     0.237 C 
HETATM    6  N5  UNL     1      22.101  -0.346  53.788  1.00  0.00    -0.226 NA
HETATM    7  C8  UNL     1      23.169  -0.004  53.181  1.00  0.00     0.140 C 
HETATM    8  C15 UNL     1      24.322  -0.791  53.586  1.00  0.00     0.271 C 
ENDROOT
BRANCH   7   9
HETATM    9  N6  UNL     1      23.401   0.748  52.007  1.00  0.00    -0.342 N 
HETATM   10  H12 UNL     1      23.703   0.362  51.114  1.00  0.00     0.167 HD
BRANCH   9  11
HETATM   11  C9  UNL     1      23.171   2.139  52.181  1.00  0.00     0.035 A 
HETATM   12  C10 UNL     1      23.930   3.113  52.762  1.00  0.00     0.029 A 
HETATM   13  C11 UNL     1      23.572   4.429  52.876  1.00  0.00     0.004 A 
HETATM   14  C12 UNL     1      22.362   4.841  52.380  1.00  0.00     0.024 A 
HETATM   15  C13 UNL     1      21.540   3.928  51.783  1.00  0.00     0.036 A 
HETATM   16 CL1  UNL     1      19.991   4.425  51.143  1.00  0.00    -0.084 Cl
HETATM   17  C14 UNL     1      21.958   2.628  51.701  1.00  0.00     0.053 A 
ENDBRANCH   9  11
ENDBRANCH   7   9
BRANCH   1  18
HETATM   18  N1  UNL     1      26.895   0.187  53.271  1.00  0.00    -0.256 N 
HETATM   19  C5  UNL     1      27.016   0.925  52.026  1.00  0.00     0.182 C 
BRANCH  18  20
HETATM   20  C3  UNL     1      28.142   0.135  53.954  1.00  0.00     0.155 C 
HETATM   21  C2  UNL     1      28.995  -0.864  53.847  1.00  0.00     0.026 C 
HETATM   22  C1  UNL     1      28.907  -2.097  53.062  1.00  0.00     0.040 C 
BRANCH  20  23
HETATM   23  O1  UNL     1      28.374   1.256  54.755  1.00  0.00    -0.340 OA
HETATM   24  C4  UNL     1      29.512   2.071  54.539  1.00  0.00     0.211 C 
ENDBRANCH  20  23
ENDBRANCH  18  20
ENDBRANCH   1  18
TORSDOF 5
ENDMDL
MODEL 2
REMARK VINA RESULT:      -7.4      0.676      1.456
REMARK  5 active torsions:
REMARK  status: ('A' for Active; 'I' for Inactive)
REMARK    1  A    between atoms: C3_3  and  O1_4 
REMARK    2  A    between atoms: C3_3  and  N1_6 
REMARK    3  A    between atoms: N1_6  and  N2_8 
REMARK    4  A    between atoms: C8_14  and  N6_15 
REMARK    5  A    between atoms: N6_15  and  C9_16 
ROOT
HETATM    1  N2  UNL     1      25.442  -0.455  53.630  1.00  0.00    -0.186 N 
HETATM    2  N3  UNL     1      25.286  -0.909  54.945  1.00  0.00    -0.137 NA
HETATM    3  C6  UNL     1      23.994  -1.039  54.957  1.00  0.00     0.183 C 
HETATM    4  N4  UNL     1      22.684  -1.339  55.496  1.00  0.00    -0.222 NA
HETATM    5  C7  UNL     1      21.662  -0.814  54.841  1.00  0.00     0.237 C 
HETATM    6  N5  UNL     1      21.914  -0.053  53.681  1.00  0.00    -0.226 NA
HETATM    7  C8  UNL     1      23.035   0.186  53.124  1.00  0.00     0.140 C 
HETATM    8  C15 UNL     1      24.075  -0.743  53.533  1.00  0.00     0.271 C 
ENDROOT
BRANCH   7   9
HETATM    9  N6  UNL     1      23.396   0.951  51.992  1.00  0.00    -0.342 N 
HETATM   10  H12 UNL     1      23.815   0.577  51.141  1.00  0.00     0.167 HD
BRANCH   9  11
HETATM   11  C9  UNL     1      23.117   2.336  52.141  1.00  0.00     0.035 A 
HETATM   12  C10 UNL     1      23.798   3.329  52.784  1.00  0.00     0.029 A 
HETATM   13  C11 UNL     1      23.399   4.635  52.863  1.00  0.00     0.004 A 
HETATM   14  C12 UNL     1      22.227   5.016  52.262  1.00  0.00     0.024 A 
HETATM   15  C13 UNL     1      21.484   4.084  51.597  1.00  0.00     0.036 A 
HETATM   16 CL1  UNL     1      19.985   4.541  50.822  1.00  0.00    -0.084 Cl
HETATM   17  C14 UNL     1      21.939   2.794  51.555  1.00  0.00     0.053 A 
ENDBRANCH   9  11
ENDBRANCH   7   9
BRANCH   1  18
HETATM   18  N1  UNL     1      26.753  -0.058  53.345  1.00  0.00    -0.256 N 
HETATM   19  C5  UNL     1      27.719  -1.067  52.945  1.00  0.00     0.182 C 
BRANCH  18  20
HETATM   20  C3  UNL     1      27.351   1.233  53.377  1.00  0.00     0.155 C 
HETATM   21  C2  UNL     1      27.288   2.095  52.382  1.00  0.00     0.026 C 
HETATM   22  C1  UNL     1      26.640   1.978  51.075  1.00  0.00     0.040 C 
BRANCH  20  23
HETATM   23  O1  UNL     1      28.017   1.497  54.577  1.00  0.00    -0.340 OA
HETATM   24  C4  UNL     1      29.394   1.827  54.578  1.00  0.00     0.211 C 
ENDBRANCH  20  23
ENDBRANCH  18  20
ENDBRANCH   1  18
TORSDOF 5
ENDMDL
MODEL 3
REMARK VINA RESULT:      -7.2      2.030      2.911
REMARK  5 active torsions:
REMARK  status: ('A' for Active; 'I' for Inactive)
REMARK    1  A    between atoms: C3_3  and  O1_4 
REMARK    2  A    between atoms: C3_3  and  N1_6 
REMARK    3  A    between atoms: N1_6  and  N2_8 
REMARK    4  A    between atoms: C8_14  and  N6_15 
REMARK    5  A    between atoms: N6_15  and  C9_16 
ROOT
HETATM    1  N2  UNL     1      24.498  -0.511  53.901  1.00  0.00    -0.186 N 
HETATM    2  N3  UNL     1      24.006  -1.236  54.993  1.00  0.00    -0.137 NA
HETATM    3  C6  UNL     1      22.736  -1.126  54.747  1.00  0.00     0.183 C 
HETATM    4  N4  UNL     1      21.313  -1.304  54.948  1.00  0.00    -0.222 NA
HETATM    5  C7  UNL     1      20.533  -0.457  54.297  1.00  0.00     0.237 C 
HETATM    6  N5  UNL     1      21.125   0.505  53.453  1.00  0.00    -0.226 NA
HETATM    7  C8  UNL     1      22.361   0.663  53.186  1.00  0.00     0.140 C 
HETATM    8  C15 UNL     1      23.158  -0.512  53.495  1.00  0.00     0.271 C 
ENDROOT
BRANCH   7   9
HETATM    9  N6  UNL     1      23.053   1.602  52.387  1.00  0.00    -0.342 N 
HETATM   10  H12 UNL     1      23.824   2.188  52.705  1.00  0.00     0.167 HD
BRANCH   9  11
HETATM   11  C9  UNL     1      22.568   1.665  51.053  1.00  0.00     0.035 A 
HETATM   12  C10 UNL     1      21.789   0.804  50.335  1.00  0.00     0.029 A 
HETATM   13  C11 UNL     1      21.406   0.986  49.034  1.00  0.00     0.004 A 
HETATM   14  C12 UNL     1      21.817   2.109  48.364  1.00  0.00     0.024 A 
HETATM   15  C13 UNL     1      22.601   3.022  49.010  1.00  0.00     0.036 A 
HETATM   16 CL1  UNL     1      23.141   4.463  48.180  1.00  0.00    -0.084 Cl
HETATM   17  C14 UNL     1      22.948   2.781  50.311  1.00  0.00     0.053 A 
ENDBRANCH   9  11
ENDBRANCH   7   9
BRANCH   1  18
HETATM   18  N1  UNL     1      25.881  -0.303  53.966  1.00  0.00    -0.256 N 
HETATM   19  C5  UNL     1      26.450   0.236  55.190  1.00  0.00     0.182 C 
BRANCH  18  20
HETATM   20  C3  UNL     1      26.894  -0.536  52.994  1.00  0.00     0.155 C 
HETATM   21  C2  UNL     1      27.116   0.255  51.964  1.00  0.00     0.026 C 
HETATM   22  C1  UNL     1      26.441   1.491  51.563  1.00  0.00     0.040 C 
BRANCH  20  23
HETATM   23  O1  UNL     1      27.635  -1.694  53.243  1.00  0.00    -0.340 OA
HETATM   24  C4  UNL     1      29.050  -1.648  53.283  1.00  0.00     0.211 C 
ENDBRANCH  20  23
ENDBRANCH  18  20
ENDBRANCH   1  18
TORSDOF 5
ENDMDL
MODEL 4
REMARK VINA RESULT:      -7.2      3.580      6.043
REMARK  5 active torsions:
REMARK  status: ('A' for Active; 'I' for Inactive)
REMARK    1  A    between atoms: C3_3  and  O1_4 
REMARK    2  A    between atoms: C3_3  and  N1_6 
REMARK    3  A    between atoms: N1_6  and  N2_8 
REMARK    4  A    between atoms: C8_14  and  N6_15 
REMARK    5  A    between atoms: N6_15  and  C9_16 
ROOT
HETATM    1  N2  UNL     1      23.350   2.495  51.982  1.00  0.00    -0.186 N 
HETATM    2  N3  UNL     1      22.066   2.135  52.407  1.00  0.00    -0.137 NA
HETATM    3  C6  UNL     1      22.386   1.141  53.179  1.00  0.00     0.183 C 
HETATM    4  N4  UNL     1      22.181   0.034  54.090  1.00  0.00    -0.222 NA
HETATM    5  C7  UNL     1      23.185  -0.823  54.184  1.00  0.00     0.237 C 
HETATM    6  N5  UNL     1      24.358  -0.582  53.440  1.00  0.00    -0.226 NA
HETATM    7  C8  UNL     1      24.620   0.407  52.679  1.00  0.00     0.140 C 
HETATM    8  C15 UNL     1      23.761   1.552  52.931  1.00  0.00     0.271 C 
ENDROOT
BRANCH   7   9
HETATM    9  N6  UNL     1      25.738   0.725  51.876  1.00  0.00    -0.342 N 
HETATM   10  H12 UNL     1      25.740   0.749  50.857  1.00  0.00     0.167 HD
BRANCH   9  11
HETATM   11  C9  UNL     1      26.904   1.018  52.633  1.00  0.00     0.035 A 
HETATM   12  C10 UNL     1      27.363   2.188  53.166  1.00  0.00     0.029 A 
HETATM   13  C11 UNL     1      28.528   2.330  53.870  1.00  0.00     0.004 A 
HETATM   14  C12 UNL     1      29.325   1.234  54.076  1.00  0.00     0.024 A 
HETATM   15  C13 UNL     1      28.939   0.024  53.575  1.00  0.00     0.036 A 
HETATM   16 CL1  UNL     1      29.937  -1.390  53.822  1.00  0.00    -0.084 Cl
HETATM   17  C14 UNL     1      27.763  -0.051  52.881  1.00  0.00     0.053 A 
ENDBRANCH   9  11
ENDBRANCH   7   9
BRANCH   1  18
HETATM   18  N1  UNL     1      23.336   3.471  50.979  1.00  0.00    -0.256 N 
HETATM   19  C5  UNL     1      22.826   4.794  51.298  1.00  0.00     0.182 C 
BRANCH  18  20
HETATM   20  C3  UNL     1      23.754   3.402  49.621  1.00  0.00     0.155 C 
HETATM   21  C2  UNL     1      25.006   3.535  49.232  1.00  0.00     0.026 C 
HETATM   22  C1  UNL     1      26.216   3.772  50.020  1.00  0.00     0.040 C 
BRANCH  20  23
HETATM   23  O1  UNL     1      22.697   3.177  48.734  1.00  0.00    -0.340 OA
HETATM   24  C4  UNL     1      22.171   1.874  48.560  1.00  0.00     0.211 C 
ENDBRANCH  20  23
ENDBRANCH  18  20
ENDBRANCH   1  18
TORSDOF 5
ENDMDL
MODEL 5
REMARK VINA RESULT:      -7.0      3.270      6.030
REMARK  5 active torsions:
REMARK  status: ('A' for Active; 'I' for Inactive)
REMARK    1  A    between atoms: C3_3  and  O1_4 
REMARK    2  A    between atoms: C3_3  and  N1_6 
REMARK    3  A    between atoms: N1_6  and  N2_8 
REMARK    4  A    between atoms: C8_14  and  N6_15 
REMARK    5  A    between atoms: N6_15  and  C9_16 
ROOT
HETATM    1  N2  UNL     1      23.375   2.098  51.572  1.00  0.00    -0.186 N 
HETATM    2  N3  UNL     1      22.084   1.756  51.991  1.00  0.00    -0.137 NA
HETATM    3  C6  UNL     1      22.398   0.946  52.957  1.00  0.00     0.183 C 
HETATM    4  N4  UNL     1      22.185   0.024  54.053  1.00  0.00    -0.222 NA
HETATM    5  C7  UNL     1      23.217  -0.743  54.364  1.00  0.00     0.237 C 
HETATM    6  N5  UNL     1      24.423  -0.585  53.650  1.00  0.00    -0.226 NA
HETATM    7  C8  UNL     1      24.688   0.254  52.727  1.00  0.00     0.140 C 
HETATM    8  C15 UNL     1      23.766   1.377  52.707  1.00  0.00     0.271 C 
ENDROOT
BRANCH   7   9
HETATM    9  N6  UNL     1      25.840   0.473  51.937  1.00  0.00    -0.342 N 
HETATM   10  H12 UNL     1      25.840   0.875  51.001  1.00  0.00     0.167 HD
BRANCH   9  11
HETATM   11  C9  UNL     1      27.041   0.071  52.579  1.00  0.00     0.035 A 
HETATM   12  C10 UNL     1      27.628  -1.155  52.708  1.00  0.00     0.029 A 
HETATM   13  C11 UNL     1      28.795  -1.403  53.377  1.00  0.00     0.004 A 
HETATM   14  C12 UNL     1      29.458  -0.365  53.979  1.00  0.00     0.024 A 
HETATM   15  C13 UNL     1      28.938   0.895  53.898  1.00  0.00     0.036 A 
HETATM   16 CL1  UNL     1      29.761   2.238  54.658  1.00  0.00    -0.084 Cl
HETATM   17  C14 UNL     1      27.767   1.076  53.214  1.00  0.00     0.053 A 
ENDBRANCH   9  11
ENDBRANCH   7   9
BRANCH   1  18
HETATM   18  N1  UNL     1      23.381   2.862  50.400  1.00  0.00    -0.256 N 
HETATM   19  C5  UNL     1      22.657   2.369  49.240  1.00  0.00     0.182 C 
BRANCH  18  20
HETATM   20  C3  UNL     1      24.004   4.110  50.117  1.00  0.00     0.155 C 
HETATM   21  C2  UNL     1      25.280   4.240  49.817  1.00  0.00     0.026 C 
HETATM   22  C1  UNL     1      26.327   3.224  49.699  1.00  0.00     0.040 C 
BRANCH  20  23
HETATM   23  O1  UNL     1      23.121   5.191  50.190  1.00  0.00    -0.340 OA
HETATM   24  C4  UNL     1      22.453   5.492  51.401  1.00  0.00     0.211 C 
ENDBRANCH  20  23
ENDBRANCH  18  20
ENDBRANCH   1  18
TORSDOF 5
ENDMDL
MODEL 6
REMARK VINA RESULT:      -7.0      4.144      6.316
REMARK  5 active torsions:
REMARK  status: ('A' for Active; 'I' for Inactive)
REMARK    1  A    between atoms: C3_3  and  O1_4 
REMARK    2  A    between atoms: C3_3  and  N1_6 
REMARK    3  A    between atoms: N1_6  and  N2_8 
REMARK    4  A    between atoms: C8_14  and  N6_15 
REMARK    5  A    between atoms: N6_15  and  C9_16 
ROOT
HETATM    1  N2  UNL     1      23.948   2.572  52.013  1.00  0.00    -0.186 N 
HETATM    2  N3  UNL     1      24.111   2.050  53.301  1.00  0.00    -0.137 NA
HETATM    3  C6  UNL     1      25.393   2.215  53.420  1.00  0.00     0.183 C 
HETATM    4  N4  UNL     1      26.698   2.160  54.048  1.00  0.00    -0.222 NA
HETATM    5  C7  UNL     1      27.731   2.260  53.228  1.00  0.00     0.237 C 
HETATM    6  N5  UNL     1      27.493   2.444  51.850  1.00  0.00    -0.226 NA
HETATM    7  C8  UNL     1      26.374   2.568  51.254  1.00  0.00     0.140 C 
HETATM    8  C15 UNL     1      25.294   2.931  52.157  1.00  0.00     0.271 C 
ENDROOT
BRANCH   7   9
HETATM    9  N6  UNL     1      26.029   2.725  49.892  1.00  0.00    -0.342 N 
HETATM   10  H12 UNL     1      25.691   1.980  49.284  1.00  0.00     0.167 HD
BRANCH   9  11
HETATM   11  C9  UNL     1      26.197   4.055  49.424  1.00  0.00     0.035 A 
HETATM   12  C10 UNL     1      25.321   5.098  49.335  1.00  0.00     0.029 A 
HETATM   13  C11 UNL     1      25.619   6.338  48.840  1.00  0.00     0.004 A 
HETATM   14  C12 UNL     1      26.888   6.593  48.388  1.00  0.00     0.024 A 
HETATM   15  C13 UNL     1      27.827   5.603  48.441  1.00  0.00     0.036 A 
HETATM   16 CL1  UNL     1      29.452   5.899  47.869  1.00  0.00    -0.084 Cl
HETATM   17  C14 UNL     1      27.464   4.385  48.947  1.00  0.00     0.053 A 
ENDBRANCH   9  11
ENDBRANCH   7   9
BRANCH   1  18
HETATM   18  N1  UNL     1      22.654   2.387  51.512  1.00  0.00    -0.256 N 
HETATM   19  C5  UNL     1      21.653   3.408  51.766  1.00  0.00     0.182 C 
BRANCH  18  20
HETATM   20  C3  UNL     1      22.106   1.315  50.753  1.00  0.00     0.155 C 
HETATM   21  C2  UNL     1      21.503   0.273  51.287  1.00  0.00     0.026 C 
HETATM   22  C1  UNL     1      21.248  -0.049  52.692  1.00  0.00     0.040 C 
BRANCH  20  23
HETATM   23  O1  UNL     1      22.272   1.480  49.375  1.00  0.00    -0.340 OA
HETATM   24  C4  UNL     1      21.146   1.567  48.521  1.00  0.00     0.211 C 
ENDBRANCH  20  23
ENDBRANCH  18  20
ENDBRANCH   1  18
TORSDOF 5
ENDMDL
MODEL 7
REMARK VINA RESULT:      -6.9      4.171      6.382
REMARK  5 active torsions:
REMARK  status: ('A' for Active; 'I' for Inactive)
REMARK    1  A    between atoms: C3_3  and  O1_4 
REMARK    2  A    between atoms: C3_3  and  N1_6 
REMARK    3  A    between atoms: N1_6  and  N2_8 
REMARK    4  A    between atoms: C8_14  and  N6_15 
REMARK    5  A    between atoms: N6_15  and  C9_16 
ROOT
HETATM    1  N2  UNL     1      23.953   2.455  51.773  1.00  0.00    -0.186 N 
HETATM    2  N3  UNL     1      24.021   1.952  53.077  1.00  0.00    -0.137 NA
HETATM    3  C6  UNL     1      25.285   2.152  53.299  1.00  0.00     0.183 C 
HETATM    4  N4  UNL     1      26.534   2.138  54.032  1.00  0.00    -0.222 NA
HETATM    5  C7  UNL     1      27.629   2.257  53.300  1.00  0.00     0.237 C 
HETATM    6  N5  UNL     1      27.501   2.419  51.904  1.00  0.00    -0.226 NA
HETATM    7  C8  UNL     1      26.432   2.506  51.216  1.00  0.00     0.140 C 
HETATM    8  C15 UNL     1      25.272   2.851  52.022  1.00  0.00     0.271 C 
ENDROOT
BRANCH   7   9
HETATM    9  N6  UNL     1      26.197   2.639  49.829  1.00  0.00    -0.342 N 
HETATM   10  H12 UNL     1      26.023   1.866  49.187  1.00  0.00     0.167 HD
BRANCH   9  11
HETATM   11  C9  UNL     1      26.224   3.987  49.384  1.00  0.00     0.035 A 
HETATM   12  C10 UNL     1      25.243   4.935  49.317  1.00  0.00     0.029 A 
HETATM   13  C11 UNL     1      25.408   6.208  48.845  1.00  0.00     0.004 A 
HETATM   14  C12 UNL     1      26.641   6.602  48.394  1.00  0.00     0.024 A 
HETATM   15  C13 UNL     1      27.679   5.714  48.426  1.00  0.00     0.036 A 
HETATM   16 CL1  UNL     1      29.262   6.189  47.855  1.00  0.00    -0.084 Cl
HETATM   17  C14 UNL     1      27.447   4.456  48.910  1.00  0.00     0.053 A 
ENDBRANCH   9  11
ENDBRANCH   7   9
BRANCH   1  18
HETATM   18  N1  UNL     1      22.710   2.230  51.169  1.00  0.00    -0.256 N 
HETATM   19  C5  UNL     1      22.055   0.950  51.374  1.00  0.00     0.182 C 
BRANCH  18  20
HETATM   20  C3  UNL     1      21.922   3.077  50.340  1.00  0.00     0.155 C 
HETATM   21  C2  UNL     1      21.984   3.077  49.024  1.00  0.00     0.026 C 
HETATM   22  C1  UNL     1      22.809   2.273  48.120  1.00  0.00     0.040 C 
BRANCH  20  23
HETATM   23  O1  UNL     1      21.071   3.914  51.066  1.00  0.00    -0.340 OA
HETATM   24  C4  UNL     1      21.515   5.186  51.503  1.00  0.00     0.211 C 
ENDBRANCH  20  23
ENDBRANCH  18  20
ENDBRANCH   1  18
TORSDOF 5
ENDMDL
MODEL 8
REMARK VINA RESULT:      -6.8      3.555      5.772
REMARK  5 active torsions:
REMARK  status: ('A' for Active; 'I' for Inactive)
REMARK    1  A    between atoms: C3_3  and  O1_4 
REMARK    2  A    between atoms: C3_3  and  N1_6 
REMARK    3  A    between atoms: N1_6  and  N2_8 
REMARK    4  A    between atoms: C8_14  and  N6_15 
REMARK    5  A    between atoms: N6_15  and  C9_16 
ROOT
HETATM    1  N2  UNL     1      21.822   3.219  52.120  1.00  0.00    -0.186 N 
HETATM    2  N3  UNL     1      20.919   4.267  51.904  1.00  0.00    -0.137 NA
HETATM    3  C6  UNL     1      19.819   3.579  51.889  1.00  0.00     0.183 C 
HETATM    4  N4  UNL     1      18.395   3.333  51.783  1.00  0.00    -0.222 NA
HETATM    5  C7  UNL     1      18.049   2.083  51.521  1.00  0.00     0.237 C 
HETATM    6  N5  UNL     1      19.060   1.106  51.403  1.00  0.00    -0.226 NA
HETATM    7  C8  UNL     1      20.317   1.252  51.555  1.00  0.00     0.140 C 
HETATM    8  C15 UNL     1      20.659   2.459  52.288  1.00  0.00     0.271 C 
ENDROOT
BRANCH   7   9
HETATM    9  N6  UNL     1      21.404   0.356  51.432  1.00  0.00    -0.342 N 
HETATM   10  H12 UNL     1      21.887   0.136  50.562  1.00  0.00     0.167 HD
BRANCH   9  11
HETATM   11  C9  UNL     1      21.781  -0.236  52.667  1.00  0.00     0.035 A 
HETATM   12  C10 UNL     1      21.044  -0.866  53.628  1.00  0.00     0.029 A 
HETATM   13  C11 UNL     1      21.544  -1.381  54.793  1.00  0.00     0.004 A 
HETATM   14  C12 UNL     1      22.885  -1.275  55.053  1.00  0.00     0.024 A 
HETATM   15  C13 UNL     1      23.695  -0.658  54.142  1.00  0.00     0.036 A 
HETATM   16 CL1  UNL     1      25.410  -0.509  54.448  1.00  0.00    -0.084 Cl
HETATM   17  C14 UNL     1      23.133  -0.165  52.997  1.00  0.00     0.053 A 
ENDBRANCH   9  11
ENDBRANCH   7   9
BRANCH   1  18
HETATM   18  N1  UNL     1      23.158   3.626  52.025  1.00  0.00    -0.256 N 
HETATM   19  C5  UNL     1      23.567   4.847  52.697  1.00  0.00     0.182 C 
BRANCH  18  20
HETATM   20  C3  UNL     1      24.257   3.026  51.348  1.00  0.00     0.155 C 
HETATM   21  C2  UNL     1      24.335   2.909  50.038  1.00  0.00     0.026 C 
HETATM   22  C1  UNL     1      23.395   3.329  48.998  1.00  0.00     0.040 C 
BRANCH  20  23
HETATM   23  O1  UNL     1      25.251   2.569  52.218  1.00  0.00    -0.340 OA
HETATM   24  C4  UNL     1      26.548   2.272  51.734  1.00  0.00     0.211 C 
ENDBRANCH  20  23
ENDBRANCH  18  20
ENDBRANCH   1  18
TORSDOF 5
ENDMDL
MODEL 9
REMARK VINA RESULT:      -6.7      3.716      6.122
REMARK  5 active torsions:
REMARK  status: ('A' for Active; 'I' for Inactive)
REMARK    1  A    between atoms: C3_3  and  O1_4 
REMARK    2  A    between atoms: C3_3  and  N1_6 
REMARK    3  A    between atoms: N1_6  and  N2_8 
REMARK    4  A    between atoms: C8_14  and  N6_15 
REMARK    5  A    between atoms: N6_15  and  C9_16 
ROOT
HETATM    1  N2  UNL     1      23.910   1.938  52.068  1.00  0.00    -0.186 N 
HETATM    2  N3  UNL     1      24.230   1.243  53.240  1.00  0.00    -0.137 NA
HETATM    3  C6  UNL     1      25.456   1.645  53.380  1.00  0.00     0.183 C 
HETATM    4  N4  UNL     1      26.770   1.750  53.979  1.00  0.00    -0.222 NA
HETATM    5  C7  UNL     1      27.726   2.205  53.186  1.00  0.00     0.237 C 
HETATM    6  N5  UNL     1      27.398   2.574  51.865  1.00  0.00    -0.226 NA
HETATM    7  C8  UNL     1      26.252   2.567  51.307  1.00  0.00     0.140 C 
HETATM    8  C15 UNL     1      25.160   2.536  52.267  1.00  0.00     0.271 C 
ENDROOT
BRANCH   7   9
HETATM    9  N6  UNL     1      25.824   2.886  49.999  1.00  0.00    -0.342 N 
HETATM   10  H12 UNL     1      25.245   2.289  49.409  1.00  0.00     0.167 HD
BRANCH   9  11
HETATM   11  C9  UNL     1      26.286   4.154  49.554  1.00  0.00     0.035 A 
HETATM   12  C10 UNL     1      27.364   4.505  48.793  1.00  0.00     0.029 A 
HETATM   13  C11 UNL     1      27.702   5.786  48.450  1.00  0.00     0.004 A 
HETATM   14  C12 UNL     1      26.923   6.826  48.886  1.00  0.00     0.024 A 
HETATM   15  C13 UNL     1      25.825   6.561  49.654  1.00  0.00     0.036 A 
HETATM   16 CL1  UNL     1      24.814   7.868  50.225  1.00  0.00    -0.084 Cl
HETATM   17  C14 UNL     1      25.541   5.259  49.961  1.00  0.00     0.053 A 
ENDBRANCH   9  11
ENDBRANCH   7   9
BRANCH   1  18
HETATM   18  N1  UNL     1      22.660   1.580  51.549  1.00  0.00    -0.256 N 
HETATM   19  C5  UNL     1      22.048   0.339  51.991  1.00  0.00     0.182 C 
BRANCH  18  20
HETATM   20  C3  UNL     1      21.828   2.251  50.609  1.00  0.00     0.155 C 
HETATM   21  C2  UNL     1      21.403   3.489  50.759  1.00  0.00     0.026 C 
HETATM   22  C1  UNL     1      21.647   4.443  51.842  1.00  0.00     0.040 C 
BRANCH  20  23
HETATM   23  O1  UNL     1      21.505   1.459  49.504  1.00  0.00    -0.340 OA
HETATM   24  C4  UNL     1      22.118   1.692  48.249  1.00  0.00     0.211 C 
ENDBRANCH  20  23
ENDBRANCH  18  20
ENDBRANCH   1  18
TORSDOF 5
ENDMDL
