MODEL 1
REMARK VINA RESULT:      -7.9      0.000      0.000
REMARK  10 active torsions:
REMARK  status: ('A' for Active; 'I' for Inactive)
REMARK    1  A    between atoms: O1_2  and  C2_3 
REMARK    2  A    between atoms: C3_4  and  C4_5 
REMARK    3  A    between atoms: C4_5  and  O3_26 
REMARK    4  A    between atoms: C5_6  and  C6_7 
REMARK    5  A    between atoms: C6_7  and  C7_8 
REMARK    6  A    between atoms: C10_12  and  N2_13 
REMARK    7  A    between atoms: N2_13  and  C11_14 
REMARK    8  A    between atoms: C11_14  and  C12_15 
REMARK    9  A    between atoms: C18_21  and  C19_22 
REMARK   10  A    between atoms: C19_22  and  O2_23 
ROOT
HETATM    1  C7  UNL     1      28.964   6.100  48.092  1.00  0.00     0.131 A 
HETATM    2  N1  UNL     1      28.134   7.169  48.013  1.00  0.00    -0.245 NA
HETATM    3  C8  UNL     1      26.830   7.023  48.351  1.00  0.00     0.122 A 
HETATM    4  C9  UNL     1      26.300   5.814  48.778  1.00  0.00     0.069 A 
HETATM    5  C10 UNL     1      27.217   4.788  48.825  1.00  0.00     0.127 A 
HETATM    6  N3  UNL     1      28.499   4.919  48.497  1.00  0.00    -0.216 NA
ENDROOT
BRANCH   5   7
HETATM    7  N2  UNL     1      26.755   3.507  49.254  1.00  0.00    -0.371 N 
HETATM    8  H11 UNL     1      26.761   2.675  48.621  1.00  0.00     0.161 HD
BRANCH   7   9
HETATM    9  C11 UNL     1      26.248   3.294  50.610  1.00  0.00     0.149 C 
BRANCH   9  10
HETATM   10  C12 UNL     1      26.638   1.986  51.146  1.00  0.00     0.000 C 
HETATM   11  C13 UNL     1      25.975   1.162  51.934  1.00  0.00    -0.051 A 
HETATM   12  C14 UNL     1      24.645   1.535  52.386  1.00  0.00     0.007 A 
HETATM   13  C18 UNL     1      26.620  -0.097  52.317  1.00  0.00     0.065 A 
HETATM   14  C15 UNL     1      23.937   0.740  53.179  1.00  0.00     0.000 A 
HETATM   15  C16 UNL     1      24.471  -0.543  53.630  1.00  0.00    -0.003 A 
HETATM   16  C17 UNL     1      25.683  -0.867  53.211  1.00  0.00    -0.015 A 
BRANCH  13  17
HETATM   17  C19 UNL     1      27.847   0.145  53.207  1.00  0.00     0.180 C 
BRANCH  17  18
HETATM   18  O2  UNL     1      28.229  -0.973  53.911  1.00  0.00    -0.395 OA
HETATM   19  C20 UNL     1      29.585  -1.210  53.610  1.00  0.00     0.201 C 
ENDBRANCH  17  18
ENDBRANCH  13  17
ENDBRANCH   9  10
ENDBRANCH   7   9
ENDBRANCH   5   7
BRANCH   1  20
HETATM   20  C6  UNL     1      30.398   6.247  47.724  1.00  0.00     0.110 C 
BRANCH  20  21
HETATM   21  C5  UNL     1      31.103   4.953  47.744  1.00  0.00     0.017 C 
HETATM   22  C4  UNL     1      32.397   4.759  47.912  1.00  0.00     0.066 C 
BRANCH  22  23
HETATM   23  C3  UNL     1      33.329   5.853  48.108  1.00  0.00     0.060 C 
HETATM   24  C2  UNL     1      34.592   5.652  48.407  1.00  0.00     0.137 C 
BRANCH  24  25
HETATM   25  O1  UNL     1      35.575   6.590  48.618  1.00  0.00    -0.368 OA
HETATM   26  C1  UNL     1      35.369   7.938  48.260  1.00  0.00     0.208 C 
ENDBRANCH  24  25
ENDBRANCH  22  23
BRANCH  22  27
HETATM   27  O3  UNL     1      32.889   3.467  47.902  1.00  0.00    -0.356 OA
HETATM   28  C21 UNL     1      32.565   2.599  46.827  1.00  0.00     0.210 C 
ENDBRANCH  22  27
ENDBRANCH  20  21
ENDBRANCH   1  20
TORSDOF 10
ENDMDL
MODEL 2
REMARK VINA RESULT:      -7.5      1.637      2.425
REMARK  10 active torsions:
REMARK  status: ('A' for Active; 'I' for Inactive)
REMARK    1  A    between atoms: O1_2  and  C2_3 
REMARK    2  A    between atoms: C3_4  and  C4_5 
REMARK    3  A    between atoms: C4_5  and  O3_26 
REMARK    4  A    between atoms: C5_6  and  C6_7 
REMARK    5  A    between atoms: C6_7  and  C7_8 
REMARK    6  A    between atoms: C10_12  and  N2_13 
REMARK    7  A    between atoms: N2_13  and  C11_14 
REMARK    8  A    between atoms: C11_14  and  C12_15 
REMARK    9  A    between atoms: C18_21  and  C19_22 
REMARK   10  A    between atoms: C19_22  and  O2_23 
ROOT
HETATM    1  C7  UNL     1      28.169   5.708  48.346  1.00  0.00     0.131 A 
HETATM    2  N1  UNL     1      27.188   6.632  48.191  1.00  0.00    -0.245 NA
HETATM    3  C8  UNL     1      25.928   6.334  48.587  1.00  0.00     0.122 A 
HETATM    4  C9  UNL     1      25.592   5.111  49.151  1.00  0.00     0.069 A 
HETATM    5  C10 UNL     1      26.652   4.239  49.267  1.00  0.00     0.127 A 
HETATM    6  N3  UNL     1      27.892   4.521  48.882  1.00  0.00    -0.216 NA
ENDROOT
BRANCH   5   7
HETATM    7  N2  UNL     1      26.394   2.957  49.838  1.00  0.00    -0.371 N 
HETATM    8  H11 UNL     1      26.931   2.106  49.555  1.00  0.00     0.161 HD
BRANCH   7   9
HETATM    9  C11 UNL     1      25.358   2.768  50.854  1.00  0.00     0.149 C 
BRANCH   9  10
HETATM   10  C12 UNL     1      25.689   1.684  51.784  1.00  0.00     0.000 C 
HETATM   11  C13 UNL     1      24.898   0.945  52.540  1.00  0.00    -0.051 A 
HETATM   12  C14 UNL     1      23.464   1.180  52.501  1.00  0.00     0.007 A 
HETATM   13  C18 UNL     1      25.513  -0.081  53.386  1.00  0.00     0.065 A 
HETATM   14  C15 UNL     1      22.627   0.463  53.241  1.00  0.00     0.000 A 
HETATM   15  C16 UNL     1      23.118  -0.590  54.125  1.00  0.00    -0.003 A 
HETATM   16  C17 UNL     1      24.426  -0.791  54.150  1.00  0.00    -0.015 A 
BRANCH  13  17
HETATM   17  C19 UNL     1      26.379   0.542  54.490  1.00  0.00     0.180 C 
BRANCH  17  18
HETATM   18  O2  UNL     1      27.301  -0.337  55.009  1.00  0.00    -0.395 OA
HETATM   19  C20 UNL     1      28.578   0.163  54.685  1.00  0.00     0.201 C 
ENDBRANCH  17  18
ENDBRANCH  13  17
ENDBRANCH   9  10
ENDBRANCH   7   9
ENDBRANCH   5   7
BRANCH   1  20
HETATM   20  C6  UNL     1      29.558   6.024  47.914  1.00  0.00     0.110 C 
BRANCH  20  21
HETATM   21  C5  UNL     1      30.047   7.275  48.520  1.00  0.00     0.017 C 
HETATM   22  C4  UNL     1      31.260   7.506  48.987  1.00  0.00     0.066 C 
BRANCH  22  23
HETATM   23  C3  UNL     1      32.308   6.506  48.959  1.00  0.00     0.060 C 
HETATM   24  C2  UNL     1      33.295   6.549  48.092  1.00  0.00     0.137 C 
BRANCH  24  25
HETATM   25  O1  UNL     1      34.346   5.672  47.956  1.00  0.00    -0.368 OA
HETATM   26  C1  UNL     1      35.202   5.405  49.043  1.00  0.00     0.208 C 
ENDBRANCH  24  25
ENDBRANCH  22  23
BRANCH  22  27
HETATM   27  O3  UNL     1      31.546   8.747  49.525  1.00  0.00    -0.356 OA
HETATM   28  C21 UNL     1      30.627   9.815  49.359  1.00  0.00     0.210 C 
ENDBRANCH  22  27
ENDBRANCH  20  21
ENDBRANCH   1  20
TORSDOF 10
ENDMDL
MODEL 3
REMARK VINA RESULT:      -7.3      3.125      9.514
REMARK  10 active torsions:
REMARK  status: ('A' for Active; 'I' for Inactive)
REMARK    1  A    between atoms: O1_2  and  C2_3 
REMARK    2  A    between atoms: C3_4  and  C4_5 
REMARK    3  A    between atoms: C4_5  and  O3_26 
REMARK    4  A    between atoms: C5_6  and  C6_7 
REMARK    5  A    between atoms: C6_7  and  C7_8 
REMARK    6  A    between atoms: C10_12  and  N2_13 
REMARK    7  A    between atoms: N2_13  and  C11_14 
REMARK    8  A    between atoms: C11_14  and  C12_15 
REMARK    9  A    between atoms: C18_21  and  C19_22 
REMARK   10  A    between atoms: C19_22  and  O2_23 
ROOT
HETATM    1  C7  UNL     1      23.639   2.703  51.651  1.00  0.00     0.131 A 
HETATM    2  N1  UNL     1      22.595   3.281  52.296  1.00  0.00    -0.245 NA
HETATM    3  C8  UNL     1      22.500   4.632  52.324  1.00  0.00     0.122 A 
HETATM    4  C9  UNL     1      23.434   5.460  51.716  1.00  0.00     0.069 A 
HETATM    5  C10 UNL     1      24.456   4.783  51.089  1.00  0.00     0.127 A 
HETATM    6  N3  UNL     1      24.559   3.458  51.054  1.00  0.00    -0.216 NA
ENDROOT
BRANCH   5   7
HETATM    7  N2  UNL     1      25.461   5.559  50.438  1.00  0.00    -0.371 N 
HETATM    8  H11 UNL     1      25.798   6.469  50.826  1.00  0.00     0.161 HD
BRANCH   7   9
HETATM    9  C11 UNL     1      26.075   5.116  49.185  1.00  0.00     0.149 C 
BRANCH   9  10
HETATM   10  C12 UNL     1      26.623   6.235  48.413  1.00  0.00     0.000 C 
HETATM   11  C13 UNL     1      27.860   6.465  48.015  1.00  0.00    -0.051 A 
HETATM   12  C14 UNL     1      28.899   5.508  48.356  1.00  0.00     0.007 A 
HETATM   13  C18 UNL     1      28.123   7.684  47.245  1.00  0.00     0.065 A 
HETATM   14  C15 UNL     1      30.159   5.694  47.978  1.00  0.00     0.000 A 
HETATM   15  C16 UNL     1      30.547   6.871  47.206  1.00  0.00    -0.003 A 
HETATM   16  C17 UNL     1      29.589   7.733  46.905  1.00  0.00    -0.015 A 
BRANCH  13  17
HETATM   17  C19 UNL     1      27.909   8.945  48.094  1.00  0.00     0.180 C 
BRANCH  17  18
HETATM   18  O2  UNL     1      28.478   8.853  49.343  1.00  0.00    -0.395 OA
HETATM   19  C20 UNL     1      27.538   9.355  50.265  1.00  0.00     0.201 C 
ENDBRANCH  17  18
ENDBRANCH  13  17
ENDBRANCH   9  10
ENDBRANCH   7   9
ENDBRANCH   5   7
BRANCH   1  20
HETATM   20  C6  UNL     1      23.755   1.220  51.613  1.00  0.00     0.110 C 
BRANCH  20  21
HETATM   21  C5  UNL     1      22.994   0.584  52.703  1.00  0.00     0.017 C 
HETATM   22  C4  UNL     1      23.461  -0.255  53.609  1.00  0.00     0.066 C 
BRANCH  22  23
HETATM   23  C3  UNL     1      24.849  -0.674  53.640  1.00  0.00     0.060 C 
HETATM   24  C2  UNL     1      25.675  -0.291  54.587  1.00  0.00     0.137 C 
BRANCH  24  25
HETATM   25  O1  UNL     1      27.004  -0.611  54.735  1.00  0.00    -0.368 OA
HETATM   26  C1  UNL     1      27.999   0.381  54.621  1.00  0.00     0.208 C 
ENDBRANCH  24  25
ENDBRANCH  22  23
BRANCH  22  27
HETATM   27  O3  UNL     1      22.599  -0.757  54.566  1.00  0.00    -0.356 OA
HETATM   28  C21 UNL     1      21.347  -0.126  54.786  1.00  0.00     0.210 C 
ENDBRANCH  22  27
ENDBRANCH  20  21
ENDBRANCH   1  20
TORSDOF 10
ENDMDL
MODEL 4
REMARK VINA RESULT:      -7.3      2.064      3.465
REMARK  10 active torsions:
REMARK  status: ('A' for Active; 'I' for Inactive)
REMARK    1  A    between atoms: O1_2  and  C2_3 
REMARK    2  A    between atoms: C3_4  and  C4_5 
REMARK    3  A    between atoms: C4_5  and  O3_26 
REMARK    4  A    between atoms: C5_6  and  C6_7 
REMARK    5  A    between atoms: C6_7  and  C7_8 
REMARK    6  A    between atoms: C10_12  and  N2_13 
REMARK    7  A    between atoms: N2_13  and  C11_14 
REMARK    8  A    between atoms: C11_14  and  C12_15 
REMARK    9  A    between atoms: C18_21  and  C19_22 
REMARK   10  A    between atoms: C19_22  and  O2_23 
ROOT
HETATM    1  C7  UNL     1      26.304   5.113  49.111  1.00  0.00     0.131 A 
HETATM    2  N1  UNL     1      25.577   6.160  48.648  1.00  0.00    -0.245 NA
HETATM    3  C8  UNL     1      24.327   6.363  49.129  1.00  0.00     0.122 A 
HETATM    4  C9  UNL     1      23.751   5.538  50.085  1.00  0.00     0.069 A 
HETATM    5  C10 UNL     1      24.563   4.503  50.492  1.00  0.00     0.127 A 
HETATM    6  N3  UNL     1      25.791   4.294  50.028  1.00  0.00    -0.216 NA
ENDROOT
BRANCH   5   7
HETATM    7  N2  UNL     1      24.048   3.605  51.474  1.00  0.00    -0.371 N 
HETATM    8  H11 UNL     1      24.185   3.764  52.498  1.00  0.00     0.161 HD
BRANCH   7   9
HETATM    9  C11 UNL     1      23.296   2.409  51.094  1.00  0.00     0.149 C 
BRANCH   9  10
HETATM   10  C12 UNL     1      23.718   1.227  51.852  1.00  0.00     0.000 C 
HETATM   11  C13 UNL     1      23.089   0.560  52.802  1.00  0.00    -0.051 A 
HETATM   12  C14 UNL     1      21.768   1.002  53.217  1.00  0.00     0.007 A 
HETATM   13  C18 UNL     1      23.762  -0.601  53.392  1.00  0.00     0.065 A 
HETATM   14  C15 UNL     1      21.095   0.365  54.167  1.00  0.00     0.000 A 
HETATM   15  C16 UNL     1      21.658  -0.808  54.832  1.00  0.00    -0.003 A 
HETATM   16  C17 UNL     1      22.862  -1.196  54.443  1.00  0.00    -0.015 A 
BRANCH  13  17
HETATM   17  C19 UNL     1      25.011  -0.187  54.182  1.00  0.00     0.180 C 
BRANCH  17  18
HETATM   18  O2  UNL     1      26.009  -1.133  54.141  1.00  0.00    -0.395 OA
HETATM   19  C20 UNL     1      26.451  -1.214  52.805  1.00  0.00     0.201 C 
ENDBRANCH  17  18
ENDBRANCH  13  17
ENDBRANCH   9  10
ENDBRANCH   7   9
ENDBRANCH   5   7
BRANCH   1  20
HETATM   20  C6  UNL     1      27.678   4.878  48.590  1.00  0.00     0.110 C 
BRANCH  20  21
HETATM   21  C5  UNL     1      28.386   6.144  48.328  1.00  0.00     0.017 C 
HETATM   22  C4  UNL     1      29.655   6.286  47.994  1.00  0.00     0.066 C 
BRANCH  22  23
HETATM   23  C3  UNL     1      30.550   5.156  47.838  1.00  0.00     0.060 C 
HETATM   24  C2  UNL     1      31.824   5.223  48.152  1.00  0.00     0.137 C 
BRANCH  24  25
HETATM   25  O1  UNL     1      32.776   4.235  48.054  1.00  0.00    -0.368 OA
HETATM   26  C1  UNL     1      32.609   3.163  47.156  1.00  0.00     0.208 C 
ENDBRANCH  24  25
ENDBRANCH  22  23
BRANCH  22  27
HETATM   27  O3  UNL     1      30.156   7.557  47.785  1.00  0.00    -0.356 OA
HETATM   28  C21 UNL     1      30.235   8.470  48.870  1.00  0.00     0.210 C 
ENDBRANCH  22  27
ENDBRANCH  20  21
ENDBRANCH   1  20
TORSDOF 10
ENDMDL
MODEL 5
REMARK VINA RESULT:      -7.2      2.152      8.427
REMARK  10 active torsions:
REMARK  status: ('A' for Active; 'I' for Inactive)
REMARK    1  A    between atoms: O1_2  and  C2_3 
REMARK    2  A    between atoms: C3_4  and  C4_5 
REMARK    3  A    between atoms: C4_5  and  O3_26 
REMARK    4  A    between atoms: C5_6  and  C6_7 
REMARK    5  A    between atoms: C6_7  and  C7_8 
REMARK    6  A    between atoms: C10_12  and  N2_13 
REMARK    7  A    between atoms: N2_13  and  C11_14 
REMARK    8  A    between atoms: C11_14  and  C12_15 
REMARK    9  A    between atoms: C18_21  and  C19_22 
REMARK   10  A    between atoms: C19_22  and  O2_23 
ROOT
HETATM    1  C7  UNL     1      27.101   4.584  49.001  1.00  0.00     0.131 A 
HETATM    2  N1  UNL     1      26.369   5.718  49.134  1.00  0.00    -0.245 NA
HETATM    3  C8  UNL     1      26.898   6.899  48.734  1.00  0.00     0.122 A 
HETATM    4  C9  UNL     1      28.169   7.002  48.188  1.00  0.00     0.069 A 
HETATM    5  C10 UNL     1      28.836   5.800  48.094  1.00  0.00     0.127 A 
HETATM    6  N3  UNL     1      28.327   4.635  48.483  1.00  0.00    -0.216 NA
ENDROOT
BRANCH   5   7
HETATM    7  N2  UNL     1      30.152   5.815  47.544  1.00  0.00    -0.371 N 
HETATM    8  H11 UNL     1      30.331   5.645  46.528  1.00  0.00     0.161 HD
BRANCH   7   9
HETATM    9  C11 UNL     1      31.326   6.072  48.379  1.00  0.00     0.149 C 
BRANCH   9  10
HETATM   10  C12 UNL     1      32.264   4.946  48.375  1.00  0.00     0.000 C 
HETATM   11  C13 UNL     1      33.133   4.570  47.455  1.00  0.00    -0.051 A 
HETATM   12  C14 UNL     1      33.236   5.340  46.226  1.00  0.00     0.007 A 
HETATM   13  C18 UNL     1      33.954   3.385  47.722  1.00  0.00     0.065 A 
HETATM   14  C15 UNL     1      34.095   5.004  45.272  1.00  0.00     0.000 A 
HETATM   15  C16 UNL     1      34.969   3.843  45.420  1.00  0.00    -0.003 A 
HETATM   16  C17 UNL     1      34.862   3.152  46.544  1.00  0.00    -0.015 A 
BRANCH  13  17
HETATM   17  C19 UNL     1      33.102   2.110  47.778  1.00  0.00     0.180 C 
BRANCH  17  18
HETATM   18  O2  UNL     1      32.362   1.908  46.636  1.00  0.00    -0.395 OA
HETATM   19  C20 UNL     1      31.971   0.554  46.628  1.00  0.00     0.201 C 
ENDBRANCH  17  18
ENDBRANCH  13  17
ENDBRANCH   9  10
ENDBRANCH   7   9
ENDBRANCH   5   7
BRANCH   1  20
HETATM   20  C6  UNL     1      26.532   3.280  49.437  1.00  0.00     0.110 C 
BRANCH  20  21
HETATM   21  C5  UNL     1      25.431   3.460  50.401  1.00  0.00     0.017 C 
HETATM   22  C4  UNL     1      25.231   2.773  51.510  1.00  0.00     0.066 C 
BRANCH  22  23
HETATM   23  C3  UNL     1      26.115   1.704  51.933  1.00  0.00     0.060 C 
HETATM   24  C2  UNL     1      27.218   1.933  52.609  1.00  0.00     0.137 C 
BRANCH  24  25
HETATM   25  O1  UNL     1      28.138   1.021  53.068  1.00  0.00    -0.368 OA
HETATM   26  C1  UNL     1      27.969   0.401  54.323  1.00  0.00     0.208 C 
ENDBRANCH  24  25
ENDBRANCH  22  23
BRANCH  22  27
HETATM   27  O3  UNL     1      24.139   3.078  52.301  1.00  0.00    -0.356 OA
HETATM   28  C21 UNL     1      23.635   4.405  52.323  1.00  0.00     0.210 C 
ENDBRANCH  22  27
ENDBRANCH  20  21
ENDBRANCH   1  20
TORSDOF 10
ENDMDL
MODEL 6
REMARK VINA RESULT:      -7.2      1.862      2.859
REMARK  10 active torsions:
REMARK  status: ('A' for Active; 'I' for Inactive)
REMARK    1  A    between atoms: O1_2  and  C2_3 
REMARK    2  A    between atoms: C3_4  and  C4_5 
REMARK    3  A    between atoms: C4_5  and  O3_26 
REMARK    4  A    between atoms: C5_6  and  C6_7 
REMARK    5  A    between atoms: C6_7  and  C7_8 
REMARK    6  A    between atoms: C10_12  and  N2_13 
REMARK    7  A    between atoms: N2_13  and  C11_14 
REMARK    8  A    between atoms: C11_14  and  C12_15 
REMARK    9  A    between atoms: C18_21  and  C19_22 
REMARK   10  A    between atoms: C19_22  and  O2_23 
ROOT
HETATM    1  C7  UNL     1      28.688   6.041  48.239  1.00  0.00     0.131 A 
HETATM    2  N1  UNL     1      27.826   7.088  48.241  1.00  0.00    -0.245 NA
HETATM    3  C8  UNL     1      26.542   6.890  48.625  1.00  0.00     0.122 A 
HETATM    4  C9  UNL     1      26.064   5.649  49.020  1.00  0.00     0.069 A 
HETATM    5  C10 UNL     1      27.009   4.648  48.984  1.00  0.00     0.127 A 
HETATM    6  N3  UNL     1      28.272   4.831  48.611  1.00  0.00    -0.216 NA
ENDROOT
BRANCH   5   7
HETATM    7  N2  UNL     1      26.601   3.338  49.375  1.00  0.00    -0.371 N 
HETATM    8  H11 UNL     1      26.280   2.626  48.680  1.00  0.00     0.161 HD
BRANCH   7   9
HETATM    9  C11 UNL     1      26.612   2.921  50.778  1.00  0.00     0.149 C 
BRANCH   9  10
HETATM   10  C12 UNL     1      25.266   2.629  51.278  1.00  0.00     0.000 C 
HETATM   11  C13 UNL     1      24.831   1.610  51.996  1.00  0.00    -0.051 A 
HETATM   12  C14 UNL     1      25.772   0.576  52.394  1.00  0.00     0.007 A 
HETATM   13  C18 UNL     1      23.411   1.576  52.358  1.00  0.00     0.065 A 
HETATM   14  C15 UNL     1      25.385  -0.467  53.118  1.00  0.00     0.000 A 
HETATM   15  C16 UNL     1      23.994  -0.615  53.541  1.00  0.00    -0.003 A 
HETATM   16  C17 UNL     1      23.151   0.334  53.170  1.00  0.00    -0.015 A 
BRANCH  13  17
HETATM   17  C19 UNL     1      22.519   1.391  51.123  1.00  0.00     0.180 C 
BRANCH  17  18
HETATM   18  O2  UNL     1      21.272   1.952  51.272  1.00  0.00    -0.395 OA
HETATM   19  C20 UNL     1      21.464   3.284  51.691  1.00  0.00     0.201 C 
ENDBRANCH  17  18
ENDBRANCH  13  17
ENDBRANCH   9  10
ENDBRANCH   7   9
ENDBRANCH   5   7
BRANCH   1  20
HETATM   20  C6  UNL     1      30.101   6.245  47.820  1.00  0.00     0.110 C 
BRANCH  20  21
HETATM   21  C5  UNL     1      30.847   4.975  47.778  1.00  0.00     0.017 C 
HETATM   22  C4  UNL     1      32.150   4.818  47.917  1.00  0.00     0.066 C 
BRANCH  22  23
HETATM   23  C3  UNL     1      33.049   5.934  48.137  1.00  0.00     0.060 C 
HETATM   24  C2  UNL     1      34.307   5.764  48.475  1.00  0.00     0.137 C 
BRANCH  24  25
HETATM   25  O1  UNL     1      35.261   6.726  48.712  1.00  0.00    -0.368 OA
HETATM   26  C1  UNL     1      35.076   8.047  48.257  1.00  0.00     0.208 C 
ENDBRANCH  24  25
ENDBRANCH  22  23
BRANCH  22  27
HETATM   27  O3  UNL     1      32.684   3.545  47.849  1.00  0.00    -0.356 OA
HETATM   28  C21 UNL     1      32.641   2.828  46.625  1.00  0.00     0.210 C 
ENDBRANCH  22  27
ENDBRANCH  20  21
ENDBRANCH   1  20
TORSDOF 10
ENDMDL
MODEL 7
REMARK VINA RESULT:      -7.1      2.076      8.874
REMARK  10 active torsions:
REMARK  status: ('A' for Active; 'I' for Inactive)
REMARK    1  A    between atoms: O1_2  and  C2_3 
REMARK    2  A    between atoms: C3_4  and  C4_5 
REMARK    3  A    between atoms: C4_5  and  O3_26 
REMARK    4  A    between atoms: C5_6  and  C6_7 
REMARK    5  A    between atoms: C6_7  and  C7_8 
REMARK    6  A    between atoms: C10_12  and  N2_13 
REMARK    7  A    between atoms: N2_13  and  C11_14 
REMARK    8  A    between atoms: C11_14  and  C12_15 
REMARK    9  A    between atoms: C18_21  and  C19_22 
REMARK   10  A    between atoms: C19_22  and  O2_23 
ROOT
HETATM    1  C7  UNL     1      26.721   4.445  49.322  1.00  0.00     0.131 A 
HETATM    2  N1  UNL     1      26.047   5.618  49.421  1.00  0.00    -0.245 NA
HETATM    3  C8  UNL     1      26.616   6.752  48.946  1.00  0.00     0.122 A 
HETATM    4  C9  UNL     1      27.872   6.767  48.357  1.00  0.00     0.069 A 
HETATM    5  C10 UNL     1      28.479   5.531  48.301  1.00  0.00     0.127 A 
HETATM    6  N3  UNL     1      27.930   4.412  48.764  1.00  0.00    -0.216 NA
ENDROOT
BRANCH   5   7
HETATM    7  N2  UNL     1      29.775   5.457  47.710  1.00  0.00    -0.371 N 
HETATM    8  H11 UNL     1      29.921   5.106  46.736  1.00  0.00     0.161 HD
BRANCH   7   9
HETATM    9  C11 UNL     1      30.972   5.871  48.441  1.00  0.00     0.149 C 
BRANCH   9  10
HETATM   10  C12 UNL     1      32.026   4.853  48.398  1.00  0.00     0.000 C 
HETATM   11  C13 UNL     1      32.903   4.581  47.449  1.00  0.00    -0.051 A 
HETATM   12  C14 UNL     1      32.885   5.366  46.226  1.00  0.00     0.007 A 
HETATM   13  C18 UNL     1      33.855   3.490  47.680  1.00  0.00     0.065 A 
HETATM   14  C15 UNL     1      33.746   5.132  45.243  1.00  0.00     0.000 A 
HETATM   15  C16 UNL     1      34.745   4.072  45.354  1.00  0.00    -0.003 A 
HETATM   16  C17 UNL     1      34.746   3.365  46.473  1.00  0.00    -0.015 A 
BRANCH  13  17
HETATM   17  C19 UNL     1      33.148   2.129  47.747  1.00  0.00     0.180 C 
BRANCH  17  18
HETATM   18  O2  UNL     1      32.302   1.910  46.684  1.00  0.00    -0.395 OA
HETATM   19  C20 UNL     1      32.019   0.530  46.656  1.00  0.00     0.201 C 
ENDBRANCH  17  18
ENDBRANCH  13  17
ENDBRANCH   9  10
ENDBRANCH   7   9
ENDBRANCH   5   7
BRANCH   1  20
HETATM   20  C6  UNL     1      26.107   3.193  49.840  1.00  0.00     0.110 C 
BRANCH  20  21
HETATM   21  C5  UNL     1      26.697   2.788  51.129  1.00  0.00     0.017 C 
HETATM   22  C4  UNL     1      26.060   2.267  52.161  1.00  0.00     0.066 C 
BRANCH  22  23
HETATM   23  C3  UNL     1      24.632   2.018  52.150  1.00  0.00     0.060 C 
HETATM   24  C2  UNL     1      24.124   0.841  52.438  1.00  0.00     0.137 C 
BRANCH  24  25
HETATM   25  O1  UNL     1      22.800   0.472  52.465  1.00  0.00    -0.368 OA
HETATM   26  C1  UNL     1      22.404  -0.737  53.072  1.00  0.00     0.208 C 
ENDBRANCH  24  25
ENDBRANCH  22  23
BRANCH  22  27
HETATM   27  O3  UNL     1      26.777   1.945  53.299  1.00  0.00    -0.356 OA
HETATM   28  C21 UNL     1      27.826   0.992  53.223  1.00  0.00     0.210 C 
ENDBRANCH  22  27
ENDBRANCH  20  21
ENDBRANCH   1  20
TORSDOF 10
ENDMDL
MODEL 8
REMARK VINA RESULT:      -7.1      2.224      2.750
REMARK  10 active torsions:
REMARK  status: ('A' for Active; 'I' for Inactive)
REMARK    1  A    between atoms: O1_2  and  C2_3 
REMARK    2  A    between atoms: C3_4  and  C4_5 
REMARK    3  A    between atoms: C4_5  and  O3_26 
REMARK    4  A    between atoms: C5_6  and  C6_7 
REMARK    5  A    between atoms: C6_7  and  C7_8 
REMARK    6  A    between atoms: C10_12  and  N2_13 
REMARK    7  A    between atoms: N2_13  and  C11_14 
REMARK    8  A    between atoms: C11_14  and  C12_15 
REMARK    9  A    between atoms: C18_21  and  C19_22 
REMARK   10  A    between atoms: C19_22  and  O2_23 
ROOT
HETATM    1  C7  UNL     1      27.092   7.121  48.557  1.00  0.00     0.131 A 
HETATM    2  N1  UNL     1      26.697   8.388  48.833  1.00  0.00    -0.245 NA
HETATM    3  C8  UNL     1      25.719   8.593  49.747  1.00  0.00     0.122 A 
HETATM    4  C9  UNL     1      25.095   7.552  50.419  1.00  0.00     0.069 A 
HETATM    5  C10 UNL     1      25.561   6.303  50.072  1.00  0.00     0.127 A 
HETATM    6  N3  UNL     1      26.521   6.090  49.177  1.00  0.00    -0.216 NA
ENDROOT
BRANCH   5   7
HETATM    7  N2  UNL     1      24.972   5.175  50.717  1.00  0.00    -0.371 N 
HETATM    8  H11 UNL     1      24.545   5.240  51.669  1.00  0.00     0.161 HD
BRANCH   7   9
HETATM    9  C11 UNL     1      24.936   3.861  50.073  1.00  0.00     0.149 C 
BRANCH   9  10
HETATM   10  C12 UNL     1      25.809   2.893  50.744  1.00  0.00     0.000 C 
HETATM   11  C13 UNL     1      25.503   1.888  51.542  1.00  0.00    -0.051 A 
HETATM   12  C14 UNL     1      24.106   1.635  51.854  1.00  0.00     0.007 A 
HETATM   13  C18 UNL     1      26.598   1.073  52.078  1.00  0.00     0.065 A 
HETATM   14  C15 UNL     1      23.747   0.636  52.651  1.00  0.00     0.000 A 
HETATM   15  C16 UNL     1      24.746  -0.248  53.247  1.00  0.00    -0.003 A 
HETATM   16  C17 UNL     1      26.013  -0.004  52.954  1.00  0.00    -0.015 A 
BRANCH  13  17
HETATM   17  C19 UNL     1      27.482   1.878  53.040  1.00  0.00     0.180 C 
BRANCH  17  18
HETATM   18  O2  UNL     1      28.817   1.565  52.931  1.00  0.00    -0.395 OA
HETATM   19  C20 UNL     1      29.263   1.195  54.215  1.00  0.00     0.201 C 
ENDBRANCH  17  18
ENDBRANCH  13  17
ENDBRANCH   9  10
ENDBRANCH   7   9
ENDBRANCH   5   7
BRANCH   1  20
HETATM   20  C6  UNL     1      28.166   6.883  47.555  1.00  0.00     0.110 C 
BRANCH  20  21
HETATM   21  C5  UNL     1      29.253   6.053  48.106  1.00  0.00     0.017 C 
HETATM   22  C4  UNL     1      30.441   6.468  48.503  1.00  0.00     0.066 C 
BRANCH  22  23
HETATM   23  C3  UNL     1      30.840   7.861  48.440  1.00  0.00     0.060 C 
HETATM   24  C2  UNL     1      30.618   8.698  49.427  1.00  0.00     0.137 C 
BRANCH  24  25
HETATM   25  O1  UNL     1      30.942  10.033  49.498  1.00  0.00    -0.368 OA
HETATM   26  C1  UNL     1      30.369  10.959  48.603  1.00  0.00     0.208 C 
ENDBRANCH  24  25
ENDBRANCH  22  23
BRANCH  22  27
HETATM   27  O3  UNL     1      31.344   5.545  48.997  1.00  0.00    -0.356 OA
HETATM   28  C21 UNL     1      32.062   4.713  48.099  1.00  0.00     0.210 C 
ENDBRANCH  22  27
ENDBRANCH  20  21
ENDBRANCH   1  20
TORSDOF 10
ENDMDL
MODEL 9
REMARK VINA RESULT:      -7.0      2.350      3.951
REMARK  10 active torsions:
REMARK  status: ('A' for Active; 'I' for Inactive)
REMARK    1  A    between atoms: O1_2  and  C2_3 
REMARK    2  A    between atoms: C3_4  and  C4_5 
REMARK    3  A    between atoms: C4_5  and  O3_26 
REMARK    4  A    between atoms: C5_6  and  C6_7 
REMARK    5  A    between atoms: C6_7  and  C7_8 
REMARK    6  A    between atoms: C10_12  and  N2_13 
REMARK    7  A    between atoms: N2_13  and  C11_14 
REMARK    8  A    between atoms: C11_14  and  C12_15 
REMARK    9  A    between atoms: C18_21  and  C19_22 
REMARK   10  A    between atoms: C19_22  and  O2_23 
ROOT
HETATM    1  C7  UNL     1      26.177   5.664  49.438  1.00  0.00     0.131 A 
HETATM    2  N1  UNL     1      26.007   6.961  49.793  1.00  0.00    -0.245 NA
HETATM    3  C8  UNL     1      24.965   7.299  50.590  1.00  0.00     0.122 A 
HETATM    4  C9  UNL     1      24.053   6.366  51.063  1.00  0.00     0.069 A 
HETATM    5  C10 UNL     1      24.306   5.078  50.648  1.00  0.00     0.127 A 
HETATM    6  N3  UNL     1      25.326   4.734  49.867  1.00  0.00    -0.216 NA
ENDROOT
BRANCH   5   7
HETATM    7  N2  UNL     1      23.415   4.054  51.089  1.00  0.00    -0.371 N 
HETATM    8  H11 UNL     1      22.562   4.266  51.654  1.00  0.00     0.161 HD
BRANCH   7   9
HETATM    9  C11 UNL     1      23.653   2.646  50.769  1.00  0.00     0.149 C 
BRANCH   9  10
HETATM   10  C12 UNL     1      23.640   1.798  51.965  1.00  0.00     0.000 C 
HETATM   11  C13 UNL     1      24.567   0.987  52.439  1.00  0.00    -0.051 A 
HETATM   12  C14 UNL     1      25.824   0.858  51.721  1.00  0.00     0.007 A 
HETATM   13  C18 UNL     1      24.278   0.253  53.674  1.00  0.00     0.065 A 
HETATM   14  C15 UNL     1      26.788   0.056  52.156  1.00  0.00     0.000 A 
HETATM   15  C16 UNL     1      26.620  -0.730  53.377  1.00  0.00    -0.003 A 
HETATM   16  C17 UNL     1      25.470  -0.601  54.018  1.00  0.00    -0.015 A 
BRANCH  13  17
HETATM   17  C19 UNL     1      23.150  -0.769  53.471  1.00  0.00     0.180 C 
BRANCH  17  18
HETATM   18  O2  UNL     1      22.404  -0.978  54.607  1.00  0.00    -0.395 OA
HETATM   19  C20 UNL     1      21.302  -0.101  54.547  1.00  0.00     0.201 C 
ENDBRANCH  17  18
ENDBRANCH  13  17
ENDBRANCH   9  10
ENDBRANCH   7   9
ENDBRANCH   5   7
BRANCH   1  20
HETATM   20  C6  UNL     1      27.318   5.280  48.563  1.00  0.00     0.110 C 
BRANCH  20  21
HETATM   21  C5  UNL     1      28.016   6.462  48.026  1.00  0.00     0.017 C 
HETATM   22  C4  UNL     1      29.320   6.660  47.987  1.00  0.00     0.066 C 
BRANCH  22  23
HETATM   23  C3  UNL     1      30.271   5.690  48.495  1.00  0.00     0.060 C 
HETATM   24  C2  UNL     1      31.148   5.095  47.718  1.00  0.00     0.137 C 
BRANCH  24  25
HETATM   25  O1  UNL     1      32.098   4.164  48.067  1.00  0.00    -0.368 OA
HETATM   26  C1  UNL     1      33.434   4.308  47.642  1.00  0.00     0.208 C 
ENDBRANCH  24  25
ENDBRANCH  22  23
BRANCH  22  27
HETATM   27  O3  UNL     1      29.805   7.835  47.444  1.00  0.00    -0.356 OA
HETATM   28  C21 UNL     1      28.903   8.769  46.870  1.00  0.00     0.210 C 
ENDBRANCH  22  27
ENDBRANCH  20  21
ENDBRANCH   1  20
TORSDOF 10
ENDMDL
