MODEL 1
REMARK VINA RESULT:      -9.7      0.000      0.000
REMARK  1 active torsions:
REMARK  status: ('A' for Active; 'I' for Inactive)
REMARK    1  A    between atoms: C4_5  and  C5_6 
ROOT
HETATM    1  C5  UNL     1      22.535   2.530  50.229  1.00  0.00     0.075 C 
HETATM    2  C6  UNL     1      23.626   2.674  51.000  1.00  0.00     0.079 C 
HETATM    3  S1  UNL     1      25.184   3.498  51.053  1.00  0.00    -0.118 SA
HETATM    4  C7  UNL     1      26.546   2.429  50.615  1.00  0.00     0.226 C 
HETATM    5  N1  UNL     1      26.808   1.429  51.626  1.00  0.00    -0.267 N 
HETATM    6  N2  UNL     1      26.574  -0.056  51.655  1.00  0.00    -0.180 NA
HETATM    7  C8  UNL     1      26.451  -0.210  52.961  1.00  0.00     0.067 C 
HETATM    8  C9  UNL     1      27.913   0.205  53.122  1.00  0.00     0.114 C 
HETATM    9  C10 UNL     1      27.449   1.706  52.966  1.00  0.00     0.247 C 
HETATM   10  O1  UNL     1      26.420   1.888  53.856  1.00  0.00    -0.362 OA
HETATM   11  C11 UNL     1      26.358   0.995  54.936  1.00  0.00     0.208 C 
HETATM   12  C12 UNL     1      25.937  -0.442  54.409  1.00  0.00     0.195 C 
HETATM   13  O2  UNL     1      24.642  -0.480  54.395  1.00  0.00    -0.373 OA
HETATM   14  C13 UNL     1      23.735  -1.264  54.977  1.00  0.00     0.207 C 
HETATM   15  C14 UNL     1      22.397  -0.715  54.409  1.00  0.00    -0.034 A 
HETATM   16  C15 UNL     1      21.304  -0.110  54.959  1.00  0.00     0.012 A 
HETATM   17  C16 UNL     1      20.420   0.330  54.018  1.00  0.00     0.038 A 
HETATM   18  C17 UNL     1      20.622   0.171  52.685  1.00  0.00     0.076 A 
HETATM   19  C18 UNL     1      21.678  -0.427  52.036  1.00  0.00     0.038 A 
HETATM   20  C19 UNL     1      22.545  -0.852  53.019  1.00  0.00     0.012 A 
HETATM   21  O3  UNL     1      19.799   0.596  51.606  1.00  0.00    -0.304 OA
HETATM   22  C20 UNL     1      20.349   1.660  50.806  1.00  0.00     0.259 C 
HETATM   23  N3  UNL     1      21.613   1.686  50.842  1.00  0.00    -0.236 NA
ENDROOT
BRANCH   1  24
HETATM   24  C4  UNL     1      22.381   3.193  48.953  1.00  0.00    -0.007 A 
HETATM   25  C3  UNL     1      22.304   4.563  48.872  1.00  0.00     0.015 A 
HETATM   26  C2  UNL     1      22.159   5.238  47.685  1.00  0.00     0.024 A 
HETATM   27  C1  UNL     1      22.082   4.568  46.488  1.00  0.00     0.034 A 
HETATM   28 CL1  UNL     1      21.898   5.410  44.964  1.00  0.00    -0.084 Cl
HETATM   29  C22 UNL     1      22.154   3.192  46.521  1.00  0.00     0.024 A 
HETATM   30  C21 UNL     1      22.299   2.562  47.739  1.00  0.00     0.015 A 
ENDBRANCH   1  24
TORSDOF 1
ENDMDL
MODEL 2
REMARK VINA RESULT:      -9.7      3.414      6.685
REMARK  1 active torsions:
REMARK  status: ('A' for Active; 'I' for Inactive)
REMARK    1  A    between atoms: C4_5  and  C5_6 
ROOT
HETATM    1  C5  UNL     1      24.199   0.983  52.255  1.00  0.00     0.075 C 
HETATM    2  C6  UNL     1      23.993   1.879  51.276  1.00  0.00     0.079 C 
HETATM    3  S1  UNL     1      24.861   2.936  50.163  1.00  0.00    -0.118 SA
HETATM    4  C7  UNL     1      24.882   4.639  50.703  1.00  0.00     0.226 C 
HETATM    5  N1  UNL     1      23.581   5.262  50.605  1.00  0.00    -0.267 N 
HETATM    6  N2  UNL     1      22.587   5.681  51.653  1.00  0.00    -0.180 NA
HETATM    7  C8  UNL     1      21.486   5.586  50.929  1.00  0.00     0.067 C 
HETATM    8  C9  UNL     1      21.997   6.725  50.049  1.00  0.00     0.114 C 
HETATM    9  C10 UNL     1      22.917   5.674  49.312  1.00  0.00     0.247 C 
HETATM   10  O1  UNL     1      22.100   4.632  48.949  1.00  0.00    -0.362 OA
HETATM   11  C11 UNL     1      20.729   4.915  48.846  1.00  0.00     0.208 C 
HETATM   12  C12 UNL     1      20.132   5.165  50.295  1.00  0.00     0.195 C 
HETATM   13  O2  UNL     1      19.785   4.010  50.770  1.00  0.00    -0.373 OA
HETATM   14  C13 UNL     1      18.636   3.500  51.213  1.00  0.00     0.207 C 
HETATM   15  C14 UNL     1      19.053   2.078  51.680  1.00  0.00    -0.034 A 
HETATM   16  C15 UNL     1      18.733   0.813  51.285  1.00  0.00     0.012 A 
HETATM   17  C16 UNL     1      19.477  -0.138  51.918  1.00  0.00     0.038 A 
HETATM   18  C17 UNL     1      20.426   0.161  52.842  1.00  0.00     0.076 A 
HETATM   19  C18 UNL     1      20.815   1.395  53.312  1.00  0.00     0.038 A 
HETATM   20  C19 UNL     1      20.043   2.324  52.646  1.00  0.00     0.012 A 
HETATM   21  O3  UNL     1      21.280  -0.722  53.556  1.00  0.00    -0.304 OA
HETATM   22  C20 UNL     1      22.672  -0.646  53.194  1.00  0.00     0.259 C 
HETATM   23  N3  UNL     1      22.987   0.484  52.723  1.00  0.00    -0.236 NA
ENDROOT
BRANCH   1  24
HETATM   24  C4  UNL     1      25.519   0.610  52.716  1.00  0.00    -0.007 A 
HETATM   25  C3  UNL     1      26.160  -0.494  52.206  1.00  0.00     0.015 A 
HETATM   26  C2  UNL     1      27.412  -0.888  52.610  1.00  0.00     0.024 A 
HETATM   27  C1  UNL     1      28.109  -0.185  53.564  1.00  0.00     0.034 A 
HETATM   28 CL1  UNL     1      29.706  -0.669  54.091  1.00  0.00    -0.084 Cl
HETATM   29  C22 UNL     1      27.503   0.930  54.103  1.00  0.00     0.024 A 
HETATM   30  C21 UNL     1      26.245   1.283  53.665  1.00  0.00     0.015 A 
ENDBRANCH   1  24
TORSDOF 1
ENDMDL
MODEL 3
REMARK VINA RESULT:      -9.6      2.818      5.721
REMARK  1 active torsions:
REMARK  status: ('A' for Active; 'I' for Inactive)
REMARK    1  A    between atoms: C4_5  and  C5_6 
ROOT
HETATM    1  C5  UNL     1      25.464   3.676  50.126  1.00  0.00     0.075 C 
HETATM    2  C6  UNL     1      24.213   3.361  49.751  1.00  0.00     0.079 C 
HETATM    3  S1  UNL     1      22.973   3.790  48.572  1.00  0.00    -0.118 SA
HETATM    4  C7  UNL     1      21.709   4.851  49.255  1.00  0.00     0.226 C 
HETATM    5  N1  UNL     1      20.862   4.158  50.200  1.00  0.00    -0.267 N 
HETATM    6  N2  UNL     1      20.748   4.246  51.697  1.00  0.00    -0.180 NA
HETATM    7  C8  UNL     1      20.304   3.023  51.931  1.00  0.00     0.067 C 
HETATM    8  C9  UNL     1      19.022   3.371  51.177  1.00  0.00     0.114 C 
HETATM    9  C10 UNL     1      19.813   3.136  49.831  1.00  0.00     0.247 C 
HETATM   10  O1  UNL     1      20.415   1.908  49.945  1.00  0.00    -0.362 OA
HETATM   11  C11 UNL     1      19.851   1.016  50.870  1.00  0.00     0.208 C 
HETATM   12  C12 UNL     1      20.137   1.534  52.343  1.00  0.00     0.195 C 
HETATM   13  O2  UNL     1      21.291   1.063  52.698  1.00  0.00    -0.373 OA
HETATM   14  C13 UNL     1      21.705   0.294  53.705  1.00  0.00     0.207 C 
HETATM   15  C14 UNL     1      23.240   0.234  53.478  1.00  0.00    -0.034 A 
HETATM   16  C15 UNL     1      24.123  -0.764  53.184  1.00  0.00     0.012 A 
HETATM   17  C16 UNL     1      25.379  -0.296  52.936  1.00  0.00     0.038 A 
HETATM   18  C17 UNL     1      25.699   1.023  52.984  1.00  0.00     0.076 A 
HETATM   19  C18 UNL     1      24.890   2.097  53.276  1.00  0.00     0.038 A 
HETATM   20  C19 UNL     1      23.634   1.582  53.516  1.00  0.00     0.012 A 
HETATM   21  O3  UNL     1      26.952   1.643  52.730  1.00  0.00    -0.304 OA
HETATM   22  C20 UNL     1      27.003   2.440  51.531  1.00  0.00     0.259 C 
HETATM   23  N3  UNL     1      25.866   2.881  51.196  1.00  0.00    -0.236 NA
ENDROOT
BRANCH   1  24
HETATM   24  C4  UNL     1      26.250   4.696  49.468  1.00  0.00    -0.007 A 
HETATM   25  C3  UNL     1      25.803   5.993  49.390  1.00  0.00     0.015 A 
HETATM   26  C2  UNL     1      26.513   6.997  48.778  1.00  0.00     0.024 A 
HETATM   27  C1  UNL     1      27.736   6.755  48.199  1.00  0.00     0.034 A 
HETATM   28 CL1  UNL     1      28.657   8.020  47.415  1.00  0.00    -0.084 Cl
HETATM   29  C22 UNL     1      28.223   5.467  48.253  1.00  0.00     0.024 A 
HETATM   30  C21 UNL     1      27.471   4.495  48.878  1.00  0.00     0.015 A 
ENDBRANCH   1  24
TORSDOF 1
ENDMDL
MODEL 4
REMARK VINA RESULT:      -9.3      3.415      7.535
REMARK  1 active torsions:
REMARK  status: ('A' for Active; 'I' for Inactive)
REMARK    1  A    between atoms: C4_5  and  C5_6 
ROOT
HETATM    1  C5  UNL     1      25.585   1.484  51.940  1.00  0.00     0.075 C 
HETATM    2  C6  UNL     1      24.335   1.465  52.432  1.00  0.00     0.079 C 
HETATM    3  S1  UNL     1      23.323   0.627  53.608  1.00  0.00    -0.118 SA
HETATM    4  C7  UNL     1      22.252  -0.588  52.857  1.00  0.00     0.226 C 
HETATM    5  N1  UNL     1      21.197   0.017  52.075  1.00  0.00    -0.267 N 
HETATM    6  N2  UNL     1      20.970   0.101  50.590  1.00  0.00    -0.180 NA
HETATM    7  C8  UNL     1      20.261   1.216  50.563  1.00  0.00     0.067 C 
HETATM    8  C9  UNL     1      19.154   0.501  51.335  1.00  0.00     0.114 C 
HETATM    9  C10 UNL     1      19.996   0.728  52.651  1.00  0.00     0.247 C 
HETATM   10  O1  UNL     1      20.315   2.063  52.681  1.00  0.00    -0.362 OA
HETATM   11  C11 UNL     1      19.497   2.922  51.930  1.00  0.00     0.208 C 
HETATM   12  C12 UNL     1      19.750   2.672  50.383  1.00  0.00     0.195 C 
HETATM   13  O2  UNL     1      20.744   3.427  50.031  1.00  0.00    -0.373 OA
HETATM   14  C13 UNL     1      20.895   4.391  49.124  1.00  0.00     0.207 C 
HETATM   15  C14 UNL     1      22.398   4.756  49.264  1.00  0.00    -0.034 A 
HETATM   16  C15 UNL     1      23.076   5.877  49.645  1.00  0.00     0.012 A 
HETATM   17  C16 UNL     1      24.420   5.668  49.747  1.00  0.00     0.038 A 
HETATM   18  C17 UNL     1      25.002   4.469  49.488  1.00  0.00     0.076 A 
HETATM   19  C18 UNL     1      24.412   3.290  49.093  1.00  0.00     0.038 A 
HETATM   20  C19 UNL     1      23.060   3.543  49.006  1.00  0.00     0.012 A 
HETATM   21  O3  UNL     1      26.375   4.111  49.574  1.00  0.00    -0.304 OA
HETATM   22  C20 UNL     1      26.699   3.198  50.639  1.00  0.00     0.259 C 
HETATM   23  N3  UNL     1      25.714   2.479  50.975  1.00  0.00    -0.236 NA
ENDROOT
BRANCH   1  24
HETATM   24  C4  UNL     1      26.623   0.585  52.394  1.00  0.00    -0.007 A 
HETATM   25  C3  UNL     1      26.508  -0.774  52.221  1.00  0.00     0.015 A 
HETATM   26  C2  UNL     1      27.466  -1.667  52.633  1.00  0.00     0.024 A 
HETATM   27  C1  UNL     1      28.617  -1.243  53.253  1.00  0.00     0.034 A 
HETATM   28 CL1  UNL     1      29.851  -2.365  53.785  1.00  0.00    -0.084 Cl
HETATM   29  C22 UNL     1      28.774   0.112  53.449  1.00  0.00     0.024 A 
HETATM   30  C21 UNL     1      27.783   0.967  53.017  1.00  0.00     0.015 A 
ENDBRANCH   1  24
TORSDOF 1
ENDMDL
MODEL 5
REMARK VINA RESULT:      -8.6      3.319      6.281
REMARK  1 active torsions:
REMARK  status: ('A' for Active; 'I' for Inactive)
REMARK    1  A    between atoms: C4_5  and  C5_6 
ROOT
HETATM    1  C5  UNL     1      21.117   0.636  52.602  1.00  0.00     0.075 C 
HETATM    2  C6  UNL     1      21.284   1.895  52.166  1.00  0.00     0.079 C 
HETATM    3  S1  UNL     1      20.389   3.257  51.493  1.00  0.00    -0.118 SA
HETATM    4  C7  UNL     1      20.586   3.406  49.724  1.00  0.00     0.226 C 
HETATM    5  N1  UNL     1      21.917   3.832  49.353  1.00  0.00    -0.267 N 
HETATM    6  N2  UNL     1      23.062   3.101  48.707  1.00  0.00    -0.180 NA
HETATM    7  C8  UNL     1      24.056   3.817  49.204  1.00  0.00     0.067 C 
HETATM    8  C9  UNL     1      23.548   5.022  48.415  1.00  0.00     0.114 C 
HETATM    9  C10 UNL     1      22.457   5.231  49.536  1.00  0.00     0.247 C 
HETATM   10  O1  UNL     1      23.128   5.231  50.734  1.00  0.00    -0.362 OA
HETATM   11  C11 UNL     1      24.497   5.539  50.687  1.00  0.00     0.208 C 
HETATM   12  C12 UNL     1      25.282   4.343  49.999  1.00  0.00     0.195 C 
HETATM   13  O2  UNL     1      25.578   3.492  50.931  1.00  0.00    -0.373 OA
HETATM   14  C13 UNL     1      26.720   2.977  51.383  1.00  0.00     0.207 C 
HETATM   15  C14 UNL     1      26.236   1.974  52.466  1.00  0.00    -0.034 A 
HETATM   16  C15 UNL     1      26.392   1.881  53.818  1.00  0.00     0.012 A 
HETATM   17  C16 UNL     1      25.645   0.879  54.364  1.00  0.00     0.038 A 
HETATM   18  C17 UNL     1      24.843   0.070  53.625  1.00  0.00     0.076 A 
HETATM   19  C18 UNL     1      24.626   0.077  52.266  1.00  0.00     0.038 A 
HETATM   20  C19 UNL     1      25.393   1.102  51.756  1.00  0.00     0.012 A 
HETATM   21  O3  UNL     1      24.005  -0.990  54.065  1.00  0.00    -0.304 OA
HETATM   22  C20 UNL     1      22.592  -0.734  53.951  1.00  0.00     0.259 C 
HETATM   23  N3  UNL     1      22.326   0.107  53.044  1.00  0.00    -0.236 NA
ENDROOT
BRANCH   1  24
HETATM   24  C4  UNL     1      19.833  -0.031  52.607  1.00  0.00    -0.007 A 
HETATM   25  C3  UNL     1      18.929   0.166  51.591  1.00  0.00     0.015 A 
HETATM   26  C2  UNL     1      17.700  -0.444  51.550  1.00  0.00     0.024 A 
HETATM   27  C1  UNL     1      17.297  -1.305  52.543  1.00  0.00     0.034 A 
HETATM   28 CL1  UNL     1      15.735  -2.094  52.509  1.00  0.00    -0.084 Cl
HETATM   29  C22 UNL     1      18.172  -1.533  53.583  1.00  0.00     0.024 A 
HETATM   30  C21 UNL     1      19.394  -0.895  53.578  1.00  0.00     0.015 A 
ENDBRANCH   1  24
TORSDOF 1
ENDMDL
MODEL 6
REMARK VINA RESULT:      -8.1      3.692      7.667
REMARK  1 active torsions:
REMARK  status: ('A' for Active; 'I' for Inactive)
REMARK    1  A    between atoms: C4_5  and  C5_6 
ROOT
HETATM    1  C5  UNL     1      23.952   2.839  51.873  1.00  0.00     0.075 C 
HETATM    2  C6  UNL     1      22.687   2.487  52.156  1.00  0.00     0.079 C 
HETATM    3  S1  UNL     1      21.748   1.242  52.980  1.00  0.00    -0.118 SA
HETATM    4  C7  UNL     1      21.043   0.049  51.853  1.00  0.00     0.226 C 
HETATM    5  N1  UNL     1      19.979   0.611  51.053  1.00  0.00    -0.267 N 
HETATM    6  N2  UNL     1      19.904   0.977  49.596  1.00  0.00    -0.180 NA
HETATM    7  C8  UNL     1      18.986   1.924  49.678  1.00  0.00     0.067 C 
HETATM    8  C9  UNL     1      17.974   0.869  50.119  1.00  0.00     0.114 C 
HETATM    9  C10 UNL     1      18.599   0.949  51.567  1.00  0.00     0.247 C 
HETATM   10  O1  UNL     1      18.628   2.280  51.903  1.00  0.00    -0.362 OA
HETATM   11  C11 UNL     1      17.737   3.120  51.218  1.00  0.00     0.208 C 
HETATM   12  C12 UNL     1      18.206   3.268  49.708  1.00  0.00     0.195 C 
HETATM   13  O2  UNL     1      19.053   4.248  49.664  1.00  0.00    -0.373 OA
HETATM   14  C13 UNL     1      19.100   5.399  48.995  1.00  0.00     0.207 C 
HETATM   15  C14 UNL     1      20.469   5.990  49.430  1.00  0.00    -0.034 A 
HETATM   16  C15 UNL     1      20.852   7.102  50.120  1.00  0.00     0.012 A 
HETATM   17  C16 UNL     1      22.190   7.122  50.382  1.00  0.00     0.038 A 
HETATM   18  C17 UNL     1      23.034   6.135  49.987  1.00  0.00     0.076 A 
HETATM   19  C18 UNL     1      22.750   4.985  49.286  1.00  0.00     0.038 A 
HETATM   20  C19 UNL     1      21.393   5.003  49.046  1.00  0.00     0.012 A 
HETATM   21  O3  UNL     1      24.433   6.021  50.209  1.00  0.00    -0.304 OA
HETATM   22  C20 UNL     1      24.822   4.969  51.114  1.00  0.00     0.259 C 
HETATM   23  N3  UNL     1      23.977   4.028  51.150  1.00  0.00    -0.236 NA
ENDROOT
BRANCH   1  24
HETATM   24  C4  UNL     1      25.097   2.064  52.296  1.00  0.00    -0.007 A 
HETATM   25  C3  UNL     1      25.654   2.244  53.539  1.00  0.00     0.015 A 
HETATM   26  C2  UNL     1      26.739   1.533  53.987  1.00  0.00     0.024 A 
HETATM   27  C1  UNL     1      27.342   0.580  53.200  1.00  0.00     0.034 A 
HETATM   28 CL1  UNL     1      28.726  -0.338  53.752  1.00  0.00    -0.084 Cl
HETATM   29  C22 UNL     1      26.818   0.366  51.944  1.00  0.00     0.024 A 
HETATM   30  C21 UNL     1      25.727   1.107  51.541  1.00  0.00     0.015 A 
ENDBRANCH   1  24
TORSDOF 1
ENDMDL
MODEL 7
REMARK VINA RESULT:      -8.0      3.825      7.149
REMARK  1 active torsions:
REMARK  status: ('A' for Active; 'I' for Inactive)
REMARK    1  A    between atoms: C4_5  and  C5_6 
ROOT
HETATM    1  C5  UNL     1      19.842   0.784  52.215  1.00  0.00     0.075 C 
HETATM    2  C6  UNL     1      19.726   2.095  51.946  1.00  0.00     0.079 C 
HETATM    3  S1  UNL     1      18.523   3.332  51.582  1.00  0.00    -0.118 SA
HETATM    4  C7  UNL     1      18.442   3.726  49.842  1.00  0.00     0.226 C 
HETATM    5  N1  UNL     1      19.614   4.438  49.385  1.00  0.00    -0.267 N 
HETATM    6  N2  UNL     1      20.766   4.021  48.513  1.00  0.00    -0.180 NA
HETATM    7  C8  UNL     1      21.681   4.848  48.989  1.00  0.00     0.067 C 
HETATM    8  C9  UNL     1      20.867   6.021  48.444  1.00  0.00     0.114 C 
HETATM    9  C10 UNL     1      19.923   5.882  49.702  1.00  0.00     0.247 C 
HETATM   10  O1  UNL     1      20.745   5.868  50.802  1.00  0.00    -0.362 OA
HETATM   11  C11 UNL     1      22.019   6.433  50.642  1.00  0.00     0.208 C 
HETATM   12  C12 UNL     1      22.896   5.500  49.704  1.00  0.00     0.195 C 
HETATM   13  O2  UNL     1      23.462   4.616  50.464  1.00  0.00    -0.373 OA
HETATM   14  C13 UNL     1      24.729   4.278  50.703  1.00  0.00     0.207 C 
HETATM   15  C14 UNL     1      24.582   3.079  51.680  1.00  0.00    -0.034 A 
HETATM   16  C15 UNL     1      24.938   2.858  52.978  1.00  0.00     0.012 A 
HETATM   17  C16 UNL     1      24.461   1.674  53.458  1.00  0.00     0.038 A 
HETATM   18  C17 UNL     1      23.717   0.820  52.709  1.00  0.00     0.076 A 
HETATM   19  C18 UNL     1      23.313   0.948  51.399  1.00  0.00     0.038 A 
HETATM   20  C19 UNL     1      23.812   2.154  50.956  1.00  0.00     0.012 A 
HETATM   21  O3  UNL     1      23.144  -0.425  53.086  1.00  0.00    -0.304 OA
HETATM   22  C20 UNL     1      21.706  -0.430  53.174  1.00  0.00     0.259 C 
HETATM   23  N3  UNL     1      21.175   0.447  52.434  1.00  0.00    -0.236 NA
ENDROOT
BRANCH   1  24
HETATM   24  C4  UNL     1      18.707  -0.111  52.272  1.00  0.00    -0.007 A 
HETATM   25  C3  UNL     1      17.720  -0.065  51.317  1.00  0.00     0.015 A 
HETATM   26  C2  UNL     1      16.625  -0.894  51.328  1.00  0.00     0.024 A 
HETATM   27  C1  UNL     1      16.452  -1.835  52.315  1.00  0.00     0.034 A 
HETATM   28 CL1  UNL     1      15.064  -2.901  52.346  1.00  0.00    -0.084 Cl
HETATM   29  C22 UNL     1      17.418  -1.916  53.295  1.00  0.00     0.024 A 
HETATM   30  C21 UNL     1      18.498  -1.061  53.239  1.00  0.00     0.015 A 
ENDBRANCH   1  24
TORSDOF 1
ENDMDL
MODEL 8
REMARK VINA RESULT:      -7.9      7.630     10.838
REMARK  1 active torsions:
REMARK  status: ('A' for Active; 'I' for Inactive)
REMARK    1  A    between atoms: C4_5  and  C5_6 
ROOT
HETATM    1  C5  UNL     1      26.891   6.921  48.640  1.00  0.00     0.075 C 
HETATM    2  C6  UNL     1      26.983   8.221  48.966  1.00  0.00     0.079 C 
HETATM    3  S1  UNL     1      25.997   9.598  49.458  1.00  0.00    -0.118 SA
HETATM    4  C7  UNL     1      25.663  10.724  48.112  1.00  0.00     0.226 C 
HETATM    5  N1  UNL     1      26.841  11.452  47.699  1.00  0.00    -0.267 N 
HETATM    6  N2  UNL     1      27.702  11.355  46.469  1.00  0.00    -0.180 NA
HETATM    7  C8  UNL     1      28.834  11.800  46.987  1.00  0.00     0.067 C 
HETATM    8  C9  UNL     1      28.175  13.162  47.194  1.00  0.00     0.114 C 
HETATM    9  C10 UNL     1      27.482  12.573  48.484  1.00  0.00     0.247 C 
HETATM   10  O1  UNL     1      28.480  11.999  49.232  1.00  0.00    -0.362 OA
HETATM   11  C11 UNL     1      29.785  12.456  48.994  1.00  0.00     0.208 C 
HETATM   12  C12 UNL     1      30.267  11.954  47.567  1.00  0.00     0.195 C 
HETATM   13  O2  UNL     1      30.785  10.776  47.730  1.00  0.00    -0.373 OA
HETATM   14  C13 UNL     1      31.983  10.251  47.477  1.00  0.00     0.207 C 
HETATM   15  C14 UNL     1      31.795   8.764  47.885  1.00  0.00    -0.034 A 
HETATM   16  C15 UNL     1      32.343   7.962  48.842  1.00  0.00     0.012 A 
HETATM   17  C16 UNL     1      31.745   6.738  48.905  1.00  0.00     0.038 A 
HETATM   18  C17 UNL     1      30.719   6.375  48.093  1.00  0.00     0.076 A 
HETATM   19  C18 UNL     1      30.105   7.103  47.099  1.00  0.00     0.038 A 
HETATM   20  C19 UNL     1      30.736   8.328  47.072  1.00  0.00     0.012 A 
HETATM   21  O3  UNL     1      29.999   5.150  48.066  1.00  0.00    -0.304 OA
HETATM   22  C20 UNL     1      28.631   5.241  48.510  1.00  0.00     0.259 C 
HETATM   23  N3  UNL     1      28.149   6.400  48.353  1.00  0.00    -0.236 NA
ENDROOT
BRANCH   1  24
HETATM   24  C4  UNL     1      25.635   6.203  48.619  1.00  0.00    -0.007 A 
HETATM   25  C3  UNL     1      25.484   5.022  49.305  1.00  0.00     0.015 A 
HETATM   26  C2  UNL     1      24.313   4.305  49.317  1.00  0.00     0.024 A 
HETATM   27  C1  UNL     1      23.204   4.738  48.631  1.00  0.00     0.034 A 
HETATM   28 CL1  UNL     1      21.702   3.840  48.634  1.00  0.00    -0.084 Cl
HETATM   29  C22 UNL     1      23.310   5.919  47.928  1.00  0.00     0.024 A 
HETATM   30  C21 UNL     1      24.508   6.601  47.947  1.00  0.00     0.015 A 
ENDBRANCH   1  24
TORSDOF 1
ENDMDL
MODEL 9
REMARK VINA RESULT:      -7.8      3.266      4.925
REMARK  1 active torsions:
REMARK  status: ('A' for Active; 'I' for Inactive)
REMARK    1  A    between atoms: C4_5  and  C5_6 
ROOT
HETATM    1  C5  UNL     1      18.994   0.990  51.974  1.00  0.00     0.075 C 
HETATM    2  C6  UNL     1      19.875   2.000  52.060  1.00  0.00     0.079 C 
HETATM    3  S1  UNL     1      20.098   3.685  51.589  1.00  0.00    -0.118 SA
HETATM    4  C7  UNL     1      21.155   3.868  50.160  1.00  0.00     0.226 C 
HETATM    5  N1  UNL     1      22.535   3.552  50.453  1.00  0.00    -0.267 N 
HETATM    6  N2  UNL     1      23.402   2.387  50.064  1.00  0.00    -0.180 NA
HETATM    7  C8  UNL     1      24.238   2.414  51.088  1.00  0.00     0.067 C 
HETATM    8  C9  UNL     1      24.746   3.771  50.605  1.00  0.00     0.114 C 
HETATM    9  C10 UNL     1      23.467   4.425  51.261  1.00  0.00     0.247 C 
HETATM   10  O1  UNL     1      23.411   3.958  52.550  1.00  0.00    -0.362 OA
HETATM   11  C11 UNL     1      24.615   3.493  53.102  1.00  0.00     0.208 C 
HETATM   12  C12 UNL     1      25.027   2.132  52.396  1.00  0.00     0.195 C 
HETATM   13  O2  UNL     1      24.442   1.173  53.043  1.00  0.00    -0.373 OA
HETATM   14  C13 UNL     1      24.879   0.090  53.684  1.00  0.00     0.207 C 
HETATM   15  C14 UNL     1      23.559  -0.596  54.133  1.00  0.00    -0.034 A 
HETATM   16  C15 UNL     1      22.995  -0.881  55.342  1.00  0.00     0.012 A 
HETATM   17  C16 UNL     1      21.731  -1.377  55.226  1.00  0.00     0.038 A 
HETATM   18  C17 UNL     1      21.117  -1.564  54.029  1.00  0.00     0.076 A 
HETATM   19  C18 UNL     1      21.600  -1.318  52.764  1.00  0.00     0.038 A 
HETATM   20  C19 UNL     1      22.874  -0.816  52.926  1.00  0.00     0.012 A 
HETATM   21  O3  UNL     1      19.808  -2.050  53.769  1.00  0.00    -0.304 OA
HETATM   22  C20 UNL     1      18.890  -1.071  53.243  1.00  0.00     0.259 C 
HETATM   23  N3  UNL     1      19.482  -0.139  52.625  1.00  0.00    -0.236 NA
ENDROOT
BRANCH   1  24
HETATM   24  C4  UNL     1      17.720   1.112  51.300  1.00  0.00    -0.007 A 
HETATM   25  C3  UNL     1      17.426   0.346  50.197  1.00  0.00     0.015 A 
HETATM   26  C2  UNL     1      16.232   0.425  49.525  1.00  0.00     0.024 A 
HETATM   27  C1  UNL     1      15.242   1.291  49.926  1.00  0.00     0.034 A 
HETATM   28 CL1  UNL     1      13.712   1.405  49.084  1.00  0.00    -0.084 Cl
HETATM   29  C22 UNL     1      15.494   2.080  51.028  1.00  0.00     0.024 A 
HETATM   30  C21 UNL     1      16.710   1.963  51.668  1.00  0.00     0.015 A 
ENDBRANCH   1  24
TORSDOF 1
ENDMDL
