MODEL 1
REMARK VINA RESULT:      -7.2      0.000      0.000
REMARK  6 active torsions:
REMARK  status: ('A' for Active; 'I' for Inactive)
REMARK    1  A    between atoms: C2_2  and  C3_3 
REMARK       I    between atoms: C3_3  and  N1_5 
REMARK    2  A    between atoms: C10_14  and  N3_15 
REMARK    3  A    between atoms: N3_15  and  C11_16 
REMARK    4  A    between atoms: N3_15  and  C12_19 
REMARK    5  A    between atoms: C11_16  and  O2_17 
REMARK    6  A    between atoms: O2_17  and  N4_18 
ROOT
HETATM    1  C3  UNL     1      27.541   1.096  54.112  1.00  0.00     0.219 C 
HETATM    2  O1  UNL     1      27.855   2.312  54.211  1.00  0.00    -0.273 OA
HETATM    3  N1  UNL     1      26.220   1.004  53.585  1.00  0.00    -0.347 N 
HETATM    4  C4  UNL     1      25.728   2.328  53.357  1.00  0.00     0.131 C 
HETATM    5  C5  UNL     1      24.384   2.336  52.645  1.00  0.00     0.060 C 
HETATM    6  C6  UNL     1      23.658   1.124  53.078  1.00  0.00    -0.032 C 
HETATM    7  C7  UNL     1      24.130  -0.120  53.423  1.00  0.00     0.014 C 
HETATM    8  C8  UNL     1      25.634  -0.302  53.379  1.00  0.00     0.173 C 
HETATM    9  S1  UNL     1      22.712  -1.213  53.856  1.00  0.00    -0.070 SA
HETATM   10  N2  UNL     1      21.717  -1.309  52.591  1.00  0.00    -0.258 NA
HETATM   11  C9  UNL     1      20.595  -0.386  52.392  1.00  0.00     0.215 C 
HETATM   12  C10 UNL     1      21.192   1.023  52.305  1.00  0.00     0.042 C 
HETATM   13  C18 UNL     1      22.183   0.887  53.228  1.00  0.00    -0.016 C 
HETATM   14  C19 UNL     1      21.915   0.295  54.632  1.00  0.00     0.132 C 
ENDROOT
BRANCH  12  15
HETATM   15  N3  UNL     1      21.194   2.327  51.708  1.00  0.00    -0.325 N 
BRANCH  15  16
HETATM   16  C11 UNL     1      20.766   3.492  52.460  1.00  0.00     0.324 C 
BRANCH  16  17
HETATM   17  O2  UNL     1      19.643   4.105  51.930  1.00  0.00    -0.288 OA
BRANCH  17  18
HETATM   18  N4  UNL     1      18.519   3.413  51.964  1.00  0.00    -0.213 NA
HETATM   19  H16 UNL     1      18.483   2.535  51.428  1.00  0.00     0.150 HD
HETATM   20  H17 UNL     1      17.713   4.008  51.698  1.00  0.00     0.150 HD
ENDBRANCH  17  18
ENDBRANCH  16  17
ENDBRANCH  15  16
BRANCH  15  21
HETATM   21  C12 UNL     1      21.645   2.228  50.340  1.00  0.00     0.036 A 
HETATM   22  C13 UNL     1      21.371   1.201  49.453  1.00  0.00     0.029 A 
HETATM   23  C14 UNL     1      21.853   1.222  48.167  1.00  0.00     0.002 A 
HETATM   24  C15 UNL     1      22.619   2.233  47.686  1.00  0.00     0.000 A 
HETATM   25  C16 UNL     1      22.934   3.291  48.511  1.00  0.00     0.002 A 
HETATM   26  C17 UNL     1      22.433   3.237  49.794  1.00  0.00     0.029 A 
ENDBRANCH  15  21
ENDBRANCH  12  15
BRANCH   1  27
HETATM   27  C2  UNL     1      28.312  -0.153  54.450  1.00  0.00     0.098 C 
HETATM   28  C1  UNL     1      29.560  -0.213  53.617  1.00  0.00     0.014 C 
ENDBRANCH   1  27
TORSDOF 6
ENDMDL
MODEL 2
REMARK VINA RESULT:      -6.7      2.411      3.172
REMARK  6 active torsions:
REMARK  status: ('A' for Active; 'I' for Inactive)
REMARK    1  A    between atoms: C2_2  and  C3_3 
REMARK       I    between atoms: C3_3  and  N1_5 
REMARK    2  A    between atoms: C10_14  and  N3_15 
REMARK    3  A    between atoms: N3_15  and  C11_16 
REMARK    4  A    between atoms: N3_15  and  C12_19 
REMARK    5  A    between atoms: C11_16  and  O2_17 
REMARK    6  A    between atoms: O2_17  and  N4_18 
ROOT
HETATM    1  C3  UNL     1      28.050   1.127  53.217  1.00  0.00     0.219 C 
HETATM    2  O1  UNL     1      28.753   2.124  52.906  1.00  0.00    -0.273 OA
HETATM    3  N1  UNL     1      26.800   1.215  52.539  1.00  0.00    -0.347 N 
HETATM    4  C4  UNL     1      26.794   2.407  51.748  1.00  0.00     0.131 C 
HETATM    5  C5  UNL     1      25.564   2.513  50.861  1.00  0.00     0.060 C 
HETATM    6  C6  UNL     1      24.453   1.858  51.582  1.00  0.00    -0.032 C 
HETATM    7  C7  UNL     1      24.461   0.789  52.446  1.00  0.00     0.014 C 
HETATM    8  C8  UNL     1      25.815   0.175  52.739  1.00  0.00     0.173 C 
HETATM    9  S1  UNL     1      22.740   0.439  53.001  1.00  0.00    -0.070 SA
HETATM   10  N2  UNL     1      21.825   0.125  51.710  1.00  0.00    -0.258 NA
HETATM   11  C9  UNL     1      21.092   1.167  50.985  1.00  0.00     0.215 C 
HETATM   12  C10 UNL     1      22.133   2.173  50.482  1.00  0.00     0.042 C 
HETATM   13  C18 UNL     1      22.980   2.147  51.547  1.00  0.00    -0.016 C 
HETATM   14  C19 UNL     1      22.468   2.293  53.000  1.00  0.00     0.132 C 
ENDROOT
BRANCH  12  15
HETATM   15  N3  UNL     1      22.601   3.051  49.450  1.00  0.00    -0.325 N 
BRANCH  15  16
HETATM   16  C11 UNL     1      23.110   2.525  48.197  1.00  0.00     0.324 C 
BRANCH  16  17
HETATM   17  O2  UNL     1      22.150   2.456  47.200  1.00  0.00    -0.288 OA
BRANCH  17  18
HETATM   18  N4  UNL     1      21.972   3.545  46.474  1.00  0.00    -0.213 NA
HETATM   19  H16 UNL     1      21.385   4.292  46.870  1.00  0.00     0.150 HD
HETATM   20  H17 UNL     1      21.625   3.302  45.528  1.00  0.00     0.150 HD
ENDBRANCH  17  18
ENDBRANCH  16  17
ENDBRANCH  15  16
BRANCH  15  21
HETATM   21  C12 UNL     1      22.487   4.420  49.896  1.00  0.00     0.036 A 
HETATM   22  C13 UNL     1      21.401   4.993  50.535  1.00  0.00     0.029 A 
HETATM   23  C14 UNL     1      21.412   6.311  50.919  1.00  0.00     0.002 A 
HETATM   24  C15 UNL     1      22.471   7.130  50.701  1.00  0.00     0.000 A 
HETATM   25  C16 UNL     1      23.590   6.632  50.069  1.00  0.00     0.002 A 
HETATM   26  C17 UNL     1      23.544   5.305  49.698  1.00  0.00     0.029 A 
ENDBRANCH  15  21
ENDBRANCH  12  15
BRANCH   1  27
HETATM   27  C2  UNL     1      28.338  -0.037  54.129  1.00  0.00     0.098 C 
HETATM   28  C1  UNL     1      29.516  -0.807  53.604  1.00  0.00     0.014 C 
ENDBRANCH   1  27
TORSDOF 6
ENDMDL
MODEL 3
REMARK VINA RESULT:      -6.7      4.506      6.430
REMARK  6 active torsions:
REMARK  status: ('A' for Active; 'I' for Inactive)
REMARK    1  A    between atoms: C2_2  and  C3_3 
REMARK       I    between atoms: C3_3  and  N1_5 
REMARK    2  A    between atoms: C10_14  and  N3_15 
REMARK    3  A    between atoms: N3_15  and  C11_16 
REMARK    4  A    between atoms: N3_15  and  C12_19 
REMARK    5  A    between atoms: C11_16  and  O2_17 
REMARK    6  A    between atoms: O2_17  and  N4_18 
ROOT
HETATM    1  C3  UNL     1      27.467   7.711  49.038  1.00  0.00     0.219 C 
HETATM    2  O1  UNL     1      28.137   7.099  48.165  1.00  0.00    -0.273 OA
HETATM    3  N1  UNL     1      26.375   6.889  49.440  1.00  0.00    -0.347 N 
HETATM    4  C4  UNL     1      26.435   5.663  48.706  1.00  0.00     0.131 C 
HETATM    5  C5  UNL     1      25.402   4.650  49.176  1.00  0.00     0.060 C 
HETATM    6  C6  UNL     1      24.224   5.415  49.636  1.00  0.00    -0.032 C 
HETATM    7  C7  UNL     1      24.143   6.652  50.229  1.00  0.00     0.014 C 
HETATM    8  C8  UNL     1      25.455   7.380  50.442  1.00  0.00     0.173 C 
HETATM    9  S1  UNL     1      22.379   7.046  50.582  1.00  0.00    -0.070 SA
HETATM   10  N2  UNL     1      21.769   5.907  51.547  1.00  0.00    -0.258 NA
HETATM   11  C9  UNL     1      21.116   4.699  51.034  1.00  0.00     0.215 C 
HETATM   12  C10 UNL     1      22.154   3.963  50.181  1.00  0.00     0.042 C 
HETATM   13  C18 UNL     1      22.770   5.042  49.625  1.00  0.00    -0.016 C 
HETATM   14  C19 UNL     1      21.968   6.190  48.967  1.00  0.00     0.132 C 
ENDROOT
BRANCH  12  15
HETATM   15  N3  UNL     1      22.749   2.730  49.754  1.00  0.00    -0.325 N 
BRANCH  15  16
HETATM   16  C11 UNL     1      22.768   2.357  48.352  1.00  0.00     0.324 C 
BRANCH  16  17
HETATM   17  O2  UNL     1      21.977   1.257  48.065  1.00  0.00    -0.288 OA
BRANCH  17  18
HETATM   18  N4  UNL     1      20.694   1.357  48.360  1.00  0.00    -0.213 NA
HETATM   19  H16 UNL     1      20.445   1.670  49.309  1.00  0.00     0.150 HD
HETATM   20  H17 UNL     1      20.199   0.471  48.153  1.00  0.00     0.150 HD
ENDBRANCH  17  18
ENDBRANCH  16  17
ENDBRANCH  15  16
BRANCH  15  21
HETATM   21  C12 UNL     1      23.250   2.015  50.904  1.00  0.00     0.036 A 
HETATM   22  C13 UNL     1      24.526   2.094  51.435  1.00  0.00     0.029 A 
HETATM   23  C14 UNL     1      24.884   1.366  52.543  1.00  0.00     0.002 A 
HETATM   24  C15 UNL     1      24.027   0.531  53.182  1.00  0.00     0.000 A 
HETATM   25  C16 UNL     1      22.739   0.398  52.711  1.00  0.00     0.002 A 
HETATM   26  C17 UNL     1      22.413   1.144  51.598  1.00  0.00     0.029 A 
ENDBRANCH  15  21
ENDBRANCH  12  15
BRANCH   1  27
HETATM   27  C2  UNL     1      27.657   9.074  49.651  1.00  0.00     0.098 C 
HETATM   28  C1  UNL     1      29.049   9.562  49.367  1.00  0.00     0.014 C 
ENDBRANCH   1  27
TORSDOF 6
ENDMDL
MODEL 4
REMARK VINA RESULT:      -6.6      9.513     12.310
REMARK  6 active torsions:
REMARK  status: ('A' for Active; 'I' for Inactive)
REMARK    1  A    between atoms: C2_2  and  C3_3 
REMARK       I    between atoms: C3_3  and  N1_5 
REMARK    2  A    between atoms: C10_14  and  N3_15 
REMARK    3  A    between atoms: N3_15  and  C11_16 
REMARK    4  A    between atoms: N3_15  and  C12_19 
REMARK    5  A    between atoms: C11_16  and  O2_17 
REMARK    6  A    between atoms: O2_17  and  N4_18 
ROOT
HETATM    1  C3  UNL     1      26.488   6.278  48.659  1.00  0.00     0.219 C 
HETATM    2  O1  UNL     1      26.433   5.054  48.948  1.00  0.00    -0.273 OA
HETATM    3  N1  UNL     1      27.824   6.603  48.283  1.00  0.00    -0.347 N 
HETATM    4  C4  UNL     1      28.621   5.417  48.370  1.00  0.00     0.131 C 
HETATM    5  C5  UNL     1      30.030   5.622  47.837  1.00  0.00     0.060 C 
HETATM    6  C6  UNL     1      30.398   7.026  48.115  1.00  0.00    -0.032 C 
HETATM    7  C7  UNL     1      29.619   8.158  48.160  1.00  0.00     0.014 C 
HETATM    8  C8  UNL     1      28.139   7.962  47.905  1.00  0.00     0.173 C 
HETATM    9  S1  UNL     1      30.680   9.614  48.543  1.00  0.00    -0.070 SA
HETATM   10  N2  UNL     1      31.819   9.747  47.409  1.00  0.00    -0.258 NA
HETATM   11  C9  UNL     1      33.131   9.102  47.523  1.00  0.00     0.215 C 
HETATM   12  C10 UNL     1      32.875   7.596  47.635  1.00  0.00     0.042 C 
HETATM   13  C18 UNL     1      31.744   7.632  48.391  1.00  0.00    -0.016 C 
HETATM   14  C19 UNL     1      31.651   8.484  49.679  1.00  0.00     0.132 C 
ENDROOT
BRANCH  12  15
HETATM   15  N3  UNL     1      33.250   6.253  47.299  1.00  0.00    -0.325 N 
BRANCH  15  16
HETATM   16  C11 UNL     1      33.658   5.314  48.327  1.00  0.00     0.324 C 
BRANCH  16  17
HETATM   17  O2  UNL     1      34.846   5.661  48.949  1.00  0.00    -0.288 OA
BRANCH  17  18
HETATM   18  N4  UNL     1      35.417   4.733  49.695  1.00  0.00    -0.213 NA
HETATM   19  H16 UNL     1      34.804   4.043  50.151  1.00  0.00     0.150 HD
HETATM   20  H17 UNL     1      36.034   5.163  50.408  1.00  0.00     0.150 HD
ENDBRANCH  17  18
ENDBRANCH  16  17
ENDBRANCH  15  16
BRANCH  15  21
HETATM   21  C12 UNL     1      33.162   6.073  45.869  1.00  0.00     0.036 A 
HETATM   22  C13 UNL     1      32.420   6.836  44.984  1.00  0.00     0.029 A 
HETATM   23  C14 UNL     1      32.422   6.571  43.637  1.00  0.00     0.002 A 
HETATM   24  C15 UNL     1      33.137   5.557  43.089  1.00  0.00     0.000 A 
HETATM   25  C16 UNL     1      33.901   4.752  43.907  1.00  0.00     0.002 A 
HETATM   26  C17 UNL     1      33.876   5.048  45.254  1.00  0.00     0.029 A 
ENDBRANCH  15  21
ENDBRANCH  12  15
BRANCH   1  27
HETATM   27  C2  UNL     1      25.421   7.342  48.661  1.00  0.00     0.098 C 
HETATM   28  C1  UNL     1      24.469   7.099  47.524  1.00  0.00     0.014 C 
ENDBRANCH   1  27
TORSDOF 6
ENDMDL
MODEL 5
REMARK VINA RESULT:      -6.4      3.254      7.031
REMARK  6 active torsions:
REMARK  status: ('A' for Active; 'I' for Inactive)
REMARK    1  A    between atoms: C2_2  and  C3_3 
REMARK       I    between atoms: C3_3  and  N1_5 
REMARK    2  A    between atoms: C10_14  and  N3_15 
REMARK    3  A    between atoms: N3_15  and  C11_16 
REMARK    4  A    between atoms: N3_15  and  C12_19 
REMARK    5  A    between atoms: C11_16  and  O2_17 
REMARK    6  A    between atoms: O2_17  and  N4_18 
ROOT
HETATM    1  C3  UNL     1      21.938   4.565  45.715  1.00  0.00     0.219 C 
HETATM    2  O1  UNL     1      21.357   3.539  45.272  1.00  0.00    -0.273 OA
HETATM    3  N1  UNL     1      22.304   4.336  47.074  1.00  0.00    -0.347 N 
HETATM    4  C4  UNL     1      21.878   3.021  47.444  1.00  0.00     0.131 C 
HETATM    5  C5  UNL     1      22.361   2.619  48.828  1.00  0.00     0.060 C 
HETATM    6  C6  UNL     1      22.420   3.852  49.640  1.00  0.00    -0.032 C 
HETATM    7  C7  UNL     1      22.704   5.146  49.274  1.00  0.00     0.014 C 
HETATM    8  C8  UNL     1      22.989   5.379  47.804  1.00  0.00     0.173 C 
HETATM    9  S1  UNL     1      22.635   6.232  50.761  1.00  0.00    -0.070 SA
HETATM   10  N2  UNL     1      23.697   5.698  51.851  1.00  0.00    -0.258 NA
HETATM   11  C9  UNL     1      23.350   4.718  52.883  1.00  0.00     0.215 C 
HETATM   12  C10 UNL     1      22.882   3.454  52.154  1.00  0.00     0.042 C 
HETATM   13  C18 UNL     1      22.226   4.043  51.117  1.00  0.00    -0.016 C 
HETATM   14  C19 UNL     1      21.198   5.177  51.341  1.00  0.00     0.132 C 
ENDROOT
BRANCH  12  15
HETATM   15  N3  UNL     1      22.850   2.023  52.063  1.00  0.00    -0.325 N 
BRANCH  15  16
HETATM   16  C11 UNL     1      21.589   1.307  52.020  1.00  0.00     0.324 C 
BRANCH  16  17
HETATM   17  O2  UNL     1      20.847   1.429  53.183  1.00  0.00    -0.288 OA
BRANCH  17  18
HETATM   18  N4  UNL     1      20.863   0.397  54.007  1.00  0.00    -0.213 NA
HETATM   19  H16 UNL     1      20.282  -0.417  53.764  1.00  0.00     0.150 HD
HETATM   20  H17 UNL     1      20.644   0.696  54.974  1.00  0.00     0.150 HD
ENDBRANCH  17  18
ENDBRANCH  16  17
ENDBRANCH  15  16
BRANCH  15  21
HETATM   21  C12 UNL     1      24.200   1.513  52.047  1.00  0.00     0.036 A 
HETATM   22  C13 UNL     1      25.281   2.056  51.374  1.00  0.00     0.029 A 
HETATM   23  C14 UNL     1      26.526   1.481  51.441  1.00  0.00     0.002 A 
HETATM   24  C15 UNL     1      26.779   0.358  52.160  1.00  0.00     0.000 A 
HETATM   25  C16 UNL     1      25.752  -0.241  52.857  1.00  0.00     0.002 A 
HETATM   26  C17 UNL     1      24.516   0.364  52.768  1.00  0.00     0.029 A 
ENDBRANCH  15  21
ENDBRANCH  12  15
BRANCH   1  27
HETATM   27  C2  UNL     1      22.264   5.878  45.053  1.00  0.00     0.098 C 
HETATM   28  C1  UNL     1      20.994   6.634  44.788  1.00  0.00     0.014 C 
ENDBRANCH   1  27
TORSDOF 6
ENDMDL
MODEL 6
REMARK VINA RESULT:      -6.3      3.205      6.868
REMARK  6 active torsions:
REMARK  status: ('A' for Active; 'I' for Inactive)
REMARK    1  A    between atoms: C2_2  and  C3_3 
REMARK       I    between atoms: C3_3  and  N1_5 
REMARK    2  A    between atoms: C10_14  and  N3_15 
REMARK    3  A    between atoms: N3_15  and  C11_16 
REMARK    4  A    between atoms: N3_15  and  C12_19 
REMARK    5  A    between atoms: C11_16  and  O2_17 
REMARK    6  A    between atoms: O2_17  and  N4_18 
ROOT
HETATM    1  C3  UNL     1      21.003   3.828  45.436  1.00  0.00     0.219 C 
HETATM    2  O1  UNL     1      22.140   4.191  45.034  1.00  0.00    -0.273 OA
HETATM    3  N1  UNL     1      21.047   3.657  46.850  1.00  0.00    -0.347 N 
HETATM    4  C4  UNL     1      22.370   3.960  47.303  1.00  0.00     0.131 C 
HETATM    5  C5  UNL     1      22.481   3.962  48.820  1.00  0.00     0.060 C 
HETATM    6  C6  UNL     1      21.520   2.958  49.324  1.00  0.00    -0.032 C 
HETATM    7  C7  UNL     1      20.300   2.566  48.827  1.00  0.00     0.014 C 
HETATM    8  C8  UNL     1      19.851   3.240  47.546  1.00  0.00     0.173 C 
HETATM    9  S1  UNL     1      19.577   1.278  49.928  1.00  0.00    -0.070 SA
HETATM   10  N2  UNL     1      19.421   1.886  51.414  1.00  0.00    -0.258 NA
HETATM   11  C9  UNL     1      20.473   1.778  52.429  1.00  0.00     0.215 C 
HETATM   12  C10 UNL     1      21.712   2.476  51.858  1.00  0.00     0.042 C 
HETATM   13  C18 UNL     1      21.580   2.102  50.556  1.00  0.00    -0.016 C 
HETATM   14  C19 UNL     1      21.321   0.631  50.152  1.00  0.00     0.132 C 
ENDROOT
BRANCH  12  15
HETATM   15  N3  UNL     1      22.858   3.314  52.059  1.00  0.00    -0.325 N 
BRANCH  15  16
HETATM   16  C11 UNL     1      22.712   4.744  52.251  1.00  0.00     0.324 C 
BRANCH  16  17
HETATM   17  O2  UNL     1      23.775   5.320  52.927  1.00  0.00    -0.288 OA
BRANCH  17  18
HETATM   18  N4  UNL     1      24.252   6.447  52.430  1.00  0.00    -0.213 NA
HETATM   19  H16 UNL     1      24.867   7.011  53.033  1.00  0.00     0.150 HD
HETATM   20  H17 UNL     1      23.485   7.044  52.071  1.00  0.00     0.150 HD
ENDBRANCH  17  18
ENDBRANCH  16  17
ENDBRANCH  15  16
BRANCH  15  21
HETATM   21  C12 UNL     1      24.056   2.509  52.012  1.00  0.00     0.036 A 
HETATM   22  C13 UNL     1      24.286   1.328  52.696  1.00  0.00     0.029 A 
HETATM   23  C14 UNL     1      25.469   0.644  52.564  1.00  0.00     0.002 A 
HETATM   24  C15 UNL     1      26.480   1.073  51.767  1.00  0.00     0.000 A 
HETATM   25  C16 UNL     1      26.326   2.242  51.053  1.00  0.00     0.002 A 
HETATM   26  C17 UNL     1      25.125   2.901  51.210  1.00  0.00     0.029 A 
ENDBRANCH  15  21
ENDBRANCH  12  15
BRANCH   1  27
HETATM   27  C2  UNL     1      19.724   3.576  44.680  1.00  0.00     0.098 C 
HETATM   28  C1  UNL     1      19.326   4.819  43.938  1.00  0.00     0.014 C 
ENDBRANCH   1  27
TORSDOF 6
ENDMDL
MODEL 7
REMARK VINA RESULT:      -6.3      8.917     11.908
REMARK  6 active torsions:
REMARK  status: ('A' for Active; 'I' for Inactive)
REMARK    1  A    between atoms: C2_2  and  C3_3 
REMARK       I    between atoms: C3_3  and  N1_5 
REMARK    2  A    between atoms: C10_14  and  N3_15 
REMARK    3  A    between atoms: N3_15  and  C11_16 
REMARK    4  A    between atoms: N3_15  and  C12_19 
REMARK    5  A    between atoms: C11_16  and  O2_17 
REMARK    6  A    between atoms: O2_17  and  N4_18 
ROOT
HETATM    1  C3  UNL     1      25.212   7.305  47.609  1.00  0.00     0.219 C 
HETATM    2  O1  UNL     1      24.965   6.529  48.569  1.00  0.00    -0.273 OA
HETATM    3  N1  UNL     1      26.625   7.418  47.460  1.00  0.00    -0.347 N 
HETATM    4  C4  UNL     1      27.253   6.606  48.457  1.00  0.00     0.131 C 
HETATM    5  C5  UNL     1      28.762   6.532  48.282  1.00  0.00     0.060 C 
HETATM    6  C6  UNL     1      29.195   7.825  47.711  1.00  0.00    -0.032 C 
HETATM    7  C7  UNL     1      28.548   8.679  46.851  1.00  0.00     0.014 C 
HETATM    8  C8  UNL     1      27.157   8.263  46.414  1.00  0.00     0.173 C 
HETATM    9  S1  UNL     1      29.630  10.126  46.497  1.00  0.00    -0.070 SA
HETATM   10  N2  UNL     1      31.013   9.603  45.853  1.00  0.00    -0.258 NA
HETATM   11  C9  UNL     1      32.187   9.265  46.662  1.00  0.00     0.215 C 
HETATM   12  C10 UNL     1      31.760   8.143  47.615  1.00  0.00     0.042 C 
HETATM   13  C18 UNL     1      30.492   8.563  47.876  1.00  0.00    -0.016 C 
HETATM   14  C19 UNL     1      30.184  10.023  48.285  1.00  0.00     0.132 C 
ENDROOT
BRANCH  12  15
HETATM   15  N3  UNL     1      32.065   6.915  48.290  1.00  0.00    -0.325 N 
BRANCH  15  16
HETATM   16  C11 UNL     1      32.001   6.823  49.736  1.00  0.00     0.324 C 
BRANCH  16  17
HETATM   17  O2  UNL     1      31.639   5.566  50.191  1.00  0.00    -0.288 OA
BRANCH  17  18
HETATM   18  N4  UNL     1      31.576   5.405  51.501  1.00  0.00    -0.213 NA
HETATM   19  H16 UNL     1      32.362   5.761  52.063  1.00  0.00     0.150 HD
HETATM   20  H17 UNL     1      31.406   4.412  51.741  1.00  0.00     0.150 HD
ENDBRANCH  17  18
ENDBRANCH  16  17
ENDBRANCH  15  16
BRANCH  15  21
HETATM   21  C12 UNL     1      32.430   5.911  47.318  1.00  0.00     0.036 A 
HETATM   22  C13 UNL     1      31.796   4.699  47.105  1.00  0.00     0.029 A 
HETATM   23  C14 UNL     1      32.234   3.825  46.141  1.00  0.00     0.002 A 
HETATM   24  C15 UNL     1      33.301   4.083  45.345  1.00  0.00     0.000 A 
HETATM   25  C16 UNL     1      33.984   5.270  45.498  1.00  0.00     0.002 A 
HETATM   26  C17 UNL     1      33.517   6.124  46.475  1.00  0.00     0.029 A 
ENDBRANCH  15  21
ENDBRANCH  12  15
BRANCH   1  27
HETATM   27  C2  UNL     1      24.289   8.059  46.688  1.00  0.00     0.098 C 
HETATM   28  C1  UNL     1      23.563   9.120  47.463  1.00  0.00     0.014 C 
ENDBRANCH   1  27
TORSDOF 6
ENDMDL
MODEL 8
REMARK VINA RESULT:      -6.2      3.251      7.201
REMARK  6 active torsions:
REMARK  status: ('A' for Active; 'I' for Inactive)
REMARK    1  A    between atoms: C2_2  and  C3_3 
REMARK       I    between atoms: C3_3  and  N1_5 
REMARK    2  A    between atoms: C10_14  and  N3_15 
REMARK    3  A    between atoms: N3_15  and  C11_16 
REMARK    4  A    between atoms: N3_15  and  C12_19 
REMARK    5  A    between atoms: C11_16  and  O2_17 
REMARK    6  A    between atoms: O2_17  and  N4_18 
ROOT
HETATM    1  C3  UNL     1      21.737   4.560  46.055  1.00  0.00     0.219 C 
HETATM    2  O1  UNL     1      21.508   3.440  45.526  1.00  0.00    -0.273 OA
HETATM    3  N1  UNL     1      22.309   4.351  47.344  1.00  0.00    -0.347 N 
HETATM    4  C4  UNL     1      22.415   2.943  47.572  1.00  0.00     0.131 C 
HETATM    5  C5  UNL     1      23.160   2.614  48.856  1.00  0.00     0.060 C 
HETATM    6  C6  UNL     1      22.872   3.703  49.813  1.00  0.00    -0.032 C 
HETATM    7  C7  UNL     1      22.641   5.040  49.596  1.00  0.00     0.014 C 
HETATM    8  C8  UNL     1      22.661   5.498  48.152  1.00  0.00     0.173 C 
HETATM    9  S1  UNL     1      22.361   5.881  51.211  1.00  0.00    -0.070 SA
HETATM   10  N2  UNL     1      23.657   5.668  52.147  1.00  0.00    -0.258 NA
HETATM   11  C9  UNL     1      23.793   4.535  53.067  1.00  0.00     0.215 C 
HETATM   12  C10 UNL     1      23.720   3.263  52.217  1.00  0.00     0.042 C 
HETATM   13  C18 UNL     1      22.789   3.669  51.312  1.00  0.00    -0.016 C 
HETATM   14  C19 UNL     1      21.459   4.329  51.751  1.00  0.00     0.132 C 
ENDROOT
BRANCH  12  15
HETATM   15  N3  UNL     1      24.182   1.933  51.946  1.00  0.00    -0.325 N 
BRANCH  15  16
HETATM   16  C11 UNL     1      25.444   1.705  51.266  1.00  0.00     0.324 C 
BRANCH  16  17
HETATM   17  O2  UNL     1      26.206   2.853  51.123  1.00  0.00    -0.288 OA
BRANCH  17  18
HETATM   18  N4  UNL     1      27.385   2.858  51.716  1.00  0.00    -0.213 NA
HETATM   19  H16 UNL     1      27.557   3.578  52.432  1.00  0.00     0.150 HD
HETATM   20  H17 UNL     1      28.148   2.885  51.015  1.00  0.00     0.150 HD
ENDBRANCH  17  18
ENDBRANCH  16  17
ENDBRANCH  15  16
BRANCH  15  21
HETATM   21  C12 UNL     1      23.211   0.979  52.428  1.00  0.00     0.036 A 
HETATM   22  C13 UNL     1      21.983   0.691  51.857  1.00  0.00     0.029 A 
HETATM   23  C14 UNL     1      21.143  -0.247  52.406  1.00  0.00     0.002 A 
HETATM   24  C15 UNL     1      21.453  -0.943  53.528  1.00  0.00     0.000 A 
HETATM   25  C16 UNL     1      22.659  -0.711  54.154  1.00  0.00     0.002 A 
HETATM   26  C17 UNL     1      23.477   0.236  53.575  1.00  0.00     0.029 A 
ENDBRANCH  15  21
ENDBRANCH  12  15
BRANCH   1  27
HETATM   27  C2  UNL     1      21.505   5.958  45.545  1.00  0.00     0.098 C 
HETATM   28  C1  UNL     1      21.539   5.956  44.044  1.00  0.00     0.014 C 
ENDBRANCH   1  27
TORSDOF 6
ENDMDL
MODEL 9
REMARK VINA RESULT:      -5.9     10.670     13.200
REMARK  6 active torsions:
REMARK  status: ('A' for Active; 'I' for Inactive)
REMARK    1  A    between atoms: C2_2  and  C3_3 
REMARK       I    between atoms: C3_3  and  N1_5 
REMARK    2  A    between atoms: C10_14  and  N3_15 
REMARK    3  A    between atoms: N3_15  and  C11_16 
REMARK    4  A    between atoms: N3_15  and  C12_19 
REMARK    5  A    between atoms: C11_16  and  O2_17 
REMARK    6  A    between atoms: O2_17  and  N4_18 
ROOT
HETATM    1  C3  UNL     1      27.195   8.048  47.226  1.00  0.00     0.219 C 
HETATM    2  O1  UNL     1      26.766   8.313  46.072  1.00  0.00    -0.273 OA
HETATM    3  N1  UNL     1      28.613   7.918  47.170  1.00  0.00    -0.347 N 
HETATM    4  C4  UNL     1      29.038   8.136  45.821  1.00  0.00     0.131 C 
HETATM    5  C5  UNL     1      30.551   8.175  45.685  1.00  0.00     0.060 C 
HETATM    6  C6  UNL     1      31.102   7.262  46.708  1.00  0.00    -0.032 C 
HETATM    7  C7  UNL     1      30.634   6.945  47.962  1.00  0.00     0.014 C 
HETATM    8  C8  UNL     1      29.340   7.612  48.382  1.00  0.00     0.173 C 
HETATM    9  S1  UNL     1      31.787   5.749  48.759  1.00  0.00    -0.070 SA
HETATM   10  N2  UNL     1      33.255   6.412  48.845  1.00  0.00    -0.258 NA
HETATM   11  C9  UNL     1      34.257   6.257  47.786  1.00  0.00     0.215 C 
HETATM   12  C10 UNL     1      33.646   6.844  46.509  1.00  0.00     0.042 C 
HETATM   13  C18 UNL     1      32.359   6.441  46.690  1.00  0.00    -0.016 C 
HETATM   14  C19 UNL     1      32.005   4.982  47.063  1.00  0.00     0.132 C 
ENDROOT
BRANCH  12  15
HETATM   15  N3  UNL     1      33.804   7.601  45.301  1.00  0.00    -0.325 N 
BRANCH  15  16
HETATM   16  C11 UNL     1      34.120   9.016  45.344  1.00  0.00     0.324 C 
BRANCH  16  17
HETATM   17  O2  UNL     1      35.376   9.284  45.863  1.00  0.00    -0.288 OA
BRANCH  17  18
HETATM   18  N4  UNL     1      36.336   9.535  44.991  1.00  0.00    -0.213 NA
HETATM   19  H16 UNL     1      36.844   8.731  44.597  1.00  0.00     0.150 HD
HETATM   20  H17 UNL     1      37.016  10.212  45.380  1.00  0.00     0.150 HD
ENDBRANCH  17  18
ENDBRANCH  16  17
ENDBRANCH  15  16
BRANCH  15  21
HETATM   21  C12 UNL     1      33.581   6.741  44.163  1.00  0.00     0.036 A 
HETATM   22  C13 UNL     1      32.710   6.970  43.112  1.00  0.00     0.029 A 
HETATM   23  C14 UNL     1      32.590   6.076  42.077  1.00  0.00     0.002 A 
HETATM   24  C15 UNL     1      33.304   4.925  42.013  1.00  0.00     0.000 A 
HETATM   25  C16 UNL     1      34.193   4.627  43.024  1.00  0.00     0.002 A 
HETATM   26  C17 UNL     1      34.288   5.547  44.047  1.00  0.00     0.029 A 
ENDBRANCH  15  21
ENDBRANCH  12  15
BRANCH   1  27
HETATM   27  C2  UNL     1      26.467   7.868  48.532  1.00  0.00     0.098 C 
HETATM   28  C1  UNL     1      25.770   6.538  48.538  1.00  0.00     0.014 C 
ENDBRANCH   1  27
TORSDOF 6
ENDMDL
