MODEL 1
REMARK VINA RESULT:      -9.6      0.000      0.000
REMARK  5 active torsions:
REMARK  status: ('A' for Active; 'I' for Inactive)
REMARK    1  A    between atoms: C5_5  and  C6_6 
REMARK       I    between atoms: C6_6  and  N1_8 
REMARK    2  A    between atoms: N1_8  and  C7_9 
REMARK    3  A    between atoms: C11_13  and  N2_14 
REMARK    4  A    between atoms: N2_14  and  C12_15 
REMARK    5  A    between atoms: C15_19  and  C16_20 
ROOT
HETATM    1  C1  UNL     1      29.703  -1.070  53.818  1.00  0.00     0.045 C 
HETATM    2  C2  UNL     1      28.855   0.141  53.574  1.00  0.00    -0.062 A 
HETATM    3  C3  UNL     1      29.122   1.387  53.926  1.00  0.00     0.005 A 
HETATM    4  C4  UNL     1      28.081   2.334  53.536  1.00  0.00     0.015 A 
HETATM    5  C5  UNL     1      27.165   1.597  52.926  1.00  0.00     0.032 A 
HETATM    6  C22 UNL     1      27.545   0.177  52.886  1.00  0.00     0.160 A 
HETATM    7  C23 UNL     1      26.579  -0.568  53.702  1.00  0.00     0.073 C 
HETATM    8  N6  UNL     1      25.834  -1.166  54.347  1.00  0.00    -0.196 NA
ENDROOT
BRANCH   5   9
HETATM    9  C6  UNL     1      25.936   2.154  52.368  1.00  0.00     0.253 C 
HETATM   10  O1  UNL     1      25.716   2.090  51.119  1.00  0.00    -0.268 OA
HETATM   11  N1  UNL     1      24.958   2.779  53.186  1.00  0.00    -0.323 N 
HETATM   12  H6  UNL     1      25.178   2.811  54.206  1.00  0.00     0.169 HD
BRANCH  11  13
HETATM   13  C7  UNL     1      23.747   3.336  52.685  1.00  0.00     0.037 A 
HETATM   14  C8  UNL     1      22.644   2.523  52.528  1.00  0.00     0.029 A 
HETATM   15  C9  UNL     1      21.483   3.085  52.042  1.00  0.00     0.004 A 
HETATM   16  C10 UNL     1      21.486   4.424  51.738  1.00  0.00     0.030 A 
HETATM   17  C11 UNL     1      22.546   5.280  51.873  1.00  0.00     0.051 A 
HETATM   18  C21 UNL     1      23.680   4.671  52.362  1.00  0.00     0.059 A 
BRANCH  17  19
HETATM   19  N2  UNL     1      22.553   6.662  51.562  1.00  0.00    -0.188 N 
HETATM   20  H10 UNL     1      21.998   7.274  52.223  1.00  0.00     0.184 HD
BRANCH  19  21
HETATM   21  C12 UNL     1      23.213   7.301  50.481  1.00  0.00     0.727 A 
HETATM   22  N3  UNL     1      22.758   8.314  49.769  1.00  0.00    -0.075 NA
HETATM   23  C13 UNL     1      23.408   8.895  48.754  1.00  0.00     0.139 A 
HETATM   24  C14 UNL     1      24.637   8.433  48.396  1.00  0.00     0.053 A 
HETATM   25  C15 UNL     1      25.121   7.389  49.120  1.00  0.00     0.089 A 
HETATM   26  N5  UNL     1      24.426   6.855  50.120  1.00  0.00    -0.062 NA
BRANCH  25  27
HETATM   27  C16 UNL     1      26.424   6.826  48.815  1.00  0.00     0.011 A 
HETATM   28  C17 UNL     1      26.741   5.487  48.820  1.00  0.00     0.017 A 
HETATM   29  C18 UNL     1      27.980   4.982  48.527  1.00  0.00     0.020 A 
HETATM   30  C19 UNL     1      29.009   5.833  48.200  1.00  0.00     0.116 A 
HETATM   31  N4  UNL     1      28.734   7.170  48.185  1.00  0.00    -0.272 NA
HETATM   32  C20 UNL     1      27.509   7.633  48.476  1.00  0.00     0.130 A 
ENDBRANCH  25  27
ENDBRANCH  19  21
ENDBRANCH  17  19
ENDBRANCH  11  13
ENDBRANCH   5   9
TORSDOF 5
ENDMDL
MODEL 2
REMARK VINA RESULT:      -9.5      3.030      6.372
REMARK  5 active torsions:
REMARK  status: ('A' for Active; 'I' for Inactive)
REMARK    1  A    between atoms: C5_5  and  C6_6 
REMARK       I    between atoms: C6_6  and  N1_8 
REMARK    2  A    between atoms: N1_8  and  C7_9 
REMARK    3  A    between atoms: C11_13  and  N2_14 
REMARK    4  A    between atoms: N2_14  and  C12_15 
REMARK    5  A    between atoms: C15_19  and  C16_20 
ROOT
HETATM    1  C1  UNL     1      30.167  -0.927  53.797  1.00  0.00     0.045 C 
HETATM    2  C2  UNL     1      29.292   0.270  53.581  1.00  0.00    -0.062 A 
HETATM    3  C3  UNL     1      29.405   1.455  54.156  1.00  0.00     0.005 A 
HETATM    4  C4  UNL     1      28.385   2.407  53.722  1.00  0.00     0.015 A 
HETATM    5  C5  UNL     1      27.645   1.736  52.852  1.00  0.00     0.032 A 
HETATM    6  C22 UNL     1      28.125   0.358  52.675  1.00  0.00     0.160 A 
HETATM    7  C23 UNL     1      27.085  -0.547  53.180  1.00  0.00     0.073 C 
HETATM    8  N6  UNL     1      26.282  -1.270  53.581  1.00  0.00    -0.196 NA
ENDROOT
BRANCH   5   9
HETATM    9  C6  UNL     1      26.497   2.321  52.164  1.00  0.00     0.253 C 
HETATM   10  O1  UNL     1      25.378   2.412  52.756  1.00  0.00    -0.268 OA
HETATM   11  N1  UNL     1      26.587   2.800  50.831  1.00  0.00    -0.323 N 
HETATM   12  H6  UNL     1      27.525   2.707  50.380  1.00  0.00     0.169 HD
BRANCH  11  13
HETATM   13  C7  UNL     1      25.495   3.377  50.123  1.00  0.00     0.037 A 
HETATM   14  C8  UNL     1      25.511   4.726  49.839  1.00  0.00     0.029 A 
HETATM   15  C9  UNL     1      24.442   5.261  49.152  1.00  0.00     0.004 A 
HETATM   16  C10 UNL     1      23.417   4.423  48.787  1.00  0.00     0.030 A 
HETATM   17  C11 UNL     1      23.346   3.079  49.039  1.00  0.00     0.051 A 
HETATM   18  C21 UNL     1      24.436   2.594  49.727  1.00  0.00     0.059 A 
BRANCH  17  19
HETATM   19  N2  UNL     1      22.292   2.210  48.665  1.00  0.00    -0.188 N 
HETATM   20  H10 UNL     1      22.237   1.989  47.631  1.00  0.00     0.184 HD
BRANCH  19  21
HETATM   21  C12 UNL     1      21.320   1.614  49.510  1.00  0.00     0.727 A 
HETATM   22  N3  UNL     1      20.019   1.563  49.299  1.00  0.00    -0.075 NA
HETATM   23  C13 UNL     1      19.128   0.992  50.119  1.00  0.00     0.139 A 
HETATM   24  C14 UNL     1      19.559   0.409  51.271  1.00  0.00     0.053 A 
HETATM   25  C15 UNL     1      20.898   0.454  51.503  1.00  0.00     0.089 A 
HETATM   26  N5  UNL     1      21.733   1.036  50.648  1.00  0.00    -0.062 NA
BRANCH  25  27
HETATM   27  C16 UNL     1      21.454  -0.141  52.705  1.00  0.00     0.011 A 
HETATM   28  C17 UNL     1      22.770  -0.066  53.104  1.00  0.00     0.017 A 
HETATM   29  C18 UNL     1      23.269  -0.637  54.245  1.00  0.00     0.020 A 
HETATM   30  C19 UNL     1      22.436  -1.344  55.079  1.00  0.00     0.116 A 
HETATM   31  N4  UNL     1      21.123  -1.441  54.718  1.00  0.00    -0.272 NA
HETATM   32  C20 UNL     1      20.665  -0.870  53.594  1.00  0.00     0.130 A 
ENDBRANCH  25  27
ENDBRANCH  19  21
ENDBRANCH  17  19
ENDBRANCH  11  13
ENDBRANCH   5   9
TORSDOF 5
ENDMDL
MODEL 3
REMARK VINA RESULT:      -9.2      2.661      7.627
REMARK  5 active torsions:
REMARK  status: ('A' for Active; 'I' for Inactive)
REMARK    1  A    between atoms: C5_5  and  C6_6 
REMARK       I    between atoms: C6_6  and  N1_8 
REMARK    2  A    between atoms: N1_8  and  C7_9 
REMARK    3  A    between atoms: C11_13  and  N2_14 
REMARK    4  A    between atoms: N2_14  and  C12_15 
REMARK    5  A    between atoms: C15_19  and  C16_20 
ROOT
HETATM    1  C1  UNL     1      27.554   8.588  48.399  1.00  0.00     0.045 C 
HETATM    2  C2  UNL     1      26.616   7.620  49.051  1.00  0.00    -0.062 A 
HETATM    3  C3  UNL     1      25.954   7.788  50.184  1.00  0.00     0.005 A 
HETATM    4  C4  UNL     1      25.120   6.643  50.541  1.00  0.00     0.015 A 
HETATM    5  C5  UNL     1      25.308   5.769  49.564  1.00  0.00     0.032 A 
HETATM    6  C22 UNL     1      26.244   6.277  48.550  1.00  0.00     0.160 A 
HETATM    7  C23 UNL     1      27.442   5.430  48.581  1.00  0.00     0.073 C 
HETATM    8  N6  UNL     1      28.394   4.779  48.600  1.00  0.00    -0.196 NA
ENDROOT
BRANCH   5   9
HETATM    9  C6  UNL     1      24.652   4.466  49.523  1.00  0.00     0.253 C 
HETATM   10  O1  UNL     1      25.344   3.407  49.414  1.00  0.00    -0.268 OA
HETATM   11  N1  UNL     1      23.240   4.335  49.601  1.00  0.00    -0.323 N 
HETATM   12  H6  UNL     1      22.709   5.229  49.690  1.00  0.00     0.169 HD
BRANCH  11  13
HETATM   13  C7  UNL     1      22.559   3.085  49.565  1.00  0.00     0.037 A 
HETATM   14  C8  UNL     1      22.434   2.418  48.365  1.00  0.00     0.029 A 
HETATM   15  C9  UNL     1      21.770   1.210  48.356  1.00  0.00     0.004 A 
HETATM   16  C10 UNL     1      21.267   0.734  49.542  1.00  0.00     0.030 A 
HETATM   17  C11 UNL     1      21.361   1.350  50.762  1.00  0.00     0.051 A 
HETATM   18  C21 UNL     1      22.031   2.551  50.718  1.00  0.00     0.059 A 
BRANCH  17  19
HETATM   19  N2  UNL     1      20.844   0.863  51.988  1.00  0.00    -0.188 N 
HETATM   20  H10 UNL     1      19.827   1.093  52.170  1.00  0.00     0.184 HD
BRANCH  19  21
HETATM   21  C12 UNL     1      21.531   0.114  52.979  1.00  0.00     0.727 A 
HETATM   22  N3  UNL     1      20.986  -0.636  53.917  1.00  0.00    -0.075 NA
HETATM   23  C13 UNL     1      21.665  -1.331  54.838  1.00  0.00     0.139 A 
HETATM   24  C14 UNL     1      23.024  -1.286  54.840  1.00  0.00     0.053 A 
HETATM   25  C15 UNL     1      23.602  -0.517  53.878  1.00  0.00     0.089 A 
HETATM   26  N5  UNL     1      22.872   0.151  52.990  1.00  0.00    -0.062 NA
BRANCH  25  27
HETATM   27  C16 UNL     1      25.047  -0.406  53.799  1.00  0.00     0.011 A 
HETATM   28  C17 UNL     1      25.785  -0.340  52.639  1.00  0.00     0.017 A 
HETATM   29  C18 UNL     1      27.150  -0.235  52.591  1.00  0.00     0.020 A 
HETATM   30  C19 UNL     1      27.875  -0.188  53.758  1.00  0.00     0.116 A 
HETATM   31  N4  UNL     1      27.180  -0.251  54.931  1.00  0.00    -0.272 NA
HETATM   32  C20 UNL     1      25.842  -0.354  54.943  1.00  0.00     0.130 A 
ENDBRANCH  25  27
ENDBRANCH  19  21
ENDBRANCH  17  19
ENDBRANCH  11  13
ENDBRANCH   5   9
TORSDOF 5
ENDMDL
MODEL 4
REMARK VINA RESULT:      -8.9      3.067      5.543
REMARK  5 active torsions:
REMARK  status: ('A' for Active; 'I' for Inactive)
REMARK    1  A    between atoms: C5_5  and  C6_6 
REMARK       I    between atoms: C6_6  and  N1_8 
REMARK    2  A    between atoms: N1_8  and  C7_9 
REMARK    3  A    between atoms: C11_13  and  N2_14 
REMARK    4  A    between atoms: N2_14  and  C12_15 
REMARK    5  A    between atoms: C15_19  and  C16_20 
ROOT
HETATM    1  C1  UNL     1      22.441  -0.918  54.965  1.00  0.00     0.045 C 
HETATM    2  C2  UNL     1      22.342  -0.187  53.661  1.00  0.00    -0.062 A 
HETATM    3  C3  UNL     1      21.425  -0.349  52.722  1.00  0.00     0.005 A 
HETATM    4  C4  UNL     1      21.618   0.526  51.568  1.00  0.00     0.015 A 
HETATM    5  C5  UNL     1      22.703   1.230  51.856  1.00  0.00     0.032 A 
HETATM    6  C22 UNL     1      23.258   0.866  53.167  1.00  0.00     0.160 A 
HETATM    7  C23 UNL     1      24.575   0.259  52.944  1.00  0.00     0.073 C 
HETATM    8  N6  UNL     1      25.607  -0.229  52.784  1.00  0.00    -0.196 NA
ENDROOT
BRANCH   5   9
HETATM    9  C6  UNL     1      23.257   2.240  50.959  1.00  0.00     0.253 C 
HETATM   10  O1  UNL     1      22.979   2.215  49.721  1.00  0.00    -0.268 OA
HETATM   11  N1  UNL     1      24.114   3.270  51.429  1.00  0.00    -0.323 N 
HETATM   12  H6  UNL     1      24.318   3.255  52.453  1.00  0.00     0.169 HD
BRANCH  11  13
HETATM   13  C7  UNL     1      24.677   4.274  50.592  1.00  0.00     0.037 A 
HETATM   14  C8  UNL     1      24.015   5.473  50.436  1.00  0.00     0.029 A 
HETATM   15  C9  UNL     1      24.580   6.430  49.620  1.00  0.00     0.004 A 
HETATM   16  C10 UNL     1      25.772   6.139  49.004  1.00  0.00     0.030 A 
HETATM   17  C11 UNL     1      26.475   4.970  49.121  1.00  0.00     0.051 A 
HETATM   18  C21 UNL     1      25.870   4.048  49.945  1.00  0.00     0.059 A 
BRANCH  17  19
HETATM   19  N2  UNL     1      27.706   4.665  48.489  1.00  0.00    -0.188 N 
HETATM   20  H10 UNL     1      27.774   3.688  48.086  1.00  0.00     0.184 HD
BRANCH  19  21
HETATM   21  C12 UNL     1      28.835   5.512  48.340  1.00  0.00     0.727 A 
HETATM   22  N3  UNL     1      28.837   6.830  48.361  1.00  0.00    -0.075 NA
HETATM   23  C13 UNL     1      29.923   7.601  48.218  1.00  0.00     0.139 A 
HETATM   24  C14 UNL     1      31.137   7.015  48.034  1.00  0.00     0.053 A 
HETATM   25  C15 UNL     1      31.151   5.656  48.010  1.00  0.00     0.089 A 
HETATM   26  N5  UNL     1      30.037   4.945  48.159  1.00  0.00    -0.062 NA
BRANCH  25  27
HETATM   27  C16 UNL     1      32.400   4.939  47.820  1.00  0.00     0.011 A 
HETATM   28  C17 UNL     1      32.519   3.609  47.483  1.00  0.00     0.017 A 
HETATM   29  C18 UNL     1      33.710   2.957  47.309  1.00  0.00     0.020 A 
HETATM   30  C19 UNL     1      34.895   3.636  47.471  1.00  0.00     0.116 A 
HETATM   31  N4  UNL     1      34.819   4.957  47.806  1.00  0.00    -0.272 NA
HETATM   32  C20 UNL     1      33.635   5.567  47.969  1.00  0.00     0.130 A 
ENDBRANCH  25  27
ENDBRANCH  19  21
ENDBRANCH  17  19
ENDBRANCH  11  13
ENDBRANCH   5   9
TORSDOF 5
ENDMDL
MODEL 5
REMARK VINA RESULT:      -8.9      2.212      7.818
REMARK  5 active torsions:
REMARK  status: ('A' for Active; 'I' for Inactive)
REMARK    1  A    between atoms: C5_5  and  C6_6 
REMARK       I    between atoms: C6_6  and  N1_8 
REMARK    2  A    between atoms: N1_8  and  C7_9 
REMARK    3  A    between atoms: C11_13  and  N2_14 
REMARK    4  A    between atoms: N2_14  and  C12_15 
REMARK    5  A    between atoms: C15_19  and  C16_20 
ROOT
HETATM    1  C1  UNL     1      30.660   8.406  46.118  1.00  0.00     0.045 C 
HETATM    2  C2  UNL     1      29.431   8.425  46.975  1.00  0.00    -0.062 A 
HETATM    3  C3  UNL     1      28.980   9.433  47.703  1.00  0.00     0.005 A 
HETATM    4  C4  UNL     1      27.749   9.120  48.424  1.00  0.00     0.015 A 
HETATM    5  C5  UNL     1      27.475   7.866  48.095  1.00  0.00     0.032 A 
HETATM    6  C22 UNL     1      28.476   7.312  47.174  1.00  0.00     0.160 A 
HETATM    7  C23 UNL     1      29.177   6.228  47.872  1.00  0.00     0.073 C 
HETATM    8  N6  UNL     1      29.743   5.380  48.411  1.00  0.00    -0.196 NA
ENDROOT
BRANCH   5   9
HETATM    9  C6  UNL     1      26.309   7.147  48.602  1.00  0.00     0.253 C 
HETATM   10  O1  UNL     1      25.280   7.008  47.872  1.00  0.00    -0.268 OA
HETATM   11  N1  UNL     1      26.282   6.588  49.907  1.00  0.00    -0.323 N 
HETATM   12  H6  UNL     1      27.148   6.726  50.474  1.00  0.00     0.169 HD
BRANCH  11  13
HETATM   13  C7  UNL     1      25.168   5.881  50.441  1.00  0.00     0.037 A 
HETATM   14  C8  UNL     1      24.162   6.582  51.070  1.00  0.00     0.029 A 
HETATM   15  C9  UNL     1      23.093   5.874  51.579  1.00  0.00     0.004 A 
HETATM   16  C10 UNL     1      23.088   4.508  51.433  1.00  0.00     0.030 A 
HETATM   17  C11 UNL     1      24.056   3.760  50.819  1.00  0.00     0.051 A 
HETATM   18  C21 UNL     1      25.100   4.512  50.329  1.00  0.00     0.059 A 
BRANCH  17  19
HETATM   19  N2  UNL     1      24.055   2.351  50.665  1.00  0.00    -0.188 N 
HETATM   20  H10 UNL     1      23.914   2.008  49.674  1.00  0.00     0.184 HD
BRANCH  19  21
HETATM   21  C12 UNL     1      24.219   1.371  51.678  1.00  0.00     0.727 A 
HETATM   22  N3  UNL     1      23.261   0.802  52.384  1.00  0.00    -0.075 NA
HETATM   23  C13 UNL     1      23.451  -0.123  53.334  1.00  0.00     0.139 A 
HETATM   24  C14 UNL     1      24.716  -0.532  53.624  1.00  0.00     0.053 A 
HETATM   25  C15 UNL     1      25.714   0.045  52.904  1.00  0.00     0.089 A 
HETATM   26  N5  UNL     1      25.461   0.959  51.971  1.00  0.00    -0.062 NA
BRANCH  25  27
HETATM   27  C16 UNL     1      27.098  -0.327  53.140  1.00  0.00     0.011 A 
HETATM   28  C17 UNL     1      28.122   0.541  53.446  1.00  0.00     0.017 A 
HETATM   29  C18 UNL     1      29.420   0.163  53.665  1.00  0.00     0.020 A 
HETATM   30  C19 UNL     1      29.772  -1.164  53.582  1.00  0.00     0.116 A 
HETATM   31  N4  UNL     1      28.784  -2.056  53.280  1.00  0.00    -0.272 NA
HETATM   32  C20 UNL     1      27.521  -1.654  53.071  1.00  0.00     0.130 A 
ENDBRANCH  25  27
ENDBRANCH  19  21
ENDBRANCH  17  19
ENDBRANCH  11  13
ENDBRANCH   5   9
TORSDOF 5
ENDMDL
MODEL 6
REMARK VINA RESULT:      -8.8      3.539      6.379
REMARK  5 active torsions:
REMARK  status: ('A' for Active; 'I' for Inactive)
REMARK    1  A    between atoms: C5_5  and  C6_6 
REMARK       I    between atoms: C6_6  and  N1_8 
REMARK    2  A    between atoms: N1_8  and  C7_9 
REMARK    3  A    between atoms: C11_13  and  N2_14 
REMARK    4  A    between atoms: N2_14  and  C12_15 
REMARK    5  A    between atoms: C15_19  and  C16_20 
ROOT
HETATM    1  C1  UNL     1      16.052  -0.701  50.476  1.00  0.00     0.045 C 
HETATM    2  C2  UNL     1      17.123  -0.747  51.522  1.00  0.00    -0.062 A 
HETATM    3  C3  UNL     1      17.099  -1.420  52.661  1.00  0.00     0.005 A 
HETATM    4  C4  UNL     1      18.310  -1.249  53.459  1.00  0.00     0.015 A 
HETATM    5  C5  UNL     1      19.074  -0.436  52.744  1.00  0.00     0.032 A 
HETATM    6  C22 UNL     1      18.426  -0.045  51.484  1.00  0.00     0.160 A 
HETATM    7  C23 UNL     1      18.168   1.399  51.541  1.00  0.00     0.073 C 
HETATM    8  N6  UNL     1      17.951   2.531  51.575  1.00  0.00    -0.196 NA
ENDROOT
BRANCH   5   9
HETATM    9  C6  UNL     1      20.397   0.002  53.180  1.00  0.00     0.253 C 
HETATM   10  O1  UNL     1      20.547   0.541  54.319  1.00  0.00    -0.268 OA
HETATM   11  N1  UNL     1      21.546  -0.153  52.359  1.00  0.00    -0.323 N 
HETATM   12  H6  UNL     1      21.379  -0.600  51.430  1.00  0.00     0.169 HD
BRANCH  11  13
HETATM   13  C7  UNL     1      22.853   0.259  52.742  1.00  0.00     0.037 A 
HETATM   14  C8  UNL     1      23.649  -0.605  53.464  1.00  0.00     0.029 A 
HETATM   15  C9  UNL     1      24.911  -0.182  53.824  1.00  0.00     0.004 A 
HETATM   16  C10 UNL     1      25.309   1.076  53.446  1.00  0.00     0.030 A 
HETATM   17  C11 UNL     1      24.565   1.976  52.730  1.00  0.00     0.051 A 
HETATM   18  C21 UNL     1      23.315   1.508  52.396  1.00  0.00     0.059 A 
BRANCH  17  19
HETATM   19  N2  UNL     1      24.971   3.275  52.337  1.00  0.00    -0.188 N 
HETATM   20  H10 UNL     1      25.543   3.804  53.055  1.00  0.00     0.184 HD
BRANCH  19  21
HETATM   21  C12 UNL     1      24.700   3.931  51.108  1.00  0.00     0.727 A 
HETATM   22  N3  UNL     1      23.528   4.030  50.512  1.00  0.00    -0.075 NA
HETATM   23  C13 UNL     1      23.306   4.658  49.350  1.00  0.00     0.139 A 
HETATM   24  C14 UNL     1      24.345   5.252  48.704  1.00  0.00     0.053 A 
HETATM   25  C15 UNL     1      25.560   5.159  49.306  1.00  0.00     0.089 A 
HETATM   26  N5  UNL     1      25.717   4.521  50.462  1.00  0.00    -0.062 NA
BRANCH  25  27
HETATM   27  C16 UNL     1      26.731   5.761  48.693  1.00  0.00     0.011 A 
HETATM   28  C17 UNL     1      27.966   5.166  48.563  1.00  0.00     0.017 A 
HETATM   29  C18 UNL     1      29.054   5.757  47.979  1.00  0.00     0.020 A 
HETATM   30  C19 UNL     1      28.955   7.032  47.474  1.00  0.00     0.116 A 
HETATM   31  N4  UNL     1      27.746   7.657  47.585  1.00  0.00    -0.272 NA
HETATM   32  C20 UNL     1      26.698   7.050  48.162  1.00  0.00     0.130 A 
ENDBRANCH  25  27
ENDBRANCH  19  21
ENDBRANCH  17  19
ENDBRANCH  11  13
ENDBRANCH   5   9
TORSDOF 5
ENDMDL
MODEL 7
REMARK VINA RESULT:      -8.7      3.163      8.609
REMARK  5 active torsions:
REMARK  status: ('A' for Active; 'I' for Inactive)
REMARK    1  A    between atoms: C5_5  and  C6_6 
REMARK       I    between atoms: C6_6  and  N1_8 
REMARK    2  A    between atoms: N1_8  and  C7_9 
REMARK    3  A    between atoms: C11_13  and  N2_14 
REMARK    4  A    between atoms: N2_14  and  C12_15 
REMARK    5  A    between atoms: C15_19  and  C16_20 
ROOT
HETATM    1  C1  UNL     1      32.795  11.450  47.188  1.00  0.00     0.045 C 
HETATM    2  C2  UNL     1      31.468  11.236  47.849  1.00  0.00    -0.062 A 
HETATM    3  C3  UNL     1      30.747  12.131  48.502  1.00  0.00     0.005 A 
HETATM    4  C4  UNL     1      29.494  11.594  49.027  1.00  0.00     0.015 A 
HETATM    5  C5  UNL     1      29.492  10.321  48.659  1.00  0.00     0.032 A 
HETATM    6  C22 UNL     1      30.700   9.971  47.898  1.00  0.00     0.160 A 
HETATM    7  C23 UNL     1      31.465   9.003  48.693  1.00  0.00     0.073 C 
HETATM    8  N6  UNL     1      32.082   8.249  49.310  1.00  0.00    -0.196 NA
ENDROOT
BRANCH   5   9
HETATM    9  C6  UNL     1      28.405   9.401  48.981  1.00  0.00     0.253 C 
HETATM   10  O1  UNL     1      27.946   9.346  50.163  1.00  0.00    -0.268 OA
HETATM   11  N1  UNL     1      27.832   8.545  48.003  1.00  0.00    -0.323 N 
HETATM   12  H6  UNL     1      28.239   8.621  47.044  1.00  0.00     0.169 HD
BRANCH  11  13
HETATM   13  C7  UNL     1      26.774   7.633  48.273  1.00  0.00     0.037 A 
HETATM   14  C8  UNL     1      25.469   8.071  48.195  1.00  0.00     0.029 A 
HETATM   15  C9  UNL     1      24.460   7.169  48.461  1.00  0.00     0.004 A 
HETATM   16  C10 UNL     1      24.808   5.882  48.791  1.00  0.00     0.030 A 
HETATM   17  C11 UNL     1      26.083   5.390  48.884  1.00  0.00     0.051 A 
HETATM   18  C21 UNL     1      27.052   6.329  48.609  1.00  0.00     0.059 A 
BRANCH  17  19
HETATM   19  N2  UNL     1      26.447   4.064  49.223  1.00  0.00    -0.188 N 
HETATM   20  H10 UNL     1      27.287   3.682  48.704  1.00  0.00     0.184 HD
BRANCH  19  21
HETATM   21  C12 UNL     1      25.820   3.210  50.167  1.00  0.00     0.727 A 
HETATM   22  N3  UNL     1      24.540   2.896  50.214  1.00  0.00    -0.075 NA
HETATM   23  C13 UNL     1      23.979   2.084  51.120  1.00  0.00     0.139 A 
HETATM   24  C14 UNL     1      24.757   1.521  52.083  1.00  0.00     0.053 A 
HETATM   25  C15 UNL     1      26.080   1.834  52.048  1.00  0.00     0.089 A 
HETATM   26  N5  UNL     1      26.577   2.648  51.121  1.00  0.00    -0.062 NA
BRANCH  25  27
HETATM   27  C16 UNL     1      26.991   1.282  53.034  1.00  0.00     0.011 A 
HETATM   28  C17 UNL     1      28.302   1.660  53.217  1.00  0.00     0.017 A 
HETATM   29  C18 UNL     1      29.141   1.123  54.156  1.00  0.00     0.020 A 
HETATM   30  C19 UNL     1      28.687   0.134  54.997  1.00  0.00     0.116 A 
HETATM   31  N4  UNL     1      27.392  -0.270  54.846  1.00  0.00    -0.272 NA
HETATM   32  C20 UNL     1      26.595   0.277  53.916  1.00  0.00     0.130 A 
ENDBRANCH  25  27
ENDBRANCH  19  21
ENDBRANCH  17  19
ENDBRANCH  11  13
ENDBRANCH   5   9
TORSDOF 5
ENDMDL
MODEL 8
REMARK VINA RESULT:      -8.6      2.804      5.619
REMARK  5 active torsions:
REMARK  status: ('A' for Active; 'I' for Inactive)
REMARK    1  A    between atoms: C5_5  and  C6_6 
REMARK       I    between atoms: C6_6  and  N1_8 
REMARK    2  A    between atoms: N1_8  and  C7_9 
REMARK    3  A    between atoms: C11_13  and  N2_14 
REMARK    4  A    between atoms: N2_14  and  C12_15 
REMARK    5  A    between atoms: C15_19  and  C16_20 
ROOT
HETATM    1  C1  UNL     1      23.291  -0.979  54.275  1.00  0.00     0.045 C 
HETATM    2  C2  UNL     1      23.219   0.093  53.231  1.00  0.00    -0.062 A 
HETATM    3  C3  UNL     1      22.293   0.237  52.297  1.00  0.00     0.005 A 
HETATM    4  C4  UNL     1      22.519   1.393  51.433  1.00  0.00     0.015 A 
HETATM    5  C5  UNL     1      23.632   1.946  51.892  1.00  0.00     0.032 A 
HETATM    6  C22 UNL     1      24.175   1.207  53.041  1.00  0.00     0.160 A 
HETATM    7  C23 UNL     1      25.466   0.636  52.637  1.00  0.00     0.073 C 
HETATM    8  N6  UNL     1      26.477   0.174  52.332  1.00  0.00    -0.196 NA
ENDROOT
BRANCH   5   9
HETATM    9  C6  UNL     1      24.225   3.146  51.309  1.00  0.00     0.253 C 
HETATM   10  O1  UNL     1      24.154   4.255  51.922  1.00  0.00    -0.268 OA
HETATM   11  N1  UNL     1      24.890   3.119  50.054  1.00  0.00    -0.323 N 
HETATM   12  H6  UNL     1      24.926   2.188  49.583  1.00  0.00     0.169 HD
BRANCH  11  13
HETATM   13  C7  UNL     1      25.481   4.264  49.448  1.00  0.00     0.037 A 
HETATM   14  C8  UNL     1      24.696   5.363  49.172  1.00  0.00     0.029 A 
HETATM   15  C9  UNL     1      25.292   6.459  48.585  1.00  0.00     0.004 A 
HETATM   16  C10 UNL     1      26.635   6.399  48.306  1.00  0.00     0.030 A 
HETATM   17  C11 UNL     1      27.464   5.339  48.558  1.00  0.00     0.051 A 
HETATM   18  C21 UNL     1      26.822   4.271  49.144  1.00  0.00     0.059 A 
BRANCH  17  19
HETATM   19  N2  UNL     1      28.850   5.272  48.274  1.00  0.00    -0.188 N 
HETATM   20  H10 UNL     1      29.153   4.431  47.707  1.00  0.00     0.184 HD
BRANCH  19  21
HETATM   21  C12 UNL     1      29.857   6.195  48.659  1.00  0.00     0.727 A 
HETATM   22  N3  UNL     1      31.091   5.906  49.026  1.00  0.00    -0.075 NA
HETATM   23  C13 UNL     1      32.018   6.803  49.383  1.00  0.00     0.139 A 
HETATM   24  C14 UNL     1      31.701   8.126  49.383  1.00  0.00     0.053 A 
HETATM   25  C15 UNL     1      30.433   8.441  49.007  1.00  0.00     0.089 A 
HETATM   26  N5  UNL     1      29.557   7.502  48.662  1.00  0.00    -0.062 NA
BRANCH  25  27
HETATM   27  C16 UNL     1      30.001   9.827  48.975  1.00  0.00     0.011 A 
HETATM   28  C17 UNL     1      28.715  10.261  48.743  1.00  0.00     0.017 A 
HETATM   29  C18 UNL     1      28.333  11.576  48.717  1.00  0.00     0.020 A 
HETATM   30  C19 UNL     1      29.263  12.565  48.934  1.00  0.00     0.116 A 
HETATM   31  N4  UNL     1      30.550  12.174  49.167  1.00  0.00    -0.272 NA
HETATM   32  C20 UNL     1      30.892  10.877  49.186  1.00  0.00     0.130 A 
ENDBRANCH  25  27
ENDBRANCH  19  21
ENDBRANCH  17  19
ENDBRANCH  11  13
ENDBRANCH   5   9
TORSDOF 5
ENDMDL
MODEL 9
REMARK VINA RESULT:      -8.6      2.165      3.432
REMARK  5 active torsions:
REMARK  status: ('A' for Active; 'I' for Inactive)
REMARK    1  A    between atoms: C5_5  and  C6_6 
REMARK       I    between atoms: C6_6  and  N1_8 
REMARK    2  A    between atoms: N1_8  and  C7_9 
REMARK    3  A    between atoms: C11_13  and  N2_14 
REMARK    4  A    between atoms: N2_14  and  C12_15 
REMARK    5  A    between atoms: C15_19  and  C16_20 
ROOT
HETATM    1  C1  UNL     1      26.322   0.018  55.061  1.00  0.00     0.045 C 
HETATM    2  C2  UNL     1      25.573   0.650  53.929  1.00  0.00    -0.062 A 
HETATM    3  C3  UNL     1      24.679   0.075  53.143  1.00  0.00     0.005 A 
HETATM    4  C4  UNL     1      24.133   0.976  52.131  1.00  0.00     0.015 A 
HETATM    5  C5  UNL     1      24.744   2.132  52.343  1.00  0.00     0.032 A 
HETATM    6  C22 UNL     1      25.688   2.052  53.467  1.00  0.00     0.160 A 
HETATM    7  C23 UNL     1      27.041   2.246  52.930  1.00  0.00     0.073 C 
HETATM    8  N6  UNL     1      28.110   2.388  52.523  1.00  0.00    -0.196 NA
ENDROOT
BRANCH   5   9
HETATM    9  C6  UNL     1      24.489   3.327  51.543  1.00  0.00     0.253 C 
HETATM   10  O1  UNL     1      24.790   3.344  50.310  1.00  0.00    -0.268 OA
HETATM   11  N1  UNL     1      23.906   4.494  52.104  1.00  0.00    -0.323 N 
HETATM   12  H6  UNL     1      23.674   4.438  53.120  1.00  0.00     0.169 HD
BRANCH  11  13
HETATM   13  C7  UNL     1      23.641   5.679  51.362  1.00  0.00     0.037 A 
HETATM   14  C8  UNL     1      22.465   5.781  50.648  1.00  0.00     0.029 A 
HETATM   15  C9  UNL     1      22.231   6.938  49.938  1.00  0.00     0.004 A 
HETATM   16  C10 UNL     1      23.180   7.930  49.977  1.00  0.00     0.030 A 
HETATM   17  C11 UNL     1      24.362   7.888  50.667  1.00  0.00     0.051 A 
HETATM   18  C21 UNL     1      24.549   6.712  51.359  1.00  0.00     0.059 A 
BRANCH  17  19
HETATM   19  N2  UNL     1      25.344   8.908  50.711  1.00  0.00    -0.188 N 
HETATM   20  H10 UNL     1      25.341   9.496  51.591  1.00  0.00     0.184 HD
BRANCH  19  21
HETATM   21  C12 UNL     1      26.312   9.220  49.722  1.00  0.00     0.727 A 
HETATM   22  N3  UNL     1      26.440  10.365  49.080  1.00  0.00    -0.075 NA
HETATM   23  C13 UNL     1      27.368  10.627  48.150  1.00  0.00     0.139 A 
HETATM   24  C14 UNL     1      28.265   9.662  47.813  1.00  0.00     0.053 A 
HETATM   25  C15 UNL     1      28.147   8.475  48.466  1.00  0.00     0.089 A 
HETATM   26  N5  UNL     1      27.203   8.276  49.382  1.00  0.00    -0.062 NA
BRANCH  25  27
HETATM   27  C16 UNL     1      29.059   7.384  48.175  1.00  0.00     0.011 A 
HETATM   28  C17 UNL     1      30.344   7.516  47.699  1.00  0.00     0.017 A 
HETATM   29  C18 UNL     1      31.185   6.469  47.433  1.00  0.00     0.020 A 
HETATM   30  C19 UNL     1      30.760   5.178  47.641  1.00  0.00     0.116 A 
HETATM   31  N4  UNL     1      29.491   5.004  48.112  1.00  0.00    -0.272 NA
HETATM   32  C20 UNL     1      28.691   6.052  48.363  1.00  0.00     0.130 A 
ENDBRANCH  25  27
ENDBRANCH  19  21
ENDBRANCH  17  19
ENDBRANCH  11  13
ENDBRANCH   5   9
TORSDOF 5
ENDMDL
