MODEL 1
REMARK VINA RESULT:      -7.5      0.000      0.000
REMARK  8 active torsions:
REMARK  status: ('A' for Active; 'I' for Inactive)
REMARK    1  A    between atoms: C7_10  and  N3_11 
REMARK    2  A    between atoms: N3_11  and  C8_12 
REMARK    3  A    between atoms: C8_12  and  C9_13 
REMARK    4  A    between atoms: C9_13  and  C10_14 
REMARK    5  A    between atoms: C10_14  and  C11_15 
REMARK    6  A    between atoms: C11_15  and  C12_16 
REMARK    7  A    between atoms: C12_16  and  C13_17 
REMARK    8  A    between atoms: C13_17  and  N4_18 
ROOT
HETATM    1  C1  UNL     1      20.613  -0.039  53.712  1.00  0.00     0.020 C 
HETATM    2  C2  UNL     1      21.911  -0.281  53.785  1.00  0.00    -0.050 A 
HETATM    3  C3  UNL     1      23.078  -0.797  54.607  1.00  0.00    -0.021 A 
HETATM    4  C4  UNL     1      23.934  -1.306  55.517  1.00  0.00     0.152 C 
HETATM    5  O1  UNL     1      25.307  -1.358  55.163  1.00  0.00    -0.303 OA
HETATM    6  C5  UNL     1      26.019  -0.258  54.622  1.00  0.00     0.180 A 
HETATM    7  N1  UNL     1      27.303  -0.236  55.014  1.00  0.00    -0.217 NA
HETATM    8  C6  UNL     1      28.135   0.734  54.604  1.00  0.00     0.238 A 
HETATM    9  N2  UNL     1      27.640   1.677  53.793  1.00  0.00    -0.224 NA
HETATM   10  C7  UNL     1      26.381   1.689  53.386  1.00  0.00     0.135 A 
HETATM   11  C14 UNL     1      25.463   0.709  53.774  1.00  0.00     0.042 A 
HETATM   12  C15 UNL     1      24.123   0.942  53.176  1.00  0.00     0.061 C 
HETATM   13  C16 UNL     1      23.300  -0.302  53.272  1.00  0.00     0.058 A 
ENDROOT
BRANCH  10  14
HETATM   14  N3  UNL     1      26.004   2.789  52.530  1.00  0.00    -0.371 N 
HETATM   15  H5  UNL     1      25.471   3.652  52.772  1.00  0.00     0.161 HD
BRANCH  14  16
HETATM   16  C8  UNL     1      26.389   2.779  51.112  1.00  0.00     0.148 C 
BRANCH  16  17
HETATM   17  C9  UNL     1      25.416   3.570  50.310  1.00  0.00    -0.007 C 
BRANCH  17  18
HETATM   18  C10 UNL     1      25.858   4.387  49.340  1.00  0.00     0.006 C 
BRANCH  18  19
HETATM   19  C11 UNL     1      27.234   4.342  48.907  1.00  0.00     0.057 C 
BRANCH  19  20
HETATM   20  C12 UNL     1      27.797   5.467  48.536  1.00  0.00    -0.112 C 
BRANCH  20  21
HETATM   21  C13 UNL     1      28.175   6.720  48.321  1.00  0.00     0.137 C 
BRANCH  21  22
HETATM   22  N4  UNL     1      27.886   7.665  49.342  1.00  0.00    -0.402 N 
HETATM   23  H12 UNL     1      27.711   8.679  49.159  1.00  0.00     0.156 HD
HETATM   24  H13 UNL     1      27.774   7.678  50.396  1.00  0.00     0.156 HD
ENDBRANCH  21  22
ENDBRANCH  20  21
ENDBRANCH  19  20
ENDBRANCH  18  19
ENDBRANCH  17  18
ENDBRANCH  16  17
ENDBRANCH  14  16
ENDBRANCH  10  14
TORSDOF 8
ENDMDL
MODEL 2
REMARK VINA RESULT:      -7.4      1.836      2.537
REMARK  8 active torsions:
REMARK  status: ('A' for Active; 'I' for Inactive)
REMARK    1  A    between atoms: C7_10  and  N3_11 
REMARK    2  A    between atoms: N3_11  and  C8_12 
REMARK    3  A    between atoms: C8_12  and  C9_13 
REMARK    4  A    between atoms: C9_13  and  C10_14 
REMARK    5  A    between atoms: C10_14  and  C11_15 
REMARK    6  A    between atoms: C11_15  and  C12_16 
REMARK    7  A    between atoms: C12_16  and  C13_17 
REMARK    8  A    between atoms: C13_17  and  N4_18 
ROOT
HETATM    1  C1  UNL     1      20.554   0.009  53.475  1.00  0.00     0.020 C 
HETATM    2  C2  UNL     1      21.842  -0.254  53.614  1.00  0.00    -0.050 A 
HETATM    3  C3  UNL     1      22.960  -0.769  54.501  1.00  0.00    -0.021 A 
HETATM    4  C4  UNL     1      23.764  -1.267  55.463  1.00  0.00     0.152 C 
HETATM    5  O1  UNL     1      25.151  -1.354  55.173  1.00  0.00    -0.303 OA
HETATM    6  C5  UNL     1      25.908  -0.283  54.636  1.00  0.00     0.180 A 
HETATM    7  N1  UNL     1      27.174  -0.273  55.085  1.00  0.00    -0.217 NA
HETATM    8  C6  UNL     1      28.042   0.669  54.686  1.00  0.00     0.238 A 
HETATM    9  N2  UNL     1      27.602   1.598  53.828  1.00  0.00    -0.224 NA
HETATM   10  C7  UNL     1      26.363   1.622  53.365  1.00  0.00     0.135 A 
HETATM   11  C14 UNL     1      25.410   0.669  53.737  1.00  0.00     0.042 A 
HETATM   12  C15 UNL     1      24.102   0.910  53.073  1.00  0.00     0.061 C 
HETATM   13  C16 UNL     1      23.252  -0.316  53.165  1.00  0.00     0.058 A 
ENDROOT
BRANCH  10  14
HETATM   14  N3  UNL     1      26.047   2.703  52.462  1.00  0.00    -0.371 N 
HETATM   15  H5  UNL     1      25.451   3.543  52.632  1.00  0.00     0.161 HD
BRANCH  14  16
HETATM   16  C8  UNL     1      26.601   2.709  51.102  1.00  0.00     0.148 C 
BRANCH  16  17
HETATM   17  C9  UNL     1      25.755   3.544  50.206  1.00  0.00    -0.007 C 
BRANCH  17  18
HETATM   18  C10 UNL     1      24.522   3.127  49.872  1.00  0.00     0.006 C 
BRANCH  18  19
HETATM   19  C11 UNL     1      23.383   4.000  50.018  1.00  0.00     0.057 C 
BRANCH  19  20
HETATM   20  C12 UNL     1      23.031   4.350  51.232  1.00  0.00    -0.112 C 
BRANCH  20  21
HETATM   21  C13 UNL     1      22.935   4.639  52.523  1.00  0.00     0.137 C 
BRANCH  21  22
HETATM   22  N4  UNL     1      23.898   5.538  53.056  1.00  0.00    -0.402 N 
HETATM   23  H12 UNL     1      24.840   5.695  52.631  1.00  0.00     0.156 HD
HETATM   24  H13 UNL     1      23.986   6.207  53.874  1.00  0.00     0.156 HD
ENDBRANCH  21  22
ENDBRANCH  20  21
ENDBRANCH  19  20
ENDBRANCH  18  19
ENDBRANCH  17  18
ENDBRANCH  16  17
ENDBRANCH  14  16
ENDBRANCH  10  14
TORSDOF 8
ENDMDL
MODEL 3
REMARK VINA RESULT:      -7.2      2.570      4.149
REMARK  8 active torsions:
REMARK  status: ('A' for Active; 'I' for Inactive)
REMARK    1  A    between atoms: C7_10  and  N3_11 
REMARK    2  A    between atoms: N3_11  and  C8_12 
REMARK    3  A    between atoms: C8_12  and  C9_13 
REMARK    4  A    between atoms: C9_13  and  C10_14 
REMARK    5  A    between atoms: C10_14  and  C11_15 
REMARK    6  A    between atoms: C11_15  and  C12_16 
REMARK    7  A    between atoms: C12_16  and  C13_17 
REMARK    8  A    between atoms: C13_17  and  N4_18 
ROOT
HETATM    1  C1  UNL     1      29.854  -0.576  53.611  1.00  0.00     0.020 C 
HETATM    2  C2  UNL     1      28.599  -0.173  53.505  1.00  0.00    -0.050 A 
HETATM    3  C3  UNL     1      27.146  -0.543  53.275  1.00  0.00    -0.021 A 
HETATM    4  C4  UNL     1      25.944  -1.115  53.058  1.00  0.00     0.152 C 
HETATM    5  O1  UNL     1      24.815  -0.258  52.995  1.00  0.00    -0.303 OA
HETATM    6  C5  UNL     1      24.766   0.917  52.204  1.00  0.00     0.180 A 
HETATM    7  N1  UNL     1      23.537   1.158  51.718  1.00  0.00    -0.217 NA
HETATM    8  C6  UNL     1      23.297   2.228  50.944  1.00  0.00     0.238 A 
HETATM    9  N2  UNL     1      24.323   3.044  50.673  1.00  0.00    -0.224 NA
HETATM   10  C7  UNL     1      25.547   2.839  51.133  1.00  0.00     0.135 A 
HETATM   11  C14 UNL     1      25.865   1.747  51.945  1.00  0.00     0.042 A 
HETATM   12  C15 UNL     1      27.299   1.750  52.334  1.00  0.00     0.061 C 
HETATM   13  C16 UNL     1      27.513   0.833  53.495  1.00  0.00     0.058 A 
ENDROOT
BRANCH  10  14
HETATM   14  N3  UNL     1      26.542   3.804  50.729  1.00  0.00    -0.371 N 
HETATM   15  H5  UNL     1      27.098   4.457  51.324  1.00  0.00     0.161 HD
BRANCH  14  16
HETATM   16  C8  UNL     1      26.889   3.949  49.309  1.00  0.00     0.148 C 
BRANCH  16  17
HETATM   17  C9  UNL     1      26.695   5.359  48.874  1.00  0.00    -0.007 C 
BRANCH  17  18
HETATM   18  C10 UNL     1      27.732   6.054  48.378  1.00  0.00     0.006 C 
BRANCH  18  19
HETATM   19  C11 UNL     1      29.002   5.412  48.136  1.00  0.00     0.057 C 
BRANCH  19  20
HETATM   20  C12 UNL     1      30.080   5.991  48.606  1.00  0.00    -0.112 C 
BRANCH  20  21
HETATM   21  C13 UNL     1      31.285   6.329  49.045  1.00  0.00     0.137 C 
BRANCH  21  22
HETATM   22  N4  UNL     1      31.383   7.531  49.798  1.00  0.00    -0.402 N 
HETATM   23  H12 UNL     1      32.229   7.799  50.351  1.00  0.00     0.156 HD
HETATM   24  H13 UNL     1      30.782   8.376  50.017  1.00  0.00     0.156 HD
ENDBRANCH  21  22
ENDBRANCH  20  21
ENDBRANCH  19  20
ENDBRANCH  18  19
ENDBRANCH  17  18
ENDBRANCH  16  17
ENDBRANCH  14  16
ENDBRANCH  10  14
TORSDOF 8
ENDMDL
MODEL 4
REMARK VINA RESULT:      -7.0      2.176      3.805
REMARK  8 active torsions:
REMARK  status: ('A' for Active; 'I' for Inactive)
REMARK    1  A    between atoms: C7_10  and  N3_11 
REMARK    2  A    between atoms: N3_11  and  C8_12 
REMARK    3  A    between atoms: C8_12  and  C9_13 
REMARK    4  A    between atoms: C9_13  and  C10_14 
REMARK    5  A    between atoms: C10_14  and  C11_15 
REMARK    6  A    between atoms: C11_15  and  C12_16 
REMARK    7  A    between atoms: C12_16  and  C13_17 
REMARK    8  A    between atoms: C13_17  and  N4_18 
ROOT
HETATM    1  C1  UNL     1      29.390   0.579  53.901  1.00  0.00     0.020 C 
HETATM    2  C2  UNL     1      28.068   0.559  53.920  1.00  0.00    -0.050 A 
HETATM    3  C3  UNL     1      26.791  -0.225  53.683  1.00  0.00    -0.021 A 
HETATM    4  C4  UNL     1      25.817  -1.117  53.410  1.00  0.00     0.152 C 
HETATM    5  O1  UNL     1      24.474  -0.680  53.552  1.00  0.00    -0.303 OA
HETATM    6  C5  UNL     1      23.979   0.526  52.995  1.00  0.00     0.180 A 
HETATM    7  N1  UNL     1      22.696   0.425  52.611  1.00  0.00    -0.217 NA
HETATM    8  C6  UNL     1      22.055   1.467  52.059  1.00  0.00     0.238 A 
HETATM    9  N2  UNL     1      22.740   2.608  51.904  1.00  0.00    -0.224 NA
HETATM   10  C7  UNL     1      24.004   2.744  52.270  1.00  0.00     0.135 A 
HETATM   11  C14 UNL     1      24.728   1.701  52.851  1.00  0.00     0.042 A 
HETATM   12  C15 UNL     1      26.119   2.111  53.178  1.00  0.00     0.061 C 
HETATM   13  C16 UNL     1      26.723   1.139  54.140  1.00  0.00     0.058 A 
ENDROOT
BRANCH  10  14
HETATM   14  N3  UNL     1      24.599   4.035  52.014  1.00  0.00    -0.371 N 
HETATM   15  H5  UNL     1      24.999   4.716  52.695  1.00  0.00     0.161 HD
BRANCH  14  16
HETATM   16  C8  UNL     1      24.703   4.533  50.636  1.00  0.00     0.148 C 
BRANCH  16  17
HETATM   17  C9  UNL     1      25.508   3.592  49.809  1.00  0.00    -0.007 C 
BRANCH  17  18
HETATM   18  C10 UNL     1      26.756   3.928  49.439  1.00  0.00     0.006 C 
BRANCH  18  19
HETATM   19  C11 UNL     1      27.018   5.186  48.782  1.00  0.00     0.057 C 
BRANCH  19  20
HETATM   20  C12 UNL     1      28.238   5.414  48.360  1.00  0.00    -0.112 C 
BRANCH  20  21
HETATM   21  C13 UNL     1      29.545   5.552  48.181  1.00  0.00     0.137 C 
BRANCH  21  22
HETATM   22  N4  UNL     1      30.282   6.140  49.244  1.00  0.00    -0.402 N 
HETATM   23  H12 UNL     1      31.044   6.841  49.101  1.00  0.00     0.156 HD
HETATM   24  H13 UNL     1      30.317   6.091  50.303  1.00  0.00     0.156 HD
ENDBRANCH  21  22
ENDBRANCH  20  21
ENDBRANCH  19  20
ENDBRANCH  18  19
ENDBRANCH  17  18
ENDBRANCH  16  17
ENDBRANCH  14  16
ENDBRANCH  10  14
TORSDOF 8
ENDMDL
MODEL 5
REMARK VINA RESULT:      -6.9      2.480      4.003
REMARK  8 active torsions:
REMARK  status: ('A' for Active; 'I' for Inactive)
REMARK    1  A    between atoms: C7_10  and  N3_11 
REMARK    2  A    between atoms: N3_11  and  C8_12 
REMARK    3  A    between atoms: C8_12  and  C9_13 
REMARK    4  A    between atoms: C9_13  and  C10_14 
REMARK    5  A    between atoms: C10_14  and  C11_15 
REMARK    6  A    between atoms: C11_15  and  C12_16 
REMARK    7  A    between atoms: C12_16  and  C13_17 
REMARK    8  A    between atoms: C13_17  and  N4_18 
ROOT
HETATM    1  C1  UNL     1      28.834  -1.806  53.077  1.00  0.00     0.020 C 
HETATM    2  C2  UNL     1      27.815  -0.979  53.241  1.00  0.00    -0.050 A 
HETATM    3  C3  UNL     1      26.315  -0.800  53.378  1.00  0.00    -0.021 A 
HETATM    4  C4  UNL     1      24.974  -0.900  53.482  1.00  0.00     0.152 C 
HETATM    5  O1  UNL     1      24.239   0.305  53.630  1.00  0.00    -0.303 OA
HETATM    6  C5  UNL     1      24.420   1.441  52.802  1.00  0.00     0.180 A 
HETATM    7  N1  UNL     1      23.277   2.117  52.601  1.00  0.00    -0.217 NA
HETATM    8  C6  UNL     1      23.251   3.222  51.841  1.00  0.00     0.238 A 
HETATM    9  N2  UNL     1      24.403   3.625  51.289  1.00  0.00    -0.224 NA
HETATM   10  C7  UNL     1      25.548   2.986  51.463  1.00  0.00     0.135 A 
HETATM   11  C14 UNL     1      25.645   1.831  52.244  1.00  0.00     0.042 A 
HETATM   12  C15 UNL     1      27.037   1.311  52.288  1.00  0.00     0.061 C 
HETATM   13  C16 UNL     1      27.184   0.349  53.423  1.00  0.00     0.058 A 
ENDROOT
BRANCH  10  14
HETATM   14  N3  UNL     1      26.692   3.542  50.781  1.00  0.00    -0.371 N 
HETATM   15  H5  UNL     1      27.583   3.903  51.187  1.00  0.00     0.161 HD
BRANCH  14  16
HETATM   16  C8  UNL     1      26.693   3.646  49.316  1.00  0.00     0.148 C 
BRANCH  16  17
HETATM   17  C9  UNL     1      27.448   4.856  48.887  1.00  0.00    -0.007 C 
BRANCH  17  18
HETATM   18  C10 UNL     1      26.790   5.902  48.361  1.00  0.00     0.006 C 
BRANCH  18  19
HETATM   19  C11 UNL     1      25.444   6.214  48.780  1.00  0.00     0.057 C 
BRANCH  19  20
HETATM   20  C12 UNL     1      25.286   6.824  49.930  1.00  0.00    -0.112 C 
BRANCH  20  21
HETATM   21  C13 UNL     1      24.867   7.471  51.009  1.00  0.00     0.137 C 
BRANCH  21  22
HETATM   22  N4  UNL     1      24.268   6.692  52.035  1.00  0.00    -0.402 N 
HETATM   23  H12 UNL     1      23.557   5.946  51.855  1.00  0.00     0.156 HD
HETATM   24  H13 UNL     1      24.313   6.608  53.091  1.00  0.00     0.156 HD
ENDBRANCH  21  22
ENDBRANCH  20  21
ENDBRANCH  19  20
ENDBRANCH  18  19
ENDBRANCH  17  18
ENDBRANCH  16  17
ENDBRANCH  14  16
ENDBRANCH  10  14
TORSDOF 8
ENDMDL
MODEL 6
REMARK VINA RESULT:      -6.9      3.230      7.535
REMARK  8 active torsions:
REMARK  status: ('A' for Active; 'I' for Inactive)
REMARK    1  A    between atoms: C7_10  and  N3_11 
REMARK    2  A    between atoms: N3_11  and  C8_12 
REMARK    3  A    between atoms: C8_12  and  C9_13 
REMARK    4  A    between atoms: C9_13  and  C10_14 
REMARK    5  A    between atoms: C10_14  and  C11_15 
REMARK    6  A    between atoms: C11_15  and  C12_16 
REMARK    7  A    between atoms: C12_16  and  C13_17 
REMARK    8  A    between atoms: C13_17  and  N4_18 
ROOT
HETATM    1  C1  UNL     1      28.802   5.567  48.205  1.00  0.00     0.020 C 
HETATM    2  C2  UNL     1      27.558   5.411  48.623  1.00  0.00    -0.050 A 
HETATM    3  C3  UNL     1      26.319   6.039  49.234  1.00  0.00    -0.021 A 
HETATM    4  C4  UNL     1      25.358   6.817  49.772  1.00  0.00     0.152 C 
HETATM    5  O1  UNL     1      24.126   6.197  50.103  1.00  0.00    -0.303 OA
HETATM    6  C5  UNL     1      24.029   4.994  50.847  1.00  0.00     0.180 A 
HETATM    7  N1  UNL     1      22.937   4.961  51.629  1.00  0.00    -0.217 NA
HETATM    8  C6  UNL     1      22.677   3.900  52.409  1.00  0.00     0.238 A 
HETATM    9  N2  UNL     1      23.543   2.879  52.381  1.00  0.00    -0.224 NA
HETATM   10  C7  UNL     1      24.628   2.876  51.624  1.00  0.00     0.135 A 
HETATM   11  C14 UNL     1      24.957   3.946  50.788  1.00  0.00     0.042 A 
HETATM   12  C15 UNL     1      26.215   3.693  50.039  1.00  0.00     0.061 C 
HETATM   13  C16 UNL     1      26.321   4.641  48.887  1.00  0.00     0.058 A 
ENDROOT
BRANCH  10  14
HETATM   14  N3  UNL     1      25.466   1.705  51.728  1.00  0.00    -0.371 N 
HETATM   15  H5  UNL     1      26.404   1.534  51.306  1.00  0.00     0.161 HD
BRANCH  14  16
HETATM   16  C8  UNL     1      25.019   0.552  52.522  1.00  0.00     0.148 C 
BRANCH  16  17
HETATM   17  C9  UNL     1      26.188  -0.281  52.919  1.00  0.00    -0.007 C 
BRANCH  17  18
HETATM   18  C10 UNL     1      26.763  -0.095  54.118  1.00  0.00     0.006 C 
BRANCH  18  19
HETATM   19  C11 UNL     1      28.198   0.007  54.241  1.00  0.00     0.057 C 
BRANCH  19  20
HETATM   20  C12 UNL     1      28.926  -0.954  53.726  1.00  0.00    -0.112 C 
BRANCH  20  21
HETATM   21  C13 UNL     1      29.439  -2.079  53.246  1.00  0.00     0.137 C 
BRANCH  21  22
HETATM   22  N4  UNL     1      28.576  -3.207  53.187  1.00  0.00    -0.402 N 
HETATM   23  H12 UNL     1      27.883  -3.443  53.932  1.00  0.00     0.156 HD
HETATM   24  H13 UNL     1      28.376  -4.014  52.530  1.00  0.00     0.156 HD
ENDBRANCH  21  22
ENDBRANCH  20  21
ENDBRANCH  19  20
ENDBRANCH  18  19
ENDBRANCH  17  18
ENDBRANCH  16  17
ENDBRANCH  14  16
ENDBRANCH  10  14
TORSDOF 8
ENDMDL
MODEL 7
REMARK VINA RESULT:      -6.9      2.852      6.201
REMARK  8 active torsions:
REMARK  status: ('A' for Active; 'I' for Inactive)
REMARK    1  A    between atoms: C7_10  and  N3_11 
REMARK    2  A    between atoms: N3_11  and  C8_12 
REMARK    3  A    between atoms: C8_12  and  C9_13 
REMARK    4  A    between atoms: C9_13  and  C10_14 
REMARK    5  A    between atoms: C10_14  and  C11_15 
REMARK    6  A    between atoms: C11_15  and  C12_16 
REMARK    7  A    between atoms: C12_16  and  C13_17 
REMARK    8  A    between atoms: C13_17  and  N4_18 
ROOT
HETATM    1  C1  UNL     1      22.596   2.787  51.187  1.00  0.00     0.020 C 
HETATM    2  C2  UNL     1      23.812   2.725  51.704  1.00  0.00    -0.050 A 
HETATM    3  C3  UNL     1      25.308   2.662  51.464  1.00  0.00    -0.021 A 
HETATM    4  C4  UNL     1      26.574   2.620  50.999  1.00  0.00     0.152 C 
HETATM    5  O1  UNL     1      27.618   2.528  51.956  1.00  0.00    -0.303 OA
HETATM    6  C5  UNL     1      27.627   1.589  53.017  1.00  0.00     0.180 A 
HETATM    7  N1  UNL     1      28.867   1.172  53.323  1.00  0.00    -0.217 NA
HETATM    8  C6  UNL     1      29.076   0.280  54.303  1.00  0.00     0.238 A 
HETATM    9  N2  UNL     1      28.006  -0.180  54.964  1.00  0.00    -0.224 NA
HETATM   10  C7  UNL     1      26.770   0.206  54.692  1.00  0.00     0.135 A 
HETATM   11  C14 UNL     1      26.484   1.133  53.686  1.00  0.00     0.042 A 
HETATM   12  C15 UNL     1      25.026   1.405  53.587  1.00  0.00     0.061 C 
HETATM   13  C16 UNL     1      24.795   2.662  52.810  1.00  0.00     0.058 A 
ENDROOT
BRANCH  10  14
HETATM   14  N3  UNL     1      25.729  -0.402  55.486  1.00  0.00    -0.371 N 
HETATM   15  H5  UNL     1      25.521  -0.273  56.499  1.00  0.00     0.161 HD
BRANCH  14  16
HETATM   16  C8  UNL     1      24.783  -1.337  54.861  1.00  0.00     0.148 C 
BRANCH  16  17
HETATM   17  C9  UNL     1      23.493  -1.336  55.605  1.00  0.00    -0.007 C 
BRANCH  17  18
HETATM   18  C10 UNL     1      22.362  -0.974  54.977  1.00  0.00     0.006 C 
BRANCH  18  19
HETATM   19  C11 UNL     1      22.279  -0.989  53.537  1.00  0.00     0.057 C 
BRANCH  19  20
HETATM   20  C12 UNL     1      21.316  -0.303  52.971  1.00  0.00    -0.112 C 
BRANCH  20  21
HETATM   21  C13 UNL     1      20.178   0.236  52.553  1.00  0.00     0.137 C 
BRANCH  21  22
HETATM   22  N4  UNL     1      18.985  -0.484  52.831  1.00  0.00    -0.402 N 
HETATM   23  H12 UNL     1      18.080  -0.026  53.085  1.00  0.00     0.156 HD
HETATM   24  H13 UNL     1      18.663  -1.493  52.873  1.00  0.00     0.156 HD
ENDBRANCH  21  22
ENDBRANCH  20  21
ENDBRANCH  19  20
ENDBRANCH  18  19
ENDBRANCH  17  18
ENDBRANCH  16  17
ENDBRANCH  14  16
ENDBRANCH  10  14
TORSDOF 8
ENDMDL
MODEL 8
REMARK VINA RESULT:      -6.8      2.105      2.762
REMARK  8 active torsions:
REMARK  status: ('A' for Active; 'I' for Inactive)
REMARK    1  A    between atoms: C7_10  and  N3_11 
REMARK    2  A    between atoms: N3_11  and  C8_12 
REMARK    3  A    between atoms: C8_12  and  C9_13 
REMARK    4  A    between atoms: C9_13  and  C10_14 
REMARK    5  A    between atoms: C10_14  and  C11_15 
REMARK    6  A    between atoms: C11_15  and  C12_16 
REMARK    7  A    between atoms: C12_16  and  C13_17 
REMARK    8  A    between atoms: C13_17  and  N4_18 
ROOT
HETATM    1  C1  UNL     1      20.574  -0.153  53.695  1.00  0.00     0.020 C 
HETATM    2  C2  UNL     1      21.878  -0.369  53.751  1.00  0.00    -0.050 A 
HETATM    3  C3  UNL     1      23.070  -0.823  54.572  1.00  0.00    -0.021 A 
HETATM    4  C4  UNL     1      23.954  -1.270  55.488  1.00  0.00     0.152 C 
HETATM    5  O1  UNL     1      25.320  -1.317  55.107  1.00  0.00    -0.303 OA
HETATM    6  C5  UNL     1      26.001  -0.235  54.494  1.00  0.00     0.180 A 
HETATM    7  N1  UNL     1      27.293  -0.171  54.855  1.00  0.00    -0.217 NA
HETATM    8  C6  UNL     1      28.099   0.789  54.376  1.00  0.00     0.238 A 
HETATM    9  N2  UNL     1      27.570   1.681  53.529  1.00  0.00    -0.224 NA
HETATM   10  C7  UNL     1      26.302   1.650  53.151  1.00  0.00     0.135 A 
HETATM   11  C14 UNL     1      25.411   0.677  53.609  1.00  0.00     0.042 A 
HETATM   12  C15 UNL     1      24.054   0.857  53.030  1.00  0.00     0.061 C 
HETATM   13  C16 UNL     1      23.255  -0.395  53.209  1.00  0.00     0.058 A 
ENDROOT
BRANCH  10  14
HETATM   14  N3  UNL     1      25.888   2.697  52.247  1.00  0.00    -0.371 N 
HETATM   15  H5  UNL     1      25.174   3.443  52.395  1.00  0.00     0.161 HD
BRANCH  14  16
HETATM   16  C8  UNL     1      26.508   2.808  50.920  1.00  0.00     0.148 C 
BRANCH  16  17
HETATM   17  C9  UNL     1      25.499   3.243  49.916  1.00  0.00    -0.007 C 
BRANCH  17  18
HETATM   18  C10 UNL     1      24.207   3.349  50.271  1.00  0.00     0.006 C 
BRANCH  18  19
HETATM   19  C11 UNL     1      23.172   2.722  49.484  1.00  0.00     0.057 C 
BRANCH  19  20
HETATM   20  C12 UNL     1      22.789   3.325  48.385  1.00  0.00    -0.112 C 
BRANCH  20  21
HETATM   21  C13 UNL     1      22.248   4.085  47.442  1.00  0.00     0.137 C 
BRANCH  21  22
HETATM   22  N4  UNL     1      21.952   3.460  46.200  1.00  0.00    -0.402 N 
HETATM   23  H12 UNL     1      21.885   2.424  46.076  1.00  0.00     0.156 HD
HETATM   24  H13 UNL     1      21.746   3.748  45.201  1.00  0.00     0.156 HD
ENDBRANCH  21  22
ENDBRANCH  20  21
ENDBRANCH  19  20
ENDBRANCH  18  19
ENDBRANCH  17  18
ENDBRANCH  16  17
ENDBRANCH  14  16
ENDBRANCH  10  14
TORSDOF 8
ENDMDL
MODEL 9
REMARK VINA RESULT:      -6.8      2.474      4.127
REMARK  8 active torsions:
REMARK  status: ('A' for Active; 'I' for Inactive)
REMARK    1  A    between atoms: C7_10  and  N3_11 
REMARK    2  A    between atoms: N3_11  and  C8_12 
REMARK    3  A    between atoms: C8_12  and  C9_13 
REMARK    4  A    between atoms: C9_13  and  C10_14 
REMARK    5  A    between atoms: C10_14  and  C11_15 
REMARK    6  A    between atoms: C11_15  and  C12_16 
REMARK    7  A    between atoms: C12_16  and  C13_17 
REMARK    8  A    between atoms: C13_17  and  N4_18 
ROOT
HETATM    1  C1  UNL     1      28.655   2.508  53.523  1.00  0.00     0.020 C 
HETATM    2  C2  UNL     1      27.454   1.995  53.729  1.00  0.00    -0.050 A 
HETATM    3  C3  UNL     1      26.611   0.761  53.993  1.00  0.00    -0.021 A 
HETATM    4  C4  UNL     1      26.090  -0.461  54.226  1.00  0.00     0.152 C 
HETATM    5  O1  UNL     1      24.681  -0.553  54.369  1.00  0.00    -0.303 OA
HETATM    6  C5  UNL     1      23.762   0.028  53.460  1.00  0.00     0.180 A 
HETATM    7  N1  UNL     1      22.643  -0.703  53.326  1.00  0.00    -0.217 NA
HETATM    8  C6  UNL     1      21.655  -0.311  52.505  1.00  0.00     0.238 A 
HETATM    9  N2  UNL     1      21.826   0.830  51.826  1.00  0.00    -0.224 NA
HETATM   10  C7  UNL     1      22.913   1.576  51.932  1.00  0.00     0.135 A 
HETATM   11  C14 UNL     1      23.977   1.227  52.770  1.00  0.00     0.042 A 
HETATM   12  C15 UNL     1      25.071   2.232  52.716  1.00  0.00     0.061 C 
HETATM   13  C16 UNL     1      25.982   2.053  53.888  1.00  0.00     0.058 A 
ENDROOT
BRANCH  10  14
HETATM   14  N3  UNL     1      22.945   2.766  51.116  1.00  0.00    -0.371 N 
HETATM   15  H5  UNL     1      23.076   3.757  51.411  1.00  0.00     0.161 HD
BRANCH  14  16
HETATM   16  C8  UNL     1      22.788   2.659  49.659  1.00  0.00     0.148 C 
BRANCH  16  17
HETATM   17  C9  UNL     1      23.815   3.487  48.969  1.00  0.00    -0.007 C 
BRANCH  17  18
HETATM   18  C10 UNL     1      25.061   3.557  49.467  1.00  0.00     0.006 C 
BRANCH  18  19
HETATM   19  C11 UNL     1      25.823   4.779  49.380  1.00  0.00     0.057 C 
BRANCH  19  20
HETATM   20  C12 UNL     1      25.362   5.835  50.006  1.00  0.00    -0.112 C 
BRANCH  20  21
HETATM   21  C13 UNL     1      25.153   6.995  50.614  1.00  0.00     0.137 C 
BRANCH  21  22
HETATM   22  N4  UNL     1      24.460   6.958  51.854  1.00  0.00    -0.402 N 
HETATM   23  H12 UNL     1      24.201   7.812  52.397  1.00  0.00     0.156 HD
HETATM   24  H13 UNL     1      24.057   6.230  52.512  1.00  0.00     0.156 HD
ENDBRANCH  21  22
ENDBRANCH  20  21
ENDBRANCH  19  20
ENDBRANCH  18  19
ENDBRANCH  17  18
ENDBRANCH  16  17
ENDBRANCH  14  16
ENDBRANCH  10  14
TORSDOF 8
ENDMDL
