MODEL 1
REMARK VINA RESULT:      -7.9      0.000      0.000
REMARK  5 active torsions:
REMARK  status: ('A' for Active; 'I' for Inactive)
REMARK    1  A    between atoms: C2_3  and  N2_4 
REMARK    2  A    between atoms: C5_7  and  O1_8 
REMARK    3  A    between atoms: C7_10  and  O2_11 
REMARK    4  A    between atoms: C11_15  and  N3_16 
REMARK    5  A    between atoms: N3_16  and  C12_17 
ROOT
HETATM    1  N2  UNL     1      26.065   1.142  53.659  1.00  0.00    -0.242 NA
HETATM    2  C3  UNL     1      24.900   0.816  53.215  1.00  0.00     0.072 A 
HETATM    3  C4  UNL     1      24.065  -0.304  53.629  1.00  0.00     0.072 A 
HETATM    4  C5  UNL     1      22.882  -0.504  53.070  1.00  0.00     0.103 A 
HETATM    5  C7  UNL     1      22.331   0.354  52.027  1.00  0.00     0.102 A 
HETATM    6  C9  UNL     1      23.020   1.397  51.589  1.00  0.00     0.054 A 
HETATM    7  C10 UNL     1      24.346   1.684  52.164  1.00  0.00     0.011 A 
HETATM    8  C11 UNL     1      25.021   2.718  51.723  1.00  0.00     0.102 C 
ENDROOT
BRANCH   8   9
HETATM    9  N3  UNL     1      24.729   3.699  50.737  1.00  0.00    -0.365 N 
HETATM   10  H14 UNL     1      23.698   3.859  50.566  1.00  0.00     0.165 HD
BRANCH   9  11
HETATM   11  C12 UNL     1      25.655   4.457  49.986  1.00  0.00     0.033 A 
HETATM   12  C13 UNL     1      26.766   3.904  49.379  1.00  0.00     0.032 A 
HETATM   13  C14 UNL     1      27.624   4.684  48.669  1.00  0.00     0.046 A 
HETATM   14  C15 UNL     1      27.377   6.037  48.556  1.00  0.00     0.138 A 
HETATM   15  F1  UNL     1      28.241   6.806  47.843  1.00  0.00    -0.204 F 
HETATM   16  C16 UNL     1      26.270   6.588  49.160  1.00  0.00     0.074 A 
HETATM   17 CL1  UNL     1      25.974   8.325  49.002  1.00  0.00    -0.081 Cl
HETATM   18  C17 UNL     1      25.391   5.809  49.885  1.00  0.00     0.056 A 
ENDBRANCH   9  11
ENDBRANCH   8   9
BRANCH   1  19
HETATM   19  C2  UNL     1      26.720   0.402  54.667  1.00  0.00     0.226 C 
HETATM   20  N1  UNL     1      27.853  -0.125  54.990  1.00  0.00    -0.287 NA
HETATM   21  C1  UNL     1      28.988  -0.011  54.102  1.00  0.00     0.179 C 
ENDBRANCH   1  19
BRANCH   5  22
HETATM   22  O2  UNL     1      21.109   0.169  51.434  1.00  0.00    -0.353 OA
HETATM   23  C8  UNL     1      19.900   0.767  51.794  1.00  0.00     0.210 C 
ENDBRANCH   5  22
BRANCH   4  24
HETATM   24  O1  UNL     1      22.106  -1.579  53.483  1.00  0.00    -0.353 OA
HETATM   25  C6  UNL     1      21.250  -1.342  54.608  1.00  0.00     0.210 C 
ENDBRANCH   4  24
TORSDOF 5
ENDMDL
MODEL 2
REMARK VINA RESULT:      -7.7      4.804      7.237
REMARK  5 active torsions:
REMARK  status: ('A' for Active; 'I' for Inactive)
REMARK    1  A    between atoms: C2_3  and  N2_4 
REMARK    2  A    between atoms: C5_7  and  O1_8 
REMARK    3  A    between atoms: C7_10  and  O2_11 
REMARK    4  A    between atoms: C11_15  and  N3_16 
REMARK    5  A    between atoms: N3_16  and  C12_17 
ROOT
HETATM    1  N2  UNL     1      25.630  -0.837  53.006  1.00  0.00    -0.242 NA
HETATM    2  C3  UNL     1      25.432   0.364  52.581  1.00  0.00     0.072 A 
HETATM    3  C4  UNL     1      26.363   1.225  51.863  1.00  0.00     0.072 A 
HETATM    4  C5  UNL     1      26.003   2.443  51.492  1.00  0.00     0.103 A 
HETATM    5  C7  UNL     1      24.686   3.008  51.761  1.00  0.00     0.102 A 
HETATM    6  C9  UNL     1      23.774   2.297  52.408  1.00  0.00     0.054 A 
HETATM    7  C10 UNL     1      24.103   0.931  52.853  1.00  0.00     0.011 A 
HETATM    8  C11 UNL     1      23.194   0.234  53.493  1.00  0.00     0.102 C 
ENDROOT
BRANCH   8   9
HETATM    9  N3  UNL     1      21.860   0.533  53.880  1.00  0.00    -0.365 N 
HETATM   10  H14 UNL     1      21.771   1.046  54.799  1.00  0.00     0.165 HD
BRANCH   9  11
HETATM   11  C12 UNL     1      20.676   0.218  53.175  1.00  0.00     0.033 A 
HETATM   12  C13 UNL     1      20.284   0.878  52.026  1.00  0.00     0.032 A 
HETATM   13  C14 UNL     1      19.134   0.531  51.390  1.00  0.00     0.046 A 
HETATM   14  C15 UNL     1      18.357  -0.489  51.899  1.00  0.00     0.138 A 
HETATM   15  F1  UNL     1      17.209  -0.826  51.254  1.00  0.00    -0.204 F 
HETATM   16  C16 UNL     1      18.747  -1.146  53.044  1.00  0.00     0.074 A 
HETATM   17 CL1  UNL     1      17.734  -2.450  53.679  1.00  0.00    -0.081 Cl
HETATM   18  C17 UNL     1      19.912  -0.805  53.701  1.00  0.00     0.056 A 
ENDBRANCH   9  11
ENDBRANCH   8   9
BRANCH   1  19
HETATM   19  C2  UNL     1      26.858  -1.509  52.817  1.00  0.00     0.226 C 
HETATM   20  N1  UNL     1      28.096  -1.521  53.183  1.00  0.00    -0.287 NA
HETATM   21  C1  UNL     1      28.580  -0.551  54.140  1.00  0.00     0.179 C 
ENDBRANCH   1  19
BRANCH   5  22
HETATM   22  O2  UNL     1      24.289   4.266  51.387  1.00  0.00    -0.353 OA
HETATM   23  C8  UNL     1      23.380   5.093  52.051  1.00  0.00     0.210 C 
ENDBRANCH   5  22
BRANCH   4  24
HETATM   24  O1  UNL     1      26.910   3.243  50.809  1.00  0.00    -0.353 OA
HETATM   25  C6  UNL     1      26.709   3.354  49.394  1.00  0.00     0.210 C 
ENDBRANCH   4  24
TORSDOF 5
ENDMDL
MODEL 3
REMARK VINA RESULT:      -7.6      3.338      5.919
REMARK  5 active torsions:
REMARK  status: ('A' for Active; 'I' for Inactive)
REMARK    1  A    between atoms: C2_3  and  N2_4 
REMARK    2  A    between atoms: C5_7  and  O1_8 
REMARK    3  A    between atoms: C7_10  and  O2_11 
REMARK    4  A    between atoms: C11_15  and  N3_16 
REMARK    5  A    between atoms: N3_16  and  C12_17 
ROOT
HETATM    1  N2  UNL     1      23.882   4.305  51.991  1.00  0.00    -0.242 NA
HETATM    2  C3  UNL     1      22.855   3.553  52.196  1.00  0.00     0.072 A 
HETATM    3  C4  UNL     1      21.447   3.924  52.138  1.00  0.00     0.072 A 
HETATM    4  C5  UNL     1      20.505   3.026  52.376  1.00  0.00     0.103 A 
HETATM    5  C7  UNL     1      20.787   1.633  52.703  1.00  0.00     0.102 A 
HETATM    6  C9  UNL     1      22.039   1.206  52.777  1.00  0.00     0.054 A 
HETATM    7  C10 UNL     1      23.143   2.149  52.525  1.00  0.00     0.011 A 
HETATM    8  C11 UNL     1      24.379   1.717  52.600  1.00  0.00     0.102 C 
ENDROOT
BRANCH   8   9
HETATM    9  N3  UNL     1      24.927   0.438  52.894  1.00  0.00    -0.365 N 
HETATM   10  H14 UNL     1      24.217  -0.341  52.960  1.00  0.00     0.165 HD
BRANCH   9  11
HETATM   11  C12 UNL     1      26.289   0.121  53.100  1.00  0.00     0.033 A 
HETATM   12  C13 UNL     1      26.823  -1.123  52.823  1.00  0.00     0.032 A 
HETATM   13  C14 UNL     1      28.142  -1.370  53.042  1.00  0.00     0.046 A 
HETATM   14  C15 UNL     1      28.948  -0.368  53.542  1.00  0.00     0.138 A 
HETATM   15  F1  UNL     1      30.264  -0.628  53.756  1.00  0.00    -0.204 F 
HETATM   16  C16 UNL     1      28.415   0.870  53.818  1.00  0.00     0.074 A 
HETATM   17 CL1  UNL     1      29.467   2.139  54.460  1.00  0.00    -0.081 Cl
HETATM   18  C17 UNL     1      27.078   1.137  53.602  1.00  0.00     0.056 A 
ENDBRANCH   9  11
ENDBRANCH   8   9
BRANCH   1  19
HETATM   19  C2  UNL     1      23.759   5.674  51.667  1.00  0.00     0.226 C 
HETATM   20  N1  UNL     1      24.279   6.617  50.955  1.00  0.00    -0.287 NA
HETATM   21  C1  UNL     1      25.424   6.348  50.115  1.00  0.00     0.179 C 
ENDBRANCH   1  19
BRANCH   5  22
HETATM   22  O2  UNL     1      19.829   0.684  52.953  1.00  0.00    -0.353 OA
HETATM   23  C8  UNL     1      20.021  -0.571  53.534  1.00  0.00     0.210 C 
ENDBRANCH   5  22
BRANCH   4  24
HETATM   24  O1  UNL     1      19.170   3.406  52.315  1.00  0.00    -0.353 OA
HETATM   25  C6  UNL     1      18.597   3.479  51.003  1.00  0.00     0.210 C 
ENDBRANCH   4  24
TORSDOF 5
ENDMDL
MODEL 4
REMARK VINA RESULT:      -7.4      4.030      6.012
REMARK  5 active torsions:
REMARK  status: ('A' for Active; 'I' for Inactive)
REMARK    1  A    between atoms: C2_3  and  N2_4 
REMARK    2  A    between atoms: C5_7  and  O1_8 
REMARK    3  A    between atoms: C7_10  and  O2_11 
REMARK    4  A    between atoms: C11_15  and  N3_16 
REMARK    5  A    between atoms: N3_16  and  C12_17 
ROOT
HETATM    1  N2  UNL     1      23.190   3.179  50.387  1.00  0.00    -0.242 NA
HETATM    2  C3  UNL     1      22.740   2.363  51.277  1.00  0.00     0.072 A 
HETATM    3  C4  UNL     1      21.439   1.709  51.318  1.00  0.00     0.072 A 
HETATM    4  C5  UNL     1      21.127   0.891  52.310  1.00  0.00     0.103 A 
HETATM    5  C7  UNL     1      22.032   0.584  53.412  1.00  0.00     0.102 A 
HETATM    6  C9  UNL     1      23.237   1.132  53.458  1.00  0.00     0.054 A 
HETATM    7  C10 UNL     1      23.655   2.055  52.387  1.00  0.00     0.011 A 
HETATM    8  C11 UNL     1      24.850   2.593  52.440  1.00  0.00     0.102 C 
ENDROOT
BRANCH   8   9
HETATM    9  N3  UNL     1      25.911   2.471  53.379  1.00  0.00    -0.365 N 
HETATM   10  H14 UNL     1      25.896   3.185  54.157  1.00  0.00     0.165 HD
BRANCH   9  11
HETATM   11  C12 UNL     1      26.952   1.515  53.370  1.00  0.00     0.033 A 
HETATM   12  C13 UNL     1      28.256   1.817  53.711  1.00  0.00     0.032 A 
HETATM   13  C14 UNL     1      29.216   0.855  53.684  1.00  0.00     0.046 A 
HETATM   14  C15 UNL     1      28.879  -0.431  53.314  1.00  0.00     0.138 A 
HETATM   15  F1  UNL     1      29.848  -1.383  53.290  1.00  0.00    -0.204 F 
HETATM   16  C16 UNL     1      27.580  -0.732  52.974  1.00  0.00     0.074 A 
HETATM   17 CL1  UNL     1      27.171  -2.387  52.502  1.00  0.00    -0.081 Cl
HETATM   18  C17 UNL     1      26.594   0.235  52.996  1.00  0.00     0.056 A 
ENDBRANCH   9  11
ENDBRANCH   8   9
BRANCH   1  19
HETATM   19  C2  UNL     1      22.423   3.566  49.266  1.00  0.00     0.226 C 
HETATM   20  N1  UNL     1      22.075   3.202  48.077  1.00  0.00    -0.287 NA
HETATM   21  C1  UNL     1      22.561   1.958  47.526  1.00  0.00     0.179 C 
ENDBRANCH   1  19
BRANCH   5  22
HETATM   22  O2  UNL     1      21.734  -0.259  54.450  1.00  0.00    -0.353 OA
HETATM   23  C8  UNL     1      22.555  -1.253  54.989  1.00  0.00     0.210 C 
ENDBRANCH   5  22
BRANCH   4  24
HETATM   24  O1  UNL     1      19.880   0.281  52.325  1.00  0.00    -0.353 OA
HETATM   25  C6  UNL     1      19.108   0.399  51.122  1.00  0.00     0.210 C 
ENDBRANCH   4  24
TORSDOF 5
ENDMDL
MODEL 5
REMARK VINA RESULT:      -7.4      2.345      4.087
REMARK  5 active torsions:
REMARK  status: ('A' for Active; 'I' for Inactive)
REMARK    1  A    between atoms: C2_3  and  N2_4 
REMARK    2  A    between atoms: C5_7  and  O1_8 
REMARK    3  A    between atoms: C7_10  and  O2_11 
REMARK    4  A    between atoms: C11_15  and  N3_16 
REMARK    5  A    between atoms: N3_16  and  C12_17 
ROOT
HETATM    1  N2  UNL     1      23.252   2.244  51.952  1.00  0.00    -0.242 NA
HETATM    2  C3  UNL     1      24.297   1.571  52.294  1.00  0.00     0.072 A 
HETATM    3  C4  UNL     1      24.410   0.561  53.338  1.00  0.00     0.072 A 
HETATM    4  C5  UNL     1      25.564  -0.045  53.566  1.00  0.00     0.103 A 
HETATM    5  C7  UNL     1      26.782   0.238  52.814  1.00  0.00     0.102 A 
HETATM    6  C9  UNL     1      26.773   1.142  51.845  1.00  0.00     0.054 A 
HETATM    7  C10 UNL     1      25.523   1.858  51.533  1.00  0.00     0.011 A 
HETATM    8  C11 UNL     1      25.523   2.751  50.573  1.00  0.00     0.102 C 
ENDROOT
BRANCH   8   9
HETATM    9  N3  UNL     1      26.545   3.213  49.700  1.00  0.00    -0.365 N 
HETATM   10  H14 UNL     1      27.182   2.457  49.326  1.00  0.00     0.165 HD
BRANCH   9  11
HETATM   11  C12 UNL     1      26.785   4.546  49.298  1.00  0.00     0.033 A 
HETATM   12  C13 UNL     1      27.889   4.924  48.557  1.00  0.00     0.032 A 
HETATM   13  C14 UNL     1      28.067   6.223  48.199  1.00  0.00     0.046 A 
HETATM   14  C15 UNL     1      27.135   7.167  48.579  1.00  0.00     0.138 A 
HETATM   15  F1  UNL     1      27.324   8.462  48.214  1.00  0.00    -0.204 F 
HETATM   16  C16 UNL     1      26.036   6.791  49.316  1.00  0.00     0.074 A 
HETATM   17 CL1  UNL     1      24.854   8.018  49.793  1.00  0.00    -0.081 Cl
HETATM   18  C17 UNL     1      25.841   5.476  49.688  1.00  0.00     0.056 A 
ENDBRANCH   9  11
ENDBRANCH   8   9
BRANCH   1  19
HETATM   19  C2  UNL     1      22.005   2.075  52.594  1.00  0.00     0.226 C 
HETATM   20  N1  UNL     1      20.934   1.356  52.593  1.00  0.00    -0.287 NA
HETATM   21  C1  UNL     1      20.784   0.273  51.647  1.00  0.00     0.179 C 
ENDBRANCH   1  19
BRANCH   5  22
HETATM   22  O2  UNL     1      27.989  -0.375  53.031  1.00  0.00    -0.353 OA
HETATM   23  C8  UNL     1      28.956  -0.019  53.973  1.00  0.00     0.210 C 
ENDBRANCH   5  22
BRANCH   4  24
HETATM   24  O1  UNL     1      25.645  -1.004  54.567  1.00  0.00    -0.353 OA
HETATM   25  C6  UNL     1      24.433  -1.264  55.287  1.00  0.00     0.210 C 
ENDBRANCH   4  24
TORSDOF 5
ENDMDL
MODEL 6
REMARK VINA RESULT:      -7.3      4.225      7.012
REMARK  5 active torsions:
REMARK  status: ('A' for Active; 'I' for Inactive)
REMARK    1  A    between atoms: C2_3  and  N2_4 
REMARK    2  A    between atoms: C5_7  and  O1_8 
REMARK    3  A    between atoms: C7_10  and  O2_11 
REMARK    4  A    between atoms: C11_15  and  N3_16 
REMARK    5  A    between atoms: N3_16  and  C12_17 
ROOT
HETATM    1  N2  UNL     1      25.501   2.863  50.635  1.00  0.00    -0.242 NA
HETATM    2  C3  UNL     1      25.632   1.949  51.534  1.00  0.00     0.072 A 
HETATM    3  C4  UNL     1      26.799   1.120  51.806  1.00  0.00     0.072 A 
HETATM    4  C5  UNL     1      26.773   0.218  52.774  1.00  0.00     0.103 A 
HETATM    5  C7  UNL     1      25.611  -0.015  53.623  1.00  0.00     0.102 A 
HETATM    6  C9  UNL     1      24.504   0.692  53.449  1.00  0.00     0.054 A 
HETATM    7  C10 UNL     1      24.458   1.716  52.390  1.00  0.00     0.011 A 
HETATM    8  C11 UNL     1      23.359   2.411  52.224  1.00  0.00     0.102 C 
ENDROOT
BRANCH   8   9
HETATM    9  N3  UNL     1      22.106   2.391  52.895  1.00  0.00    -0.365 N 
HETATM   10  H14 UNL     1      21.947   3.198  53.558  1.00  0.00     0.165 HD
BRANCH   9  11
HETATM   11  C12 UNL     1      21.084   1.423  52.765  1.00  0.00     0.033 A 
HETATM   12  C13 UNL     1      20.888   0.406  53.679  1.00  0.00     0.032 A 
HETATM   13  C14 UNL     1      19.887  -0.497  53.501  1.00  0.00     0.046 A 
HETATM   14  C15 UNL     1      19.063  -0.391  52.399  1.00  0.00     0.138 A 
HETATM   15  F1  UNL     1      18.067  -1.299  52.232  1.00  0.00    -0.204 F 
HETATM   16  C16 UNL     1      19.259   0.623  51.488  1.00  0.00     0.074 A 
HETATM   17 CL1  UNL     1      18.192   0.740  50.083  1.00  0.00    -0.081 Cl
HETATM   18  C17 UNL     1      20.271   1.547  51.655  1.00  0.00     0.056 A 
ENDBRANCH   9  11
ENDBRANCH   8   9
BRANCH   1  19
HETATM   19  C2  UNL     1      26.544   3.195  49.743  1.00  0.00     0.226 C 
HETATM   20  N1  UNL     1      27.019   4.154  49.021  1.00  0.00    -0.287 NA
HETATM   21  C1  UNL     1      26.363   5.442  48.999  1.00  0.00     0.179 C 
ENDBRANCH   1  19
BRANCH   5  22
HETATM   22  O2  UNL     1      25.559  -0.943  54.631  1.00  0.00    -0.353 OA
HETATM   23  C8  UNL     1      24.452  -1.268  55.419  1.00  0.00     0.210 C 
ENDBRANCH   5  22
BRANCH   4  24
HETATM   24  O1  UNL     1      27.900  -0.559  53.012  1.00  0.00    -0.353 OA
HETATM   25  C6  UNL     1      28.910   0.036  53.836  1.00  0.00     0.210 C 
ENDBRANCH   4  24
TORSDOF 5
ENDMDL
MODEL 7
REMARK VINA RESULT:      -7.0      3.806      6.646
REMARK  5 active torsions:
REMARK  status: ('A' for Active; 'I' for Inactive)
REMARK    1  A    between atoms: C2_3  and  N2_4 
REMARK    2  A    between atoms: C5_7  and  O1_8 
REMARK    3  A    between atoms: C7_10  and  O2_11 
REMARK    4  A    between atoms: C11_15  and  N3_16 
REMARK    5  A    between atoms: N3_16  and  C12_17 
ROOT
HETATM    1  N2  UNL     1      25.502   4.625  50.059  1.00  0.00    -0.242 NA
HETATM    2  C3  UNL     1      24.533   3.779  49.976  1.00  0.00     0.072 A 
HETATM    3  C4  UNL     1      23.458   3.742  48.993  1.00  0.00     0.072 A 
HETATM    4  C5  UNL     1      22.530   2.799  49.045  1.00  0.00     0.103 A 
HETATM    5  C7  UNL     1      22.508   1.751  50.059  1.00  0.00     0.102 A 
HETATM    6  C9  UNL     1      23.446   1.706  50.993  1.00  0.00     0.054 A 
HETATM    7  C10 UNL     1      24.513   2.723  50.999  1.00  0.00     0.011 A 
HETATM    8  C11 UNL     1      25.437   2.670  51.928  1.00  0.00     0.102 C 
ENDROOT
BRANCH   8   9
HETATM    9  N3  UNL     1      25.651   1.777  53.013  1.00  0.00    -0.365 N 
HETATM   10  H14 UNL     1      25.200   2.071  53.922  1.00  0.00     0.165 HD
BRANCH   9  11
HETATM   11  C12 UNL     1      26.386   0.570  52.992  1.00  0.00     0.033 A 
HETATM   12  C13 UNL     1      25.813  -0.658  52.725  1.00  0.00     0.032 A 
HETATM   13  C14 UNL     1      26.572  -1.786  52.719  1.00  0.00     0.046 A 
HETATM   14  C15 UNL     1      27.923  -1.697  52.981  1.00  0.00     0.138 A 
HETATM   15  F1  UNL     1      28.671  -2.832  52.973  1.00  0.00    -0.204 F 
HETATM   16  C16 UNL     1      28.494  -0.474  53.248  1.00  0.00     0.074 A 
HETATM   17 CL1  UNL     1      30.229  -0.384  53.582  1.00  0.00    -0.081 Cl
HETATM   18  C17 UNL     1      27.737   0.680  53.257  1.00  0.00     0.056 A 
ENDBRANCH   9  11
ENDBRANCH   8   9
BRANCH   1  19
HETATM   19  C2  UNL     1      25.649   5.692  49.145  1.00  0.00     0.226 C 
HETATM   20  N1  UNL     1      25.273   6.903  48.903  1.00  0.00    -0.287 NA
HETATM   21  C1  UNL     1      24.358   7.573  49.799  1.00  0.00     0.179 C 
ENDBRANCH   1  19
BRANCH   5  22
HETATM   22  O2  UNL     1      21.559   0.764  50.135  1.00  0.00    -0.353 OA
HETATM   23  C8  UNL     1      20.776   0.433  51.243  1.00  0.00     0.210 C 
ENDBRANCH   5  22
BRANCH   4  24
HETATM   24  O1  UNL     1      21.517   2.786  48.096  1.00  0.00    -0.353 OA
HETATM   25  C6  UNL     1      21.828   3.396  46.837  1.00  0.00     0.210 C 
ENDBRANCH   4  24
TORSDOF 5
ENDMDL
MODEL 8
REMARK VINA RESULT:      -6.9      4.998      8.609
REMARK  5 active torsions:
REMARK  status: ('A' for Active; 'I' for Inactive)
REMARK    1  A    between atoms: C2_3  and  N2_4 
REMARK    2  A    between atoms: C5_7  and  O1_8 
REMARK    3  A    between atoms: C7_10  and  O2_11 
REMARK    4  A    between atoms: C11_15  and  N3_16 
REMARK    5  A    between atoms: N3_16  and  C12_17 
ROOT
HETATM    1  N2  UNL     1      24.346   5.981  49.621  1.00  0.00    -0.242 NA
HETATM    2  C3  UNL     1      25.546   6.012  49.152  1.00  0.00     0.072 A 
HETATM    3  C4  UNL     1      26.195   7.094  48.422  1.00  0.00     0.072 A 
HETATM    4  C5  UNL     1      27.444   6.968  48.004  1.00  0.00     0.103 A 
HETATM    5  C7  UNL     1      28.251   5.775  48.232  1.00  0.00     0.102 A 
HETATM    6  C9  UNL     1      27.744   4.742  48.887  1.00  0.00     0.054 A 
HETATM    7  C10 UNL     1      26.358   4.808  49.384  1.00  0.00     0.011 A 
HETATM    8  C11 UNL     1      25.864   3.780  50.030  1.00  0.00     0.102 C 
ENDROOT
BRANCH   8   9
HETATM    9  N3  UNL     1      26.417   2.519  50.385  1.00  0.00    -0.365 N 
HETATM   10  H14 UNL     1      26.826   1.974  49.577  1.00  0.00     0.165 HD
BRANCH   9  11
HETATM   11  C12 UNL     1      26.470   1.943  51.674  1.00  0.00     0.033 A 
HETATM   12  C13 UNL     1      27.535   2.118  52.536  1.00  0.00     0.032 A 
HETATM   13  C14 UNL     1      27.530   1.538  53.765  1.00  0.00     0.046 A 
HETATM   14  C15 UNL     1      26.450   0.770  54.150  1.00  0.00     0.138 A 
HETATM   15  F1  UNL     1      26.457   0.196  55.381  1.00  0.00    -0.204 F 
HETATM   16  C16 UNL     1      25.389   0.595  53.292  1.00  0.00     0.074 A 
HETATM   17 CL1  UNL     1      24.016  -0.394  53.806  1.00  0.00    -0.081 Cl
HETATM   18  C17 UNL     1      25.380   1.178  52.040  1.00  0.00     0.056 A 
ENDBRANCH   9  11
ENDBRANCH   8   9
BRANCH   1  19
HETATM   19  C2  UNL     1      23.453   7.065  49.474  1.00  0.00     0.226 C 
HETATM   20  N1  UNL     1      22.323   7.535  49.885  1.00  0.00    -0.287 NA
HETATM   21  C1  UNL     1      21.545   6.808  50.863  1.00  0.00     0.179 C 
ENDBRANCH   1  19
BRANCH   5  22
HETATM   22  O2  UNL     1      29.547   5.621  47.810  1.00  0.00    -0.353 OA
HETATM   23  C8  UNL     1      30.707   5.936  48.521  1.00  0.00     0.210 C 
ENDBRANCH   5  22
BRANCH   4  24
HETATM   24  O1  UNL     1      28.039   8.014  47.311  1.00  0.00    -0.353 OA
HETATM   25  C6  UNL     1      28.430   9.148  48.097  1.00  0.00     0.210 C 
ENDBRANCH   4  24
TORSDOF 5
ENDMDL
MODEL 9
REMARK VINA RESULT:      -6.8      1.904      2.127
REMARK  5 active torsions:
REMARK  status: ('A' for Active; 'I' for Inactive)
REMARK    1  A    between atoms: C2_3  and  N2_4 
REMARK    2  A    between atoms: C5_7  and  O1_8 
REMARK    3  A    between atoms: C7_10  and  O2_11 
REMARK    4  A    between atoms: C11_15  and  N3_16 
REMARK    5  A    between atoms: N3_16  and  C12_17 
ROOT
HETATM    1  N2  UNL     1      26.463   0.775  52.416  1.00  0.00    -0.242 NA
HETATM    2  C3  UNL     1      25.182   0.888  52.507  1.00  0.00     0.072 A 
HETATM    3  C4  UNL     1      24.288   0.220  53.444  1.00  0.00     0.072 A 
HETATM    4  C5  UNL     1      22.985   0.446  53.408  1.00  0.00     0.103 A 
HETATM    5  C7  UNL     1      22.353   1.355  52.458  1.00  0.00     0.102 A 
HETATM    6  C9  UNL     1      23.088   2.006  51.569  1.00  0.00     0.054 A 
HETATM    7  C10 UNL     1      24.548   1.806  51.548  1.00  0.00     0.011 A 
HETATM    8  C11 UNL     1      25.268   2.454  50.664  1.00  0.00     0.102 C 
ENDROOT
BRANCH   8   9
HETATM    9  N3  UNL     1      24.919   3.381  49.644  1.00  0.00    -0.365 N 
HETATM   10  H14 UNL     1      24.617   2.940  48.733  1.00  0.00     0.165 HD
BRANCH   9  11
HETATM   11  C12 UNL     1      24.938   4.791  49.730  1.00  0.00     0.033 A 
HETATM   12  C13 UNL     1      26.058   5.549  49.447  1.00  0.00     0.032 A 
HETATM   13  C14 UNL     1      26.017   6.904  49.547  1.00  0.00     0.046 A 
HETATM   14  C15 UNL     1      24.844   7.522  49.932  1.00  0.00     0.138 A 
HETATM   15  F1  UNL     1      24.816   8.877  50.028  1.00  0.00    -0.204 F 
HETATM   16  C16 UNL     1      23.729   6.767  50.214  1.00  0.00     0.074 A 
HETATM   17 CL1  UNL     1      22.237   7.580  50.706  1.00  0.00    -0.081 Cl
HETATM   18  C17 UNL     1      23.755   5.390  50.117  1.00  0.00     0.056 A 
ENDBRANCH   9  11
ENDBRANCH   8   9
BRANCH   1  19
HETATM   19  C2  UNL     1      27.206  -0.069  53.270  1.00  0.00     0.226 C 
HETATM   20  N1  UNL     1      27.573  -1.294  53.448  1.00  0.00    -0.287 NA
HETATM   21  C1  UNL     1      27.159  -2.319  52.517  1.00  0.00     0.179 C 
ENDBRANCH   1  19
BRANCH   5  22
HETATM   22  O2  UNL     1      21.007   1.606  52.400  1.00  0.00    -0.353 OA
HETATM   23  C8  UNL     1      20.383   2.855  52.420  1.00  0.00     0.210 C 
ENDBRANCH   5  22
BRANCH   4  24
HETATM   24  O1  UNL     1      22.155  -0.204  54.312  1.00  0.00    -0.353 OA
HETATM   25  C6  UNL     1      21.813  -1.558  53.991  1.00  0.00     0.210 C 
ENDBRANCH   4  24
TORSDOF 5
ENDMDL
