MODEL 1
REMARK VINA RESULT:      -9.6      0.000      0.000
REMARK  6 active torsions:
REMARK  status: ('A' for Active; 'I' for Inactive)
REMARK    1  A    between atoms: C2_2  and  C3_3 
REMARK    2  A    between atoms: C6_7  and  C7_8 
REMARK    3  A    between atoms: C15_17  and  C16_18 
REMARK    4  A    between atoms: C17_19  and  C18_20 
REMARK    5  A    between atoms: C20_22  and  O2_23 
REMARK    6  A    between atoms: O2_23  and  C21_24 
ROOT
HETATM    1  C3  UNL     1      22.081   0.078  53.540  1.00  0.00    -0.013 C 
HETATM    2  C4  UNL     1      23.071  -0.622  54.174  1.00  0.00     0.018 C 
HETATM    3  C5  UNL     1      24.162  -0.659  53.223  1.00  0.00     0.200 C 
HETATM    4  O1  UNL     1      25.367  -0.043  53.579  1.00  0.00    -0.357 OA
HETATM    5  C6  UNL     1      26.203  -0.192  52.437  1.00  0.00     0.279 C 
HETATM    6  N1  UNL     1      26.392   1.017  51.745  1.00  0.00    -0.252 NA
HETATM    7  C13 UNL     1      25.529   1.860  51.304  1.00  0.00     0.074 A 
HETATM    8  C14 UNL     1      26.446   2.724  50.765  1.00  0.00     0.061 A 
HETATM    9  C15 UNL     1      26.055   3.893  50.079  1.00  0.00     0.061 A 
HETATM   10  S1  UNL     1      24.180   3.755  50.214  1.00  0.00    -0.078 SA
HETATM   11  C23 UNL     1      24.165   2.189  51.148  1.00  0.00     0.045 A 
HETATM   12  C24 UNL     1      23.023   1.775  51.495  1.00  0.00     0.083 C 
HETATM   13  N3  UNL     1      22.479   0.715  52.270  1.00  0.00    -0.272 NA
HETATM   14  H25 UNL     1      22.769   1.435  53.031  1.00  0.00     0.132 HD
ENDROOT
BRANCH   9  15
HETATM   15  C16 UNL     1      26.558   5.039  49.356  1.00  0.00    -0.057 C 
HETATM   16  C17 UNL     1      26.948   5.973  48.783  1.00  0.00    -0.065 C 
BRANCH  16  17
HETATM   17  C18 UNL     1      27.432   7.149  48.090  1.00  0.00     0.301 C 
HETATM   18  C19 UNL     1      28.784   6.897  47.441  1.00  0.00     0.083 C 
HETATM   19  C20 UNL     1      29.372   8.281  47.386  1.00  0.00     0.162 C 
HETATM   20  C22 UNL     1      28.541   9.079  48.371  1.00  0.00     0.303 C 
HETATM   21  N2  UNL     1      27.780   8.103  49.125  1.00  0.00     0.102 N 
HETATM   22  H23 UNL     1      26.918   8.528  49.536  1.00  0.00     0.317 HD
BRANCH  19  23
HETATM   23  O2  UNL     1      30.744   8.287  47.745  1.00  0.00    -0.321 OA
BRANCH  23  24
HETATM   24  C21 UNL     1      31.293   7.274  48.511  1.00  0.00     0.398 C 
HETATM   25  O3  UNL     1      31.549   7.356  49.728  1.00  0.00    -0.276 OA
ENDBRANCH  23  24
ENDBRANCH  19  23
ENDBRANCH  16  17
ENDBRANCH   9  15
BRANCH   5  26
HETATM   26  C7  UNL     1      27.446  -0.817  52.838  1.00  0.00    -0.008 A 
HETATM   27  C8  UNL     1      28.509  -0.096  53.338  1.00  0.00     0.011 A 
HETATM   28  C9  UNL     1      29.700  -0.636  53.734  1.00  0.00     0.001 A 
HETATM   29  C10 UNL     1      29.843  -2.015  53.620  1.00  0.00     0.000 A 
HETATM   30  C11 UNL     1      28.786  -2.760  53.118  1.00  0.00     0.001 A 
HETATM   31  C12 UNL     1      27.572  -2.191  52.719  1.00  0.00     0.011 A 
ENDBRANCH   5  26
BRANCH   1  32
HETATM   32  C2  UNL     1      20.663   0.498  53.893  1.00  0.00     0.046 C 
HETATM   33  C1  UNL     1      19.635  -0.441  53.366  1.00  0.00     0.011 C 
ENDBRANCH   1  32
TORSDOF 6
ENDMDL
MODEL 2
REMARK VINA RESULT:      -8.9      1.664      2.235
REMARK  6 active torsions:
REMARK  status: ('A' for Active; 'I' for Inactive)
REMARK    1  A    between atoms: C2_2  and  C3_3 
REMARK    2  A    between atoms: C6_7  and  C7_8 
REMARK    3  A    between atoms: C15_17  and  C16_18 
REMARK    4  A    between atoms: C17_19  and  C18_20 
REMARK    5  A    between atoms: C20_22  and  O2_23 
REMARK    6  A    between atoms: O2_23  and  C21_24 
ROOT
HETATM    1  C3  UNL     1      21.957   1.238  52.587  1.00  0.00    -0.013 C 
HETATM    2  C4  UNL     1      22.842   0.581  53.399  1.00  0.00     0.018 C 
HETATM    3  C5  UNL     1      24.048   0.460  52.606  1.00  0.00     0.200 C 
HETATM    4  O1  UNL     1      25.207   1.091  53.069  1.00  0.00    -0.357 OA
HETATM    5  C6  UNL     1      26.182   0.846  52.062  1.00  0.00     0.279 C 
HETATM    6  N1  UNL     1      26.484   1.995  51.310  1.00  0.00    -0.252 NA
HETATM    7  C13 UNL     1      25.702   2.809  50.696  1.00  0.00     0.074 A 
HETATM    8  C14 UNL     1      26.698   3.620  50.218  1.00  0.00     0.061 A 
HETATM    9  C15 UNL     1      26.422   4.735  49.400  1.00  0.00     0.061 A 
HETATM   10  S1  UNL     1      24.544   4.625  49.296  1.00  0.00    -0.078 SA
HETATM   11  C23 UNL     1      24.377   3.137  50.337  1.00  0.00     0.045 A 
HETATM   12  C24 UNL     1      23.191   2.761  50.561  1.00  0.00     0.083 C 
HETATM   13  N3  UNL     1      22.531   1.770  51.336  1.00  0.00    -0.272 NA
HETATM   14  H25 UNL     1      22.732   2.545  52.072  1.00  0.00     0.132 HD
ENDROOT
BRANCH   9  15
HETATM   15  C16 UNL     1      27.037   5.817  48.664  1.00  0.00    -0.057 C 
HETATM   16  C17 UNL     1      27.542   6.693  48.089  1.00  0.00    -0.065 C 
BRANCH  16  17
HETATM   17  C18 UNL     1      28.192   7.776  47.382  1.00  0.00     0.301 C 
HETATM   18  C19 UNL     1      29.208   8.487  48.263  1.00  0.00     0.083 C 
HETATM   19  C20 UNL     1      29.252   9.861  47.651  1.00  0.00     0.162 C 
HETATM   20  C22 UNL     1      27.990   9.937  46.815  1.00  0.00     0.303 C 
HETATM   21  N2  UNL     1      27.182   8.804  47.217  1.00  0.00     0.102 N 
HETATM   22  H23 UNL     1      26.506   8.535  46.467  1.00  0.00     0.317 HD
BRANCH  19  23
HETATM   23  O2  UNL     1      29.279  10.878  48.638  1.00  0.00    -0.321 OA
BRANCH  23  24
HETATM   24  C21 UNL     1      28.219  11.750  48.805  1.00  0.00     0.398 C 
HETATM   25  O3  UNL     1      28.293  12.876  49.332  1.00  0.00    -0.276 OA
ENDBRANCH  23  24
ENDBRANCH  19  23
ENDBRANCH  16  17
ENDBRANCH   9  15
BRANCH   5  26
HETATM   26  C7  UNL     1      27.350   0.243  52.671  1.00  0.00    -0.008 A 
HETATM   27  C8  UNL     1      27.543  -1.121  52.707  1.00  0.00     0.011 A 
HETATM   28  C9  UNL     1      28.626  -1.741  53.265  1.00  0.00     0.001 A 
HETATM   29  C10 UNL     1      29.600  -0.927  53.836  1.00  0.00     0.000 A 
HETATM   30  C11 UNL     1      29.426   0.448  53.811  1.00  0.00     0.001 A 
HETATM   31  C12 UNL     1      28.311   1.066  53.234  1.00  0.00     0.011 A 
ENDBRANCH   5  26
BRANCH   1  32
HETATM   32  C2  UNL     1      20.514   1.697  52.718  1.00  0.00     0.046 C 
HETATM   33  C1  UNL     1      19.540   0.679  52.236  1.00  0.00     0.011 C 
ENDBRANCH   1  32
TORSDOF 6
ENDMDL
MODEL 3
REMARK VINA RESULT:      -8.5      2.059      2.688
REMARK  6 active torsions:
REMARK  status: ('A' for Active; 'I' for Inactive)
REMARK    1  A    between atoms: C2_2  and  C3_3 
REMARK    2  A    between atoms: C6_7  and  C7_8 
REMARK    3  A    between atoms: C15_17  and  C16_18 
REMARK    4  A    between atoms: C17_19  and  C18_20 
REMARK    5  A    between atoms: C20_22  and  O2_23 
REMARK    6  A    between atoms: O2_23  and  C21_24 
ROOT
HETATM    1  C3  UNL     1      22.002   0.533  52.826  1.00  0.00    -0.013 C 
HETATM    2  C4  UNL     1      22.962  -0.074  53.590  1.00  0.00     0.018 C 
HETATM    3  C5  UNL     1      24.154  -0.053  52.768  1.00  0.00     0.200 C 
HETATM    4  O1  UNL     1      25.263   0.661  53.233  1.00  0.00    -0.357 OA
HETATM    5  C6  UNL     1      26.231   0.547  52.197  1.00  0.00     0.279 C 
HETATM    6  N1  UNL     1      26.410   1.748  51.489  1.00  0.00    -0.252 NA
HETATM    7  C13 UNL     1      25.543   2.512  50.927  1.00  0.00     0.074 A 
HETATM    8  C14 UNL     1      26.451   3.429  50.463  1.00  0.00     0.061 A 
HETATM    9  C15 UNL     1      26.056   4.546  49.699  1.00  0.00     0.061 A 
HETATM   10  S1  UNL     1      24.194   4.271  49.630  1.00  0.00    -0.078 SA
HETATM   11  C23 UNL     1      24.186   2.733  50.610  1.00  0.00     0.045 A 
HETATM   12  C24 UNL     1      23.045   2.242  50.842  1.00  0.00     0.083 C 
HETATM   13  N3  UNL     1      22.495   1.165  51.587  1.00  0.00    -0.272 NA
HETATM   14  H25 UNL     1      22.644   1.925  52.351  1.00  0.00     0.132 HD
ENDROOT
BRANCH   9  15
HETATM   15  C16 UNL     1      26.554   5.708  48.998  1.00  0.00    -0.057 C 
HETATM   16  C17 UNL     1      26.971   6.633  48.428  1.00  0.00    -0.065 C 
BRANCH  16  17
HETATM   17  C18 UNL     1      27.495   7.769  47.700  1.00  0.00     0.301 C 
HETATM   18  C19 UNL     1      26.545   8.214  46.600  1.00  0.00     0.083 C 
HETATM   19  C20 UNL     1      27.479   8.871  45.620  1.00  0.00     0.162 C 
HETATM   20  C22 UNL     1      28.851   8.360  46.014  1.00  0.00     0.303 C 
HETATM   21  N2  UNL     1      28.615   7.263  46.930  1.00  0.00     0.102 N 
HETATM   22  H23 UNL     1      29.441   7.100  47.548  1.00  0.00     0.317 HD
BRANCH  19  23
HETATM   23  O2  UNL     1      27.166   8.529  44.280  1.00  0.00    -0.321 OA
BRANCH  23  24
HETATM   24  C21 UNL     1      26.541   9.427  43.434  1.00  0.00     0.398 C 
HETATM   25  O3  UNL     1      25.801  10.360  43.801  1.00  0.00    -0.276 OA
ENDBRANCH  23  24
ENDBRANCH  19  23
ENDBRANCH  16  17
ENDBRANCH   9  15
BRANCH   5  26
HETATM   26  C7  UNL     1      27.463   0.027  52.755  1.00  0.00    -0.008 A 
HETATM   27  C8  UNL     1      27.738  -1.322  52.809  1.00  0.00     0.011 A 
HETATM   28  C9  UNL     1      28.884  -1.864  53.321  1.00  0.00     0.001 A 
HETATM   29  C10 UNL     1      29.836  -0.982  53.823  1.00  0.00     0.000 A 
HETATM   30  C11 UNL     1      29.579   0.380  53.778  1.00  0.00     0.001 A 
HETATM   31  C12 UNL     1      28.401   0.918  53.250  1.00  0.00     0.011 A 
ENDBRANCH   5  26
BRANCH   1  32
HETATM   32  C2  UNL     1      20.527   0.853  53.006  1.00  0.00     0.046 C 
HETATM   33  C1  UNL     1      19.711   0.506  51.810  1.00  0.00     0.011 C 
ENDBRANCH   1  32
TORSDOF 6
ENDMDL
MODEL 4
REMARK VINA RESULT:      -8.5      4.018     10.920
REMARK  6 active torsions:
REMARK  status: ('A' for Active; 'I' for Inactive)
REMARK    1  A    between atoms: C2_2  and  C3_3 
REMARK    2  A    between atoms: C6_7  and  C7_8 
REMARK    3  A    between atoms: C15_17  and  C16_18 
REMARK    4  A    between atoms: C17_19  and  C18_20 
REMARK    5  A    between atoms: C20_22  and  O2_23 
REMARK    6  A    between atoms: O2_23  and  C21_24 
ROOT
HETATM    1  C3  UNL     1      27.630   0.932  53.489  1.00  0.00    -0.013 C 
HETATM    2  C4  UNL     1      27.685   2.118  52.809  1.00  0.00     0.018 C 
HETATM    3  C5  UNL     1      26.656   2.009  51.796  1.00  0.00     0.200 C 
HETATM    4  O1  UNL     1      25.590   2.914  51.838  1.00  0.00    -0.357 OA
HETATM    5  C6  UNL     1      24.733   2.518  50.774  1.00  0.00     0.279 C 
HETATM    6  N1  UNL     1      23.551   1.908  51.230  1.00  0.00    -0.252 NA
HETATM    7  C13 UNL     1      23.388   0.931  52.048  1.00  0.00     0.074 A 
HETATM    8  C14 UNL     1      22.020   0.920  51.977  1.00  0.00     0.061 A 
HETATM    9  C15 UNL     1      21.244  -0.019  52.688  1.00  0.00     0.061 A 
HETATM   10  S1  UNL     1      22.603  -0.996  53.554  1.00  0.00    -0.078 SA
HETATM   11  C23 UNL     1      23.998  -0.041  52.870  1.00  0.00     0.045 A 
HETATM   12  C24 UNL     1      25.143  -0.379  53.285  1.00  0.00     0.083 C 
HETATM   13  N3  UNL     1      26.485   0.066  53.148  1.00  0.00    -0.272 NA
HETATM   14  H25 UNL     1      26.091   0.742  53.903  1.00  0.00     0.132 HD
ENDROOT
BRANCH   9  15
HETATM   15  C16 UNL     1      19.890  -0.460  52.933  1.00  0.00    -0.057 C 
HETATM   16  C17 UNL     1      18.802  -0.829  53.116  1.00  0.00    -0.065 C 
BRANCH  16  17
HETATM   17  C18 UNL     1      17.456  -1.311  53.344  1.00  0.00     0.301 C 
HETATM   18  C19 UNL     1      17.433  -2.815  53.572  1.00  0.00     0.083 C 
HETATM   19  C20 UNL     1      16.041  -3.181  53.133  1.00  0.00     0.162 C 
HETATM   20  C22 UNL     1      15.585  -1.992  52.311  1.00  0.00     0.303 C 
HETATM   21  N2  UNL     1      16.774  -1.201  52.069  1.00  0.00     0.102 N 
HETATM   22  H23 UNL     1      16.532  -0.204  51.868  1.00  0.00     0.317 HD
BRANCH  19  23
HETATM   23  O2  UNL     1      16.025  -4.374  52.368  1.00  0.00    -0.321 OA
BRANCH  23  24
HETATM   24  C21 UNL     1      14.864  -4.835  51.774  1.00  0.00     0.398 C 
HETATM   25  O3  UNL     1      14.773  -5.240  50.599  1.00  0.00    -0.276 OA
ENDBRANCH  23  24
ENDBRANCH  19  23
ENDBRANCH  16  17
ENDBRANCH   9  15
BRANCH   5  26
HETATM   26  C7  UNL     1      24.489   3.656  49.913  1.00  0.00    -0.008 A 
HETATM   27  C8  UNL     1      25.429   4.644  49.710  1.00  0.00     0.011 A 
HETATM   28  C9  UNL     1      25.251   5.736  48.907  1.00  0.00     0.001 A 
HETATM   29  C10 UNL     1      24.029   5.851  48.251  1.00  0.00     0.000 A 
HETATM   30  C11 UNL     1      23.069   4.869  48.442  1.00  0.00     0.001 A 
HETATM   31  C12 UNL     1      23.268   3.757  49.267  1.00  0.00     0.011 A 
ENDBRANCH   5  26
BRANCH   1  32
HETATM   32  C2  UNL     1      28.398   0.321  54.650  1.00  0.00     0.046 C 
HETATM   33  C1  UNL     1      29.488  -0.590  54.204  1.00  0.00     0.011 C 
ENDBRANCH   1  32
TORSDOF 6
ENDMDL
MODEL 5
REMARK VINA RESULT:      -8.0      3.382      5.894
REMARK  6 active torsions:
REMARK  status: ('A' for Active; 'I' for Inactive)
REMARK    1  A    between atoms: C2_2  and  C3_3 
REMARK    2  A    between atoms: C6_7  and  C7_8 
REMARK    3  A    between atoms: C15_17  and  C16_18 
REMARK    4  A    between atoms: C17_19  and  C18_20 
REMARK    5  A    between atoms: C20_22  and  O2_23 
REMARK    6  A    between atoms: O2_23  and  C21_24 
ROOT
HETATM    1  C3  UNL     1      27.682   0.215  53.238  1.00  0.00    -0.013 C 
HETATM    2  C4  UNL     1      26.700  -0.682  53.562  1.00  0.00     0.018 C 
HETATM    3  C5  UNL     1      25.485   0.105  53.608  1.00  0.00     0.200 C 
HETATM    4  O1  UNL     1      24.465  -0.205  52.703  1.00  0.00    -0.357 OA
HETATM    5  C6  UNL     1      23.452   0.763  52.949  1.00  0.00     0.279 C 
HETATM    6  N1  UNL     1      23.358   1.720  51.924  1.00  0.00    -0.252 NA
HETATM    7  C13 UNL     1      24.269   2.454  51.394  1.00  0.00     0.074 A 
HETATM    8  C14 UNL     1      23.434   3.098  50.518  1.00  0.00     0.061 A 
HETATM    9  C15 UNL     1      23.900   4.100  49.643  1.00  0.00     0.061 A 
HETATM   10  S1  UNL     1      25.726   4.135  50.109  1.00  0.00    -0.078 SA
HETATM   11  C23 UNL     1      25.629   2.834  51.383  1.00  0.00     0.045 A 
HETATM   12  C24 UNL     1      26.728   2.516  51.919  1.00  0.00     0.083 C 
HETATM   13  N3  UNL     1      27.204   1.556  52.852  1.00  0.00    -0.272 NA
HETATM   14  H25 UNL     1      27.154   0.981  51.930  1.00  0.00     0.132 HD
ENDROOT
BRANCH   9  15
HETATM   15  C16 UNL     1      23.486   5.037  48.624  1.00  0.00    -0.057 C 
HETATM   16  C17 UNL     1      23.147   5.805  47.818  1.00  0.00    -0.065 C 
BRANCH  16  17
HETATM   17  C18 UNL     1      22.739   6.778  46.827  1.00  0.00     0.301 C 
HETATM   18  C19 UNL     1      22.881   6.230  45.415  1.00  0.00     0.083 C 
HETATM   19  C20 UNL     1      23.062   7.486  44.605  1.00  0.00     0.162 C 
HETATM   20  C22 UNL     1      23.445   8.537  45.628  1.00  0.00     0.303 C 
HETATM   21  N2  UNL     1      23.756   7.810  46.842  1.00  0.00     0.102 N 
HETATM   22  H23 UNL     1      23.649   8.417  47.686  1.00  0.00     0.317 HD
BRANCH  19  23
HETATM   23  O2  UNL     1      24.068   7.337  43.617  1.00  0.00    -0.321 OA
BRANCH  23  24
HETATM   24  C21 UNL     1      25.056   8.288  43.445  1.00  0.00     0.398 C 
HETATM   25  O3  UNL     1      26.277   8.089  43.600  1.00  0.00    -0.276 OA
ENDBRANCH  23  24
ENDBRANCH  19  23
ENDBRANCH  16  17
ENDBRANCH   9  15
BRANCH   5  26
HETATM   26  C7  UNL     1      22.200   0.083  53.208  1.00  0.00    -0.008 A 
HETATM   27  C8  UNL     1      22.105  -0.989  54.069  1.00  0.00     0.011 A 
HETATM   28  C9  UNL     1      20.950  -1.663  54.350  1.00  0.00     0.001 A 
HETATM   29  C10 UNL     1      19.790  -1.230  53.717  1.00  0.00     0.000 A 
HETATM   30  C11 UNL     1      19.863  -0.153  52.846  1.00  0.00     0.001 A 
HETATM   31  C12 UNL     1      21.054   0.526  52.569  1.00  0.00     0.011 A 
ENDBRANCH   5  26
BRANCH   1  32
HETATM   32  C2  UNL     1      29.187   0.135  53.032  1.00  0.00     0.046 C 
HETATM   33  C1  UNL     1      29.795  -1.060  53.678  1.00  0.00     0.011 C 
ENDBRANCH   1  32
TORSDOF 6
ENDMDL
MODEL 6
REMARK VINA RESULT:      -7.9      2.757      5.544
REMARK  6 active torsions:
REMARK  status: ('A' for Active; 'I' for Inactive)
REMARK    1  A    between atoms: C2_2  and  C3_3 
REMARK    2  A    between atoms: C6_7  and  C7_8 
REMARK    3  A    between atoms: C15_17  and  C16_18 
REMARK    4  A    between atoms: C17_19  and  C18_20 
REMARK    5  A    between atoms: C20_22  and  O2_23 
REMARK    6  A    between atoms: O2_23  and  C21_24 
ROOT
HETATM    1  C3  UNL     1      27.500  -0.636  53.265  1.00  0.00    -0.013 C 
HETATM    2  C4  UNL     1      26.396  -1.407  53.511  1.00  0.00     0.018 C 
HETATM    3  C5  UNL     1      25.301  -0.464  53.602  1.00  0.00     0.200 C 
HETATM    4  O1  UNL     1      24.267  -0.562  52.666  1.00  0.00    -0.357 OA
HETATM    5  C6  UNL     1      23.393   0.518  52.973  1.00  0.00     0.279 C 
HETATM    6  N1  UNL     1      23.455   1.550  52.021  1.00  0.00    -0.252 NA
HETATM    7  C13 UNL     1      24.470   2.186  51.556  1.00  0.00     0.074 A 
HETATM    8  C14 UNL     1      23.750   3.002  50.722  1.00  0.00     0.061 A 
HETATM    9  C15 UNL     1      24.369   3.989  49.929  1.00  0.00     0.061 A 
HETATM   10  S1  UNL     1      26.172   3.735  50.416  1.00  0.00    -0.078 SA
HETATM   11  C23 UNL     1      25.869   2.372  51.589  1.00  0.00     0.045 A 
HETATM   12  C24 UNL     1      26.902   1.865  52.111  1.00  0.00     0.083 C 
HETATM   13  N3  UNL     1      27.220   0.783  52.976  1.00  0.00    -0.272 NA
HETATM   14  H25 UNL     1      27.110   0.289  52.013  1.00  0.00     0.132 HD
ENDROOT
BRANCH   9  15
HETATM   15  C16 UNL     1      24.111   5.046  48.978  1.00  0.00    -0.057 C 
HETATM   16  C17 UNL     1      23.922   5.903  48.214  1.00  0.00    -0.065 C 
BRANCH  16  17
HETATM   17  C18 UNL     1      23.708   6.963  47.251  1.00  0.00     0.301 C 
HETATM   18  C19 UNL     1      24.943   7.838  47.099  1.00  0.00     0.083 C 
HETATM   19  C20 UNL     1      24.351   9.144  46.643  1.00  0.00     0.162 C 
HETATM   20  C22 UNL     1      22.882   9.033  47.000  1.00  0.00     0.303 C 
HETATM   21  N2  UNL     1      22.775   7.881  47.873  1.00  0.00     0.102 N 
HETATM   22  H23 UNL     1      21.808   7.485  47.861  1.00  0.00     0.317 HD
BRANCH  19  23
HETATM   23  O2  UNL     1      24.957  10.252  47.288  1.00  0.00    -0.321 OA
BRANCH  23  24
HETATM   24  C21 UNL     1      25.614  10.112  48.497  1.00  0.00     0.398 C 
HETATM   25  O3  UNL     1      26.436  10.924  48.963  1.00  0.00    -0.276 OA
ENDBRANCH  23  24
ENDBRANCH  19  23
ENDBRANCH  16  17
ENDBRANCH   9  15
BRANCH   5  26
HETATM   26  C7  UNL     1      22.053   0.003  53.166  1.00  0.00    -0.008 A 
HETATM   27  C8  UNL     1      20.971   0.474  52.456  1.00  0.00     0.011 A 
HETATM   28  C9  UNL     1      19.689   0.022  52.597  1.00  0.00     0.001 A 
HETATM   29  C10 UNL     1      19.470  -0.988  53.529  1.00  0.00     0.000 A 
HETATM   30  C11 UNL     1      20.545  -1.476  54.255  1.00  0.00     0.001 A 
HETATM   31  C12 UNL     1      21.851  -1.002  54.097  1.00  0.00     0.011 A 
ENDBRANCH   5  26
BRANCH   1  32
HETATM   32  C2  UNL     1      28.983  -0.910  53.070  1.00  0.00     0.046 C 
HETATM   33  C1  UNL     1      29.848   0.062  53.792  1.00  0.00     0.011 C 
ENDBRANCH   1  32
TORSDOF 6
ENDMDL
MODEL 7
REMARK VINA RESULT:      -7.8      4.746      9.844
REMARK  6 active torsions:
REMARK  status: ('A' for Active; 'I' for Inactive)
REMARK    1  A    between atoms: C2_2  and  C3_3 
REMARK    2  A    between atoms: C6_7  and  C7_8 
REMARK    3  A    between atoms: C15_17  and  C16_18 
REMARK    4  A    between atoms: C17_19  and  C18_20 
REMARK    5  A    between atoms: C20_22  and  O2_23 
REMARK    6  A    between atoms: O2_23  and  C21_24 
ROOT
HETATM    1  C3  UNL     1      26.694   0.901  53.176  1.00  0.00    -0.013 C 
HETATM    2  C4  UNL     1      27.405   1.942  52.640  1.00  0.00     0.018 C 
HETATM    3  C5  UNL     1      26.679   2.304  51.441  1.00  0.00     0.200 C 
HETATM    4  O1  UNL     1      26.130   3.588  51.365  1.00  0.00    -0.357 OA
HETATM    5  C6  UNL     1      25.441   3.617  50.121  1.00  0.00     0.279 C 
HETATM    6  N1  UNL     1      24.044   3.595  50.275  1.00  0.00    -0.252 NA
HETATM    7  C13 UNL     1      23.300   2.789  50.944  1.00  0.00     0.074 A 
HETATM    8  C14 UNL     1      22.114   3.388  50.607  1.00  0.00     0.061 A 
HETATM    9  C15 UNL     1      20.874   2.888  51.055  1.00  0.00     0.061 A 
HETATM   10  S1  UNL     1      21.450   1.407  52.068  1.00  0.00    -0.078 SA
HETATM   11  C23 UNL     1      23.232   1.645  51.767  1.00  0.00     0.045 A 
HETATM   12  C24 UNL     1      23.996   0.832  52.361  1.00  0.00     0.083 C 
HETATM   13  N3  UNL     1      25.393   0.635  52.533  1.00  0.00    -0.272 NA
HETATM   14  H25 UNL     1      25.176   1.413  53.261  1.00  0.00     0.132 HD
ENDROOT
BRANCH   9  15
HETATM   15  C16 UNL     1      19.445   3.094  50.987  1.00  0.00    -0.057 C 
HETATM   16  C17 UNL     1      18.295   3.252  50.913  1.00  0.00    -0.065 C 
BRANCH  16  17
HETATM   17  C18 UNL     1      16.861   3.425  50.813  1.00  0.00     0.301 C 
HETATM   18  C19 UNL     1      16.336   4.367  51.885  1.00  0.00     0.083 C 
HETATM   19  C20 UNL     1      14.910   3.910  52.038  1.00  0.00     0.162 C 
HETATM   20  C22 UNL     1      14.890   2.533  51.406  1.00  0.00     0.303 C 
HETATM   21  N2  UNL     1      16.280   2.163  51.225  1.00  0.00     0.102 N 
HETATM   22  H23 UNL     1      16.386   1.447  50.470  1.00  0.00     0.317 HD
BRANCH  19  23
HETATM   23  O2  UNL     1      14.514   3.860  53.398  1.00  0.00    -0.321 OA
BRANCH  23  24
HETATM   24  C21 UNL     1      13.319   4.412  53.822  1.00  0.00     0.398 C 
HETATM   25  O3  UNL     1      12.279   4.478  53.139  1.00  0.00    -0.276 OA
ENDBRANCH  23  24
ENDBRANCH  19  23
ENDBRANCH  16  17
ENDBRANCH   9  15
BRANCH   5  26
HETATM   26  C7  UNL     1      25.909   4.749  49.347  1.00  0.00    -0.008 A 
HETATM   27  C8  UNL     1      27.226   4.889  48.965  1.00  0.00     0.011 A 
HETATM   28  C9  UNL     1      27.719   5.933  48.234  1.00  0.00     0.001 A 
HETATM   29  C10 UNL     1      26.818   6.922  47.851  1.00  0.00     0.000 A 
HETATM   30  C11 UNL     1      25.489   6.801  48.224  1.00  0.00     0.001 A 
HETATM   31  C12 UNL     1      25.001   5.725  48.973  1.00  0.00     0.011 A 
ENDBRANCH   5  26
BRANCH   1  32
HETATM   32  C2  UNL     1      26.848   0.008  54.397  1.00  0.00     0.046 C 
HETATM   33  C1  UNL     1      28.248  -0.045  54.899  1.00  0.00     0.011 C 
ENDBRANCH   1  32
TORSDOF 6
ENDMDL
MODEL 8
REMARK VINA RESULT:      -7.8      3.503      6.105
REMARK  6 active torsions:
REMARK  status: ('A' for Active; 'I' for Inactive)
REMARK    1  A    between atoms: C2_2  and  C3_3 
REMARK    2  A    between atoms: C6_7  and  C7_8 
REMARK    3  A    between atoms: C15_17  and  C16_18 
REMARK    4  A    between atoms: C17_19  and  C18_20 
REMARK    5  A    between atoms: C20_22  and  O2_23 
REMARK    6  A    between atoms: O2_23  and  C21_24 
ROOT
HETATM    1  C3  UNL     1      22.076   0.073  52.426  1.00  0.00    -0.013 C 
HETATM    2  C4  UNL     1      21.094   0.081  51.473  1.00  0.00     0.018 C 
HETATM    3  C5  UNL     1      21.176   1.395  50.871  1.00  0.00     0.200 C 
HETATM    4  O1  UNL     1      21.492   1.479  49.511  1.00  0.00    -0.357 OA
HETATM    5  C6  UNL     1      21.558   2.873  49.237  1.00  0.00     0.279 C 
HETATM    6  N1  UNL     1      22.874   3.323  49.036  1.00  0.00    -0.252 NA
HETATM    7  C13 UNL     1      23.920   3.171  49.767  1.00  0.00     0.074 A 
HETATM    8  C14 UNL     1      24.765   3.868  48.943  1.00  0.00     0.061 A 
HETATM    9  C15 UNL     1      26.122   4.070  49.267  1.00  0.00     0.061 A 
HETATM   10  S1  UNL     1      26.214   3.171  50.921  1.00  0.00    -0.078 SA
HETATM   11  C23 UNL     1      24.466   2.655  50.961  1.00  0.00     0.045 A 
HETATM   12  C24 UNL     1      24.134   1.940  51.949  1.00  0.00     0.083 C 
HETATM   13  N3  UNL     1      22.984   1.235  52.398  1.00  0.00    -0.272 NA
HETATM   14  H25 UNL     1      23.412   0.547  51.674  1.00  0.00     0.132 HD
ENDROOT
BRANCH   9  15
HETATM   15  C16 UNL     1      27.344   4.694  48.814  1.00  0.00    -0.057 C 
HETATM   16  C17 UNL     1      28.324   5.213  48.460  1.00  0.00    -0.065 C 
BRANCH  16  17
HETATM   17  C18 UNL     1      29.547   5.865  48.043  1.00  0.00     0.301 C 
HETATM   18  C19 UNL     1      30.569   4.861  47.532  1.00  0.00     0.083 C 
HETATM   19  C20 UNL     1      31.869   5.575  47.787  1.00  0.00     0.162 C 
HETATM   20  C22 UNL     1      31.510   6.659  48.783  1.00  0.00     0.303 C 
HETATM   21  N2  UNL     1      30.182   6.331  49.261  1.00  0.00     0.102 N 
HETATM   22  H23 UNL     1      29.691   7.178  49.628  1.00  0.00     0.317 HD
BRANCH  19  23
HETATM   23  O2  UNL     1      32.857   4.702  48.308  1.00  0.00    -0.321 OA
BRANCH  23  24
HETATM   24  C21 UNL     1      33.000   3.410  47.835  1.00  0.00     0.398 C 
HETATM   25  O3  UNL     1      34.085   2.870  47.543  1.00  0.00    -0.276 OA
ENDBRANCH  23  24
ENDBRANCH  19  23
ENDBRANCH  16  17
ENDBRANCH   9  15
BRANCH   5  26
HETATM   26  C7  UNL     1      20.677   3.180  48.128  1.00  0.00    -0.008 A 
HETATM   27  C8  UNL     1      21.150   3.588  46.900  1.00  0.00     0.011 A 
HETATM   28  C9  UNL     1      20.364   3.887  45.822  1.00  0.00     0.001 A 
HETATM   29  C10 UNL     1      18.988   3.769  45.986  1.00  0.00     0.000 A 
HETATM   30  C11 UNL     1      18.491   3.361  47.214  1.00  0.00     0.001 A 
HETATM   31  C12 UNL     1      19.309   3.058  48.307  1.00  0.00     0.011 A 
ENDBRANCH   5  26
BRANCH   1  32
HETATM   32  C2  UNL     1      22.572  -0.933  53.453  1.00  0.00     0.046 C 
HETATM   33  C1  UNL     1      21.936  -0.755  54.787  1.00  0.00     0.011 C 
ENDBRANCH   1  32
TORSDOF 6
ENDMDL
MODEL 9
REMARK VINA RESULT:      -7.8      5.291      7.806
REMARK  6 active torsions:
REMARK  status: ('A' for Active; 'I' for Inactive)
REMARK    1  A    between atoms: C2_2  and  C3_3 
REMARK    2  A    between atoms: C6_7  and  C7_8 
REMARK    3  A    between atoms: C15_17  and  C16_18 
REMARK    4  A    between atoms: C17_19  and  C18_20 
REMARK    5  A    between atoms: C20_22  and  O2_23 
REMARK    6  A    between atoms: O2_23  and  C21_24 
ROOT
HETATM    1  C3  UNL     1      24.996   0.608  53.197  1.00  0.00    -0.013 C 
HETATM    2  C4  UNL     1      24.080  -0.406  53.132  1.00  0.00     0.018 C 
HETATM    3  C5  UNL     1      22.800   0.241  53.328  1.00  0.00     0.200 C 
HETATM    4  O1  UNL     1      21.864   0.181  52.290  1.00  0.00    -0.357 OA
HETATM    5  C6  UNL     1      20.757   0.946  52.752  1.00  0.00     0.279 C 
HETATM    6  N1  UNL     1      20.638   2.179  52.089  1.00  0.00    -0.252 NA
HETATM    7  C13 UNL     1      21.510   3.105  51.902  1.00  0.00     0.074 A 
HETATM    8  C14 UNL     1      20.672   3.945  51.216  1.00  0.00     0.061 A 
HETATM    9  C15 UNL     1      21.097   5.207  50.754  1.00  0.00     0.061 A 
HETATM   10  S1  UNL     1      22.883   5.205  51.356  1.00  0.00    -0.078 SA
HETATM   11  C23 UNL     1      22.828   3.554  52.128  1.00  0.00     0.045 A 
HETATM   12  C24 UNL     1      23.919   3.149  52.621  1.00  0.00     0.083 C 
HETATM   13  N3  UNL     1      24.424   1.968  53.229  1.00  0.00    -0.272 NA
HETATM   14  H25 UNL     1      24.478   1.726  52.170  1.00  0.00     0.132 HD
ENDROOT
BRANCH   9  15
HETATM   15  C16 UNL     1      20.661   6.399  50.063  1.00  0.00    -0.057 C 
HETATM   16  C17 UNL     1      20.293   7.359  49.517  1.00  0.00    -0.065 C 
BRANCH  16  17
HETATM   17  C18 UNL     1      19.829   8.563  48.860  1.00  0.00     0.301 C 
HETATM   18  C19 UNL     1      20.856   9.681  48.953  1.00  0.00     0.083 C 
HETATM   19  C20 UNL     1      19.996  10.911  48.847  1.00  0.00     0.162 C 
HETATM   20  C22 UNL     1      18.596  10.414  49.149  1.00  0.00     0.303 C 
HETATM   21  N2  UNL     1      18.760   9.080  49.692  1.00  0.00     0.102 N 
HETATM   22  H23 UNL     1      17.892   8.511  49.568  1.00  0.00     0.317 HD
BRANCH  19  23
HETATM   23  O2  UNL     1      20.396  11.916  49.763  1.00  0.00    -0.321 OA
BRANCH  23  24
HETATM   24  C21 UNL     1      20.728  13.189  49.338  1.00  0.00     0.398 C 
HETATM   25  O3  UNL     1      20.541  14.234  49.991  1.00  0.00    -0.276 OA
ENDBRANCH  23  24
ENDBRANCH  19  23
ENDBRANCH  16  17
ENDBRANCH   9  15
BRANCH   5  26
HETATM   26  C7  UNL     1      19.557   0.139  52.672  1.00  0.00    -0.008 A 
HETATM   27  C8  UNL     1      19.306  -0.900  53.542  1.00  0.00     0.011 A 
HETATM   28  C9  UNL     1      18.190  -1.689  53.512  1.00  0.00     0.001 A 
HETATM   29  C10 UNL     1      17.244  -1.417  52.528  1.00  0.00     0.000 A 
HETATM   30  C11 UNL     1      17.478  -0.376  51.642  1.00  0.00     0.001 A 
HETATM   31  C12 UNL     1      18.625   0.423  51.687  1.00  0.00     0.011 A 
ENDBRANCH   5  26
BRANCH   1  32
HETATM   32  C2  UNL     1      26.511   0.698  53.102  1.00  0.00     0.046 C 
HETATM   33  C1  UNL     1      27.138  -0.578  52.664  1.00  0.00     0.011 C 
ENDBRANCH   1  32
TORSDOF 6
ENDMDL
