MODEL 1
REMARK VINA RESULT:      -6.9      0.000      0.000
REMARK  6 active torsions:
REMARK  status: ('A' for Active; 'I' for Inactive)
REMARK    1  A    between atoms: C3_3  and  S1_4 
REMARK    2  A    between atoms: S1_4  and  N1_5 
REMARK    3  A    between atoms: N1_5  and  C4_6 
REMARK    4  A    between atoms: C4_6  and  C5_7 
REMARK       I    between atoms: C5_7  and  N2_9 
REMARK    5  A    between atoms: N2_9  and  C6_10 
REMARK    6  A    between atoms: C11_17  and  C12_18 
ROOT
HETATM    1  C6  UNL     1      24.342   3.004  52.734  1.00  0.00     0.035 A 
HETATM    2  C7  UNL     1      23.824   4.070  52.040  1.00  0.00     0.032 A 
HETATM    3  C8  UNL     1      22.516   4.201  51.625  1.00  0.00     0.035 A 
HETATM    4  C9  UNL     1      21.639   3.180  51.924  1.00  0.00     0.070 A 
HETATM    5  N3  UNL     1      20.347   3.243  51.550  1.00  0.00    -0.241 NA
HETATM    6  C10 UNL     1      19.527   2.205  51.874  1.00  0.00     0.234 A 
HETATM    7  N4  UNL     1      20.004   1.126  52.563  1.00  0.00    -0.241 NA
HETATM    8  C11 UNL     1      21.277   1.055  52.937  1.00  0.00     0.077 A 
HETATM    9  C15 UNL     1      22.118   2.090  52.620  1.00  0.00     0.024 A 
HETATM   10  C16 UNL     1      23.436   2.008  53.012  1.00  0.00     0.045 A 
ENDROOT
BRANCH   1  11
HETATM   11  N2  UNL     1      25.671   2.834  53.175  1.00  0.00    -0.326 N 
HETATM   12  C5  UNL     1      26.806   2.412  52.448  1.00  0.00     0.235 C 
HETATM   13  O1  UNL     1      26.700   2.131  51.243  1.00  0.00    -0.272 OA
HETATM   14  H9  UNL     1      25.921   3.031  54.168  1.00  0.00     0.169 HD
BRANCH  12  15
HETATM   15  C4  UNL     1      28.170   2.265  53.012  1.00  0.00     0.202 C 
BRANCH  15  16
HETATM   16  N1  UNL     1      28.145   1.705  54.357  1.00  0.00    -0.256 NA
HETATM   17  H6  UNL     1      29.122   1.747  54.754  1.00  0.00     0.135 HD
BRANCH  16  18
HETATM   18  S1  UNL     1      27.698  -0.002  54.334  1.00  0.00    -0.056 SA
BRANCH  18  19
HETATM   19  C3  UNL     1      25.984  -0.248  54.728  1.00  0.00     0.057 C 
HETATM   20  C2  UNL     1      25.706  -0.957  53.633  1.00  0.00    -0.023 C 
HETATM   21  C1  UNL     1      26.813  -1.205  52.671  1.00  0.00     0.036 C 
ENDBRANCH  18  19
ENDBRANCH  16  18
ENDBRANCH  15  16
ENDBRANCH  12  15
ENDBRANCH   1  11
BRANCH   8  22
HETATM   22  C12 UNL     1      21.739  -0.130  53.679  1.00  0.00    -0.028 A 
HETATM   23  C13 UNL     1      22.082  -1.387  53.554  1.00  0.00    -0.012 A 
HETATM   24  C14 UNL     1      22.154  -0.871  54.921  1.00  0.00     0.068 A 
ENDBRANCH   8  22
TORSDOF 6
ENDMDL
MODEL 2
REMARK VINA RESULT:      -6.9      2.922      6.664
REMARK  6 active torsions:
REMARK  status: ('A' for Active; 'I' for Inactive)
REMARK    1  A    between atoms: C3_3  and  S1_4 
REMARK    2  A    between atoms: S1_4  and  N1_5 
REMARK    3  A    between atoms: N1_5  and  C4_6 
REMARK    4  A    between atoms: C4_6  and  C5_7 
REMARK       I    between atoms: C5_7  and  N2_9 
REMARK    5  A    between atoms: N2_9  and  C6_10 
REMARK    6  A    between atoms: C11_17  and  C12_18 
ROOT
HETATM    1  C6  UNL     1      24.589  -0.183  53.929  1.00  0.00     0.035 A 
HETATM    2  C7  UNL     1      25.366  -0.614  54.977  1.00  0.00     0.032 A 
HETATM    3  C8  UNL     1      26.655  -0.207  55.243  1.00  0.00     0.035 A 
HETATM    4  C9  UNL     1      27.231   0.711  54.390  1.00  0.00     0.070 A 
HETATM    5  N3  UNL     1      28.488   1.152  54.591  1.00  0.00    -0.241 NA
HETATM    6  C10 UNL     1      29.003   2.060  53.716  1.00  0.00     0.234 A 
HETATM    7  N4  UNL     1      28.263   2.513  52.661  1.00  0.00    -0.241 NA
HETATM    8  C11 UNL     1      27.022   2.084  52.455  1.00  0.00     0.077 A 
HETATM    9  C15 UNL     1      26.485   1.169  53.325  1.00  0.00     0.024 A 
HETATM   10  C16 UNL     1      25.198   0.731  53.104  1.00  0.00     0.045 A 
ENDROOT
BRANCH   1  11
HETATM   11  N2  UNL     1      23.269  -0.575  53.626  1.00  0.00    -0.326 N 
HETATM   12  C5  UNL     1      22.318  -1.220  54.446  1.00  0.00     0.235 C 
HETATM   13  O1  UNL     1      22.610  -1.518  55.615  1.00  0.00    -0.272 OA
HETATM   14  H9  UNL     1      22.874  -0.392  52.677  1.00  0.00     0.169 HD
BRANCH  12  15
HETATM   15  C4  UNL     1      20.944  -1.591  54.025  1.00  0.00     0.202 C 
BRANCH  15  16
HETATM   16  N1  UNL     1      20.026  -0.463  54.107  1.00  0.00    -0.256 NA
HETATM   17  H6  UNL     1      19.062  -0.832  54.322  1.00  0.00     0.135 HD
BRANCH  16  18
HETATM   18  S1  UNL     1      19.896   0.376  52.560  1.00  0.00    -0.056 SA
BRANCH  18  19
HETATM   19  C3  UNL     1      20.680   1.968  52.596  1.00  0.00     0.057 C 
HETATM   20  C2  UNL     1      21.433   1.760  51.515  1.00  0.00    -0.023 C 
HETATM   21  C1  UNL     1      21.308   0.447  50.828  1.00  0.00     0.036 C 
ENDBRANCH  18  19
ENDBRANCH  16  18
ENDBRANCH  15  16
ENDBRANCH  12  15
ENDBRANCH   1  11
BRANCH   8  22
HETATM   22  C12 UNL     1      26.268   2.604  51.303  1.00  0.00    -0.028 A 
HETATM   23  C13 UNL     1      26.306   2.779  50.006  1.00  0.00    -0.012 A 
HETATM   24  C14 UNL     1      25.079   3.252  50.646  1.00  0.00     0.068 A 
ENDBRANCH   8  22
TORSDOF 6
ENDMDL
MODEL 3
REMARK VINA RESULT:      -6.8      2.171      3.534
REMARK  6 active torsions:
REMARK  status: ('A' for Active; 'I' for Inactive)
REMARK    1  A    between atoms: C3_3  and  S1_4 
REMARK    2  A    between atoms: S1_4  and  N1_5 
REMARK    3  A    between atoms: N1_5  and  C4_6 
REMARK    4  A    between atoms: C4_6  and  C5_7 
REMARK       I    between atoms: C5_7  and  N2_9 
REMARK    5  A    between atoms: N2_9  and  C6_10 
REMARK    6  A    between atoms: C11_17  and  C12_18 
ROOT
HETATM    1  C6  UNL     1      23.358   0.280  52.994  1.00  0.00     0.035 A 
HETATM    2  C7  UNL     1      22.856  -0.293  54.137  1.00  0.00     0.032 A 
HETATM    3  C8  UNL     1      21.539  -0.641  54.350  1.00  0.00     0.035 A 
HETATM    4  C9  UNL     1      20.635  -0.398  53.337  1.00  0.00     0.070 A 
HETATM    5  N3  UNL     1      19.334  -0.714  53.479  1.00  0.00    -0.241 NA
HETATM    6  C10 UNL     1      18.488  -0.451  52.444  1.00  0.00     0.234 A 
HETATM    7  N4  UNL     1      18.948   0.118  51.291  1.00  0.00    -0.241 NA
HETATM    8  C11 UNL     1      20.231   0.433  51.143  1.00  0.00     0.077 A 
HETATM    9  C15 UNL     1      21.099   0.176  52.173  1.00  0.00     0.024 A 
HETATM   10  C16 UNL     1      22.426   0.506  52.010  1.00  0.00     0.045 A 
ENDROOT
BRANCH   1  11
HETATM   11  N2  UNL     1      24.695   0.650  52.740  1.00  0.00    -0.326 N 
HETATM   12  C5  UNL     1      25.338   1.887  52.966  1.00  0.00     0.235 C 
HETATM   13  O1  UNL     1      24.703   2.834  53.455  1.00  0.00    -0.272 OA
HETATM   14  H9  UNL     1      25.359  -0.041  52.327  1.00  0.00     0.169 HD
BRANCH  12  15
HETATM   15  C4  UNL     1      26.762   2.173  52.659  1.00  0.00     0.202 C 
BRANCH  15  16
HETATM   16  N1  UNL     1      27.530   2.463  53.862  1.00  0.00    -0.256 NA
HETATM   17  H6  UNL     1      28.091   3.340  53.697  1.00  0.00     0.135 HD
BRANCH  16  18
HETATM   18  S1  UNL     1      28.702   1.188  54.200  1.00  0.00    -0.056 SA
BRANCH  18  19
HETATM   19  C3  UNL     1      27.969  -0.428  54.132  1.00  0.00     0.057 C 
HETATM   20  C2  UNL     1      29.046  -1.032  53.627  1.00  0.00    -0.023 C 
HETATM   21  C1  UNL     1      30.249  -0.196  53.370  1.00  0.00     0.036 C 
ENDBRANCH  18  19
ENDBRANCH  16  18
ENDBRANCH  15  16
ENDBRANCH  12  15
ENDBRANCH   1  11
BRANCH   8  22
HETATM   22  C12 UNL     1      20.675   1.045  49.879  1.00  0.00    -0.028 A 
HETATM   23  C13 UNL     1      20.454   2.031  49.047  1.00  0.00    -0.012 A 
HETATM   24  C14 UNL     1      21.545   1.139  48.655  1.00  0.00     0.068 A 
ENDBRANCH   8  22
TORSDOF 6
ENDMDL
MODEL 4
REMARK VINA RESULT:      -6.7      4.161      6.342
REMARK  6 active torsions:
REMARK  status: ('A' for Active; 'I' for Inactive)
REMARK    1  A    between atoms: C3_3  and  S1_4 
REMARK    2  A    between atoms: S1_4  and  N1_5 
REMARK    3  A    between atoms: N1_5  and  C4_6 
REMARK    4  A    between atoms: C4_6  and  C5_7 
REMARK       I    between atoms: C5_7  and  N2_9 
REMARK    5  A    between atoms: N2_9  and  C6_10 
REMARK    6  A    between atoms: C11_17  and  C12_18 
ROOT
HETATM    1  C6  UNL     1      25.953   2.736  51.232  1.00  0.00     0.035 A 
HETATM    2  C7  UNL     1      24.585   2.606  51.220  1.00  0.00     0.032 A 
HETATM    3  C8  UNL     1      23.857   1.710  51.972  1.00  0.00     0.035 A 
HETATM    4  C9  UNL     1      24.546   0.861  52.812  1.00  0.00     0.070 A 
HETATM    5  N3  UNL     1      23.896  -0.039  53.575  1.00  0.00    -0.241 NA
HETATM    6  C10 UNL     1      24.630  -0.850  54.386  1.00  0.00     0.234 A 
HETATM    7  N4  UNL     1      25.992  -0.752  54.427  1.00  0.00    -0.241 NA
HETATM    8  C11 UNL     1      26.641   0.134  53.679  1.00  0.00     0.077 A 
HETATM    9  C15 UNL     1      25.920   0.959  52.854  1.00  0.00     0.024 A 
HETATM   10  C16 UNL     1      26.602   1.874  52.082  1.00  0.00     0.045 A 
ENDROOT
BRANCH   1  11
HETATM   11  N2  UNL     1      26.733   3.640  50.480  1.00  0.00    -0.326 N 
HETATM   12  C5  UNL     1      26.339   4.501  49.433  1.00  0.00     0.235 C 
HETATM   13  O1  UNL     1      25.155   4.525  49.063  1.00  0.00    -0.272 OA
HETATM   14  H9  UNL     1      27.754   3.735  50.674  1.00  0.00     0.169 HD
BRANCH  12  15
HETATM   15  C4  UNL     1      27.248   5.419  48.701  1.00  0.00     0.202 C 
BRANCH  15  16
HETATM   16  N1  UNL     1      28.643   5.201  49.057  1.00  0.00    -0.256 NA
HETATM   17  H6  UNL     1      28.747   5.332  50.099  1.00  0.00     0.135 HD
BRANCH  16  18
HETATM   18  S1  UNL     1      29.695   6.403  48.306  1.00  0.00    -0.056 SA
BRANCH  18  19
HETATM   19  C3  UNL     1      31.376   6.256  48.858  1.00  0.00     0.057 C 
HETATM   20  C2  UNL     1      31.499   7.533  49.221  1.00  0.00    -0.023 C 
HETATM   21  C1  UNL     1      30.322   8.422  49.031  1.00  0.00     0.036 C 
ENDBRANCH  18  19
ENDBRANCH  16  18
ENDBRANCH  15  16
ENDBRANCH  12  15
ENDBRANCH   1  11
BRANCH   8  22
HETATM   22  C12 UNL     1      28.110   0.198  53.760  1.00  0.00    -0.028 A 
HETATM   23  C13 UNL     1      29.214  -0.444  53.472  1.00  0.00    -0.012 A 
HETATM   24  C14 UNL     1      29.416   0.846  54.131  1.00  0.00     0.068 A 
ENDBRANCH   8  22
TORSDOF 6
ENDMDL
MODEL 5
REMARK VINA RESULT:      -6.6      3.559      5.963
REMARK  6 active torsions:
REMARK  status: ('A' for Active; 'I' for Inactive)
REMARK    1  A    between atoms: C3_3  and  S1_4 
REMARK    2  A    between atoms: S1_4  and  N1_5 
REMARK    3  A    between atoms: N1_5  and  C4_6 
REMARK    4  A    between atoms: C4_6  and  C5_7 
REMARK       I    between atoms: C5_7  and  N2_9 
REMARK    5  A    between atoms: N2_9  and  C6_10 
REMARK    6  A    between atoms: C11_17  and  C12_18 
ROOT
HETATM    1  C6  UNL     1      24.401   2.721  51.620  1.00  0.00     0.035 A 
HETATM    2  C7  UNL     1      23.198   2.080  51.791  1.00  0.00     0.032 A 
HETATM    3  C8  UNL     1      22.975   0.995  52.610  1.00  0.00     0.035 A 
HETATM    4  C9  UNL     1      24.042   0.495  53.326  1.00  0.00     0.070 A 
HETATM    5  N3  UNL     1      23.894  -0.563  54.145  1.00  0.00    -0.241 NA
HETATM    6  C10 UNL     1      24.985  -1.011  54.827  1.00  0.00     0.234 A 
HETATM    7  N4  UNL     1      26.198  -0.401  54.685  1.00  0.00    -0.241 NA
HETATM    8  C11 UNL     1      26.354   0.644  53.879  1.00  0.00     0.077 A 
HETATM    9  C15 UNL     1      25.268   1.110  53.183  1.00  0.00     0.024 A 
HETATM   10  C16 UNL     1      25.439   2.194  52.350  1.00  0.00     0.045 A 
ENDROOT
BRANCH   1  11
HETATM   11  N2  UNL     1      24.668   3.832  50.793  1.00  0.00    -0.326 N 
HETATM   12  C5  UNL     1      24.328   5.190  50.984  1.00  0.00     0.235 C 
HETATM   13  O1  UNL     1      23.705   5.534  52.000  1.00  0.00    -0.272 OA
HETATM   14  H9  UNL     1      25.188   3.704  49.897  1.00  0.00     0.169 HD
BRANCH  12  15
HETATM   15  C4  UNL     1      24.660   6.289  50.044  1.00  0.00     0.202 C 
BRANCH  15  16
HETATM   16  N1  UNL     1      26.015   6.786  50.245  1.00  0.00    -0.256 NA
HETATM   17  H6  UNL     1      25.967   7.827  50.413  1.00  0.00     0.135 HD
BRANCH  16  18
HETATM   18  S1  UNL     1      27.002   6.569  48.798  1.00  0.00    -0.056 SA
BRANCH  18  19
HETATM   19  C3  UNL     1      27.574   4.897  48.625  1.00  0.00     0.057 C 
HETATM   20  C2  UNL     1      28.803   5.227  48.226  1.00  0.00    -0.023 C 
HETATM   21  C1  UNL     1      29.127   6.674  48.111  1.00  0.00     0.036 C 
ENDBRANCH  18  19
ENDBRANCH  16  18
ENDBRANCH  15  16
ENDBRANCH  12  15
ENDBRANCH   1  11
BRANCH   8  22
HETATM   22  C12 UNL     1      27.684   1.264  53.761  1.00  0.00    -0.028 A 
HETATM   23  C13 UNL     1      28.954   1.014  53.564  1.00  0.00    -0.012 A 
HETATM   24  C14 UNL     1      28.636   2.429  53.749  1.00  0.00     0.068 A 
ENDBRANCH   8  22
TORSDOF 6
ENDMDL
MODEL 6
REMARK VINA RESULT:      -6.5      3.019      5.982
REMARK  6 active torsions:
REMARK  status: ('A' for Active; 'I' for Inactive)
REMARK    1  A    between atoms: C3_3  and  S1_4 
REMARK    2  A    between atoms: S1_4  and  N1_5 
REMARK    3  A    between atoms: N1_5  and  C4_6 
REMARK    4  A    between atoms: C4_6  and  C5_7 
REMARK       I    between atoms: C5_7  and  N2_9 
REMARK    5  A    between atoms: N2_9  and  C6_10 
REMARK    6  A    between atoms: C11_17  and  C12_18 
ROOT
HETATM    1  C6  UNL     1      21.474   0.792  52.492  1.00  0.00     0.035 A 
HETATM    2  C7  UNL     1      20.674   0.102  53.370  1.00  0.00     0.032 A 
HETATM    3  C8  UNL     1      21.115  -0.677  54.418  1.00  0.00     0.035 A 
HETATM    4  C9  UNL     1      22.476  -0.786  54.613  1.00  0.00     0.070 A 
HETATM    5  N3  UNL     1      22.976  -1.531  55.618  1.00  0.00    -0.241 NA
HETATM    6  C10 UNL     1      24.328  -1.600  55.762  1.00  0.00     0.234 A 
HETATM    7  N4  UNL     1      25.158  -0.929  54.909  1.00  0.00    -0.241 NA
HETATM    8  C11 UNL     1      24.674  -0.191  53.915  1.00  0.00     0.077 A 
HETATM    9  C15 UNL     1      23.315  -0.109  53.753  1.00  0.00     0.024 A 
HETATM   10  C16 UNL     1      22.822   0.658  52.720  1.00  0.00     0.045 A 
ENDROOT
BRANCH   1  11
HETATM   11  N2  UNL     1      21.061   1.598  51.411  1.00  0.00    -0.326 N 
HETATM   12  C5  UNL     1      20.401   2.847  51.429  1.00  0.00     0.235 C 
HETATM   13  O1  UNL     1      20.109   3.376  52.512  1.00  0.00    -0.272 OA
HETATM   14  H9  UNL     1      21.237   1.287  50.430  1.00  0.00     0.169 HD
BRANCH  12  15
HETATM   15  C4  UNL     1      20.008   3.617  50.223  1.00  0.00     0.202 C 
BRANCH  15  16
HETATM   16  N1  UNL     1      20.638   4.930  50.187  1.00  0.00    -0.256 NA
HETATM   17  H6  UNL     1      20.271   5.454  49.348  1.00  0.00     0.135 HD
BRANCH  16  18
HETATM   18  S1  UNL     1      22.383   4.802  49.961  1.00  0.00    -0.056 SA
BRANCH  18  19
HETATM   19  C3  UNL     1      23.277   5.136  51.458  1.00  0.00     0.057 C 
HETATM   20  C2  UNL     1      24.121   4.111  51.330  1.00  0.00    -0.023 C 
HETATM   21  C1  UNL     1      23.970   3.237  50.136  1.00  0.00     0.036 C 
ENDBRANCH  18  19
ENDBRANCH  16  18
ENDBRANCH  15  16
ENDBRANCH  12  15
ENDBRANCH   1  11
BRANCH   8  22
HETATM   22  C12 UNL     1      25.612   0.511  53.024  1.00  0.00    -0.028 A 
HETATM   23  C13 UNL     1      26.297   0.404  51.913  1.00  0.00    -0.012 A 
HETATM   24  C14 UNL     1      26.464   1.680  52.609  1.00  0.00     0.068 A 
ENDBRANCH   8  22
TORSDOF 6
ENDMDL
MODEL 7
REMARK VINA RESULT:      -6.5      3.198      5.844
REMARK  6 active torsions:
REMARK  status: ('A' for Active; 'I' for Inactive)
REMARK    1  A    between atoms: C3_3  and  S1_4 
REMARK    2  A    between atoms: S1_4  and  N1_5 
REMARK    3  A    between atoms: N1_5  and  C4_6 
REMARK    4  A    between atoms: C4_6  and  C5_7 
REMARK       I    between atoms: C5_7  and  N2_9 
REMARK    5  A    between atoms: N2_9  and  C6_10 
REMARK    6  A    between atoms: C11_17  and  C12_18 
ROOT
HETATM    1  C6  UNL     1      24.393   2.711  51.409  1.00  0.00     0.035 A 
HETATM    2  C7  UNL     1      25.710   2.863  51.050  1.00  0.00     0.032 A 
HETATM    3  C8  UNL     1      26.737   2.006  51.382  1.00  0.00     0.035 A 
HETATM    4  C9  UNL     1      26.433   0.896  52.141  1.00  0.00     0.070 A 
HETATM    5  N3  UNL     1      27.388   0.018  52.500  1.00  0.00    -0.241 NA
HETATM    6  C10 UNL     1      27.027  -1.060  53.250  1.00  0.00     0.234 A 
HETATM    7  N4  UNL     1      25.728  -1.247  53.628  1.00  0.00    -0.241 NA
HETATM    8  C11 UNL     1      24.778  -0.386  53.278  1.00  0.00     0.077 A 
HETATM    9  C15 UNL     1      25.121   0.707  52.523  1.00  0.00     0.024 A 
HETATM   10  C16 UNL     1      24.130   1.594  52.165  1.00  0.00     0.045 A 
ENDROOT
BRANCH   1  11
HETATM   11  N2  UNL     1      23.316   3.564  51.090  1.00  0.00    -0.326 N 
HETATM   12  C5  UNL     1      22.807   4.668  51.809  1.00  0.00     0.235 C 
HETATM   13  O1  UNL     1      23.328   4.998  52.886  1.00  0.00    -0.272 OA
HETATM   14  H9  UNL     1      22.774   3.415  50.210  1.00  0.00     0.169 HD
BRANCH  12  15
HETATM   15  C4  UNL     1      21.659   5.505  51.381  1.00  0.00     0.202 C 
BRANCH  15  16
HETATM   16  N1  UNL     1      22.019   6.914  51.284  1.00  0.00    -0.256 NA
HETATM   17  H6  UNL     1      21.155   7.462  51.027  1.00  0.00     0.135 HD
BRANCH  16  18
HETATM   18  S1  UNL     1      23.183   7.194  49.988  1.00  0.00    -0.056 SA
BRANCH  18  19
HETATM   19  C3  UNL     1      24.849   7.281  50.593  1.00  0.00     0.057 C 
HETATM   20  C2  UNL     1      25.360   6.466  49.669  1.00  0.00    -0.023 C 
HETATM   21  C1  UNL     1      24.430   5.904  48.654  1.00  0.00     0.036 C 
ENDBRANCH  18  19
ENDBRANCH  16  18
ENDBRANCH  15  16
ENDBRANCH  12  15
ENDBRANCH   1  11
BRANCH   8  22
HETATM   22  C12 UNL     1      23.393  -0.634  53.711  1.00  0.00    -0.028 A 
HETATM   23  C13 UNL     1      22.258  -1.183  53.360  1.00  0.00    -0.012 A 
HETATM   24  C14 UNL     1      22.242  -0.544  54.676  1.00  0.00     0.068 A 
ENDBRANCH   8  22
TORSDOF 6
ENDMDL
MODEL 8
REMARK VINA RESULT:      -6.4      2.841      5.593
REMARK  6 active torsions:
REMARK  status: ('A' for Active; 'I' for Inactive)
REMARK    1  A    between atoms: C3_3  and  S1_4 
REMARK    2  A    between atoms: S1_4  and  N1_5 
REMARK    3  A    between atoms: N1_5  and  C4_6 
REMARK    4  A    between atoms: C4_6  and  C5_7 
REMARK       I    between atoms: C5_7  and  N2_9 
REMARK    5  A    between atoms: N2_9  and  C6_10 
REMARK    6  A    between atoms: C11_17  and  C12_18 
ROOT
HETATM    1  C6  UNL     1      24.392   2.603  51.180  1.00  0.00     0.035 A 
HETATM    2  C7  UNL     1      25.719   2.868  50.940  1.00  0.00     0.032 A 
HETATM    3  C8  UNL     1      26.785   2.163  51.456  1.00  0.00     0.035 A 
HETATM    4  C9  UNL     1      26.513   1.097  52.288  1.00  0.00     0.070 A 
HETATM    5  N3  UNL     1      27.508   0.365  52.825  1.00  0.00    -0.241 NA
HETATM    6  C10 UNL     1      27.178  -0.676  53.639  1.00  0.00     0.234 A 
HETATM    7  N4  UNL     1      25.871  -0.972  53.902  1.00  0.00    -0.241 NA
HETATM    8  C11 UNL     1      24.883  -0.256  53.376  1.00  0.00     0.077 A 
HETATM    9  C15 UNL     1      25.194   0.797  52.554  1.00  0.00     0.024 A 
HETATM   10  C16 UNL     1      24.163   1.534  52.013  1.00  0.00     0.045 A 
ENDROOT
BRANCH   1  11
HETATM   11  N2  UNL     1      23.276   3.299  50.672  1.00  0.00    -0.326 N 
HETATM   12  C5  UNL     1      22.426   4.220  51.323  1.00  0.00     0.235 C 
HETATM   13  O1  UNL     1      22.625   4.511  52.513  1.00  0.00    -0.272 OA
HETATM   14  H9  UNL     1      22.980   3.161  49.681  1.00  0.00     0.169 HD
BRANCH  12  15
HETATM   15  C4  UNL     1      21.269   4.902  50.691  1.00  0.00     0.202 C 
BRANCH  15  16
HETATM   16  N1  UNL     1      19.999   4.343  51.135  1.00  0.00    -0.256 NA
HETATM   17  H6  UNL     1      20.041   4.210  52.181  1.00  0.00     0.135 HD
BRANCH  16  18
HETATM   18  S1  UNL     1      19.726   2.741  50.448  1.00  0.00    -0.056 SA
BRANCH  18  19
HETATM   19  C3  UNL     1      20.103   1.446  51.603  1.00  0.00     0.057 C 
HETATM   20  C2  UNL     1      20.730   0.670  50.718  1.00  0.00    -0.023 C 
HETATM   21  C1  UNL     1      20.832   1.160  49.318  1.00  0.00     0.036 C 
ENDBRANCH  18  19
ENDBRANCH  16  18
ENDBRANCH  15  16
ENDBRANCH  12  15
ENDBRANCH   1  11
BRANCH   8  22
HETATM   22  C12 UNL     1      23.491  -0.617  53.692  1.00  0.00    -0.028 A 
HETATM   23  C13 UNL     1      22.468  -1.333  53.297  1.00  0.00    -0.012 A 
HETATM   24  C14 UNL     1      22.233  -0.558  54.515  1.00  0.00     0.068 A 
ENDBRANCH   8  22
TORSDOF 6
ENDMDL
MODEL 9
REMARK VINA RESULT:      -6.3      3.878      6.411
REMARK  6 active torsions:
REMARK  status: ('A' for Active; 'I' for Inactive)
REMARK    1  A    between atoms: C3_3  and  S1_4 
REMARK    2  A    between atoms: S1_4  and  N1_5 
REMARK    3  A    between atoms: N1_5  and  C4_6 
REMARK    4  A    between atoms: C4_6  and  C5_7 
REMARK       I    between atoms: C5_7  and  N2_9 
REMARK    5  A    between atoms: N2_9  and  C6_10 
REMARK    6  A    between atoms: C11_17  and  C12_18 
ROOT
HETATM    1  C6  UNL     1      26.042   2.578  51.087  1.00  0.00     0.035 A 
HETATM    2  C7  UNL     1      24.682   2.391  51.054  1.00  0.00     0.032 A 
HETATM    3  C8  UNL     1      23.970   1.522  51.853  1.00  0.00     0.035 A 
HETATM    4  C9  UNL     1      24.671   0.766  52.769  1.00  0.00     0.070 A 
HETATM    5  N3  UNL     1      24.038  -0.103  53.581  1.00  0.00    -0.241 NA
HETATM    6  C10 UNL     1      24.783  -0.822  54.465  1.00  0.00     0.234 A 
HETATM    7  N4  UNL     1      26.138  -0.664  54.529  1.00  0.00    -0.241 NA
HETATM    8  C11 UNL     1      26.771   0.191  53.733  1.00  0.00     0.077 A 
HETATM    9  C15 UNL     1      26.039   0.924  52.834  1.00  0.00     0.024 A 
HETATM   10  C16 UNL     1      26.703   1.807  52.013  1.00  0.00     0.045 A 
ENDROOT
BRANCH   1  11
HETATM   11  N2  UNL     1      26.804   3.456  50.289  1.00  0.00    -0.326 N 
HETATM   12  C5  UNL     1      26.367   4.482  49.423  1.00  0.00     0.235 C 
HETATM   13  O1  UNL     1      25.154   4.706  49.290  1.00  0.00    -0.272 OA
HETATM   14  H9  UNL     1      27.846   3.394  50.291  1.00  0.00     0.169 HD
BRANCH  12  15
HETATM   15  C4  UNL     1      27.261   5.355  48.621  1.00  0.00     0.202 C 
BRANCH  15  16
HETATM   16  N1  UNL     1      27.544   6.613  49.299  1.00  0.00    -0.256 NA
HETATM   17  H6  UNL     1      27.286   6.509  50.317  1.00  0.00     0.135 HD
BRANCH  16  18
HETATM   18  S1  UNL     1      26.544   7.924  48.671  1.00  0.00    -0.056 SA
BRANCH  18  19
HETATM   19  C3  UNL     1      25.323   8.454  49.847  1.00  0.00     0.057 C 
HETATM   20  C2  UNL     1      24.286   8.310  49.022  1.00  0.00    -0.023 C 
HETATM   21  C1  UNL     1      24.561   7.828  47.642  1.00  0.00     0.036 C 
ENDBRANCH  18  19
ENDBRANCH  16  18
ENDBRANCH  15  16
ENDBRANCH  12  15
ENDBRANCH   1  11
BRANCH   8  22
HETATM   22  C12 UNL     1      28.233   0.321  53.843  1.00  0.00    -0.028 A 
HETATM   23  C13 UNL     1      29.194   1.037  54.369  1.00  0.00    -0.012 A 
HETATM   24  C14 UNL     1      29.652  -0.091  53.560  1.00  0.00     0.068 A 
ENDBRANCH   8  22
TORSDOF 6
ENDMDL
