MODEL 1
REMARK VINA RESULT:      -8.4      0.000      0.000
REMARK  5 active torsions:
REMARK  status: ('A' for Active; 'I' for Inactive)
REMARK    1  A    between atoms: C2_2  and  O1_3 
REMARK    2  A    between atoms: O1_3  and  C3_4 
REMARK    3  A    between atoms: C6_7  and  C7_8 
REMARK    4  A    between atoms: C7_8  and  N1_9 
REMARK    5  A    between atoms: C7_8  and  N2_10 
ROOT
HETATM    1  N2  UNL     1      22.547   2.636  51.551  1.00  0.00    -0.222 N 
HETATM    2  N3  UNL     1      23.371   2.213  50.529  1.00  0.00    -0.166 NA
HETATM    3  C8  UNL     1      24.034   2.910  49.704  1.00  0.00     0.215 C 
HETATM    4  N4  UNL     1      24.606   3.986  48.988  1.00  0.00    -0.400 NA
HETATM    5  C9  UNL     1      25.155   5.028  49.473  1.00  0.00     0.319 C 
HETATM    6  C10 UNL     1      25.833   6.313  49.627  1.00  0.00     0.149 C 
HETATM    7  N5  UNL     1      25.603   6.937  50.940  1.00  0.00    -0.388 N 
HETATM    8  C11 UNL     1      24.156   6.926  50.938  1.00  0.00     0.028 A 
HETATM    9  C12 UNL     1      23.348   7.966  50.533  1.00  0.00     0.029 A 
HETATM   10  C13 UNL     1      21.953   7.851  50.530  1.00  0.00     0.003 A 
HETATM   11  C14 UNL     1      21.410   6.658  50.949  1.00  0.00     0.015 A 
HETATM   12  C15 UNL     1      22.203   5.609  51.359  1.00  0.00     0.007 A 
HETATM   13  C16 UNL     1      23.583   5.717  51.364  1.00  0.00     0.044 A 
HETATM   14  P1  UNL     1      21.486   4.033  51.882  1.00  0.00     0.140 P 
HETATM   15 CL1  UNL     1      19.495   3.753  51.338  1.00  0.00    -0.064 Cl
HETATM   16  H13 UNL     1      25.561   7.385  51.877  1.00  0.00     0.159 HD
ENDROOT
BRANCH   1  17
HETATM   17  C7  UNL     1      22.637   1.599  52.575  1.00  0.00     0.374 C 
BRANCH  17  18
HETATM   18  C6  UNL     1      24.026   1.423  53.073  1.00  0.00    -0.004 A 
HETATM   19  C5  UNL     1      24.838   2.495  53.392  1.00  0.00     0.014 A 
HETATM   20  C4  UNL     1      26.139   2.376  53.859  1.00  0.00     0.038 A 
HETATM   21  C3  UNL     1      26.641   1.089  54.009  1.00  0.00     0.074 A 
HETATM   22  C18 UNL     1      25.881  -0.021  53.708  1.00  0.00     0.038 A 
HETATM   23  C17 UNL     1      24.591   0.158  53.247  1.00  0.00     0.014 A 
BRANCH  21  24
HETATM   24  O1  UNL     1      27.963   1.090  54.485  1.00  0.00    -0.324 OA
BRANCH  24  25
HETATM   25  C2  UNL     1      28.679  -0.107  54.563  1.00  0.00     0.132 C 
HETATM   26  C1  UNL     1      29.646  -0.490  53.713  1.00  0.00     0.037 C 
ENDBRANCH  24  25
ENDBRANCH  21  24
ENDBRANCH  17  18
BRANCH  17  27
HETATM   27  N1  UNL     1      22.122   0.329  52.071  1.00  0.00     0.107 N 
HETATM   28  H7  UNL     1      22.913  -0.339  51.949  1.00  0.00     0.316 HD
HETATM   29  H8  UNL     1      21.569   0.479  51.192  1.00  0.00     0.316 HD
ENDBRANCH  17  27
ENDBRANCH   1  17
TORSDOF 5
ENDMDL
MODEL 2
REMARK VINA RESULT:      -7.8      3.351      6.614
REMARK  5 active torsions:
REMARK  status: ('A' for Active; 'I' for Inactive)
REMARK    1  A    between atoms: C2_2  and  O1_3 
REMARK    2  A    between atoms: O1_3  and  C3_4 
REMARK    3  A    between atoms: C6_7  and  C7_8 
REMARK    4  A    between atoms: C7_8  and  N1_9 
REMARK    5  A    between atoms: C7_8  and  N2_10 
ROOT
HETATM    1  N2  UNL     1      24.219   3.679  50.347  1.00  0.00    -0.222 N 
HETATM    2  N3  UNL     1      23.535   3.352  49.195  1.00  0.00    -0.166 NA
HETATM    3  C8  UNL     1      22.692   2.424  49.008  1.00  0.00     0.215 C 
HETATM    4  N4  UNL     1      21.831   1.318  49.184  1.00  0.00    -0.400 NA
HETATM    5  C9  UNL     1      21.016   1.121  50.144  1.00  0.00     0.319 C 
HETATM    6  C10 UNL     1      20.005   0.549  51.029  1.00  0.00     0.149 C 
HETATM    7  N5  UNL     1      20.066   1.081  52.400  1.00  0.00    -0.388 N 
HETATM    8  C11 UNL     1      21.456   0.800  52.683  1.00  0.00     0.028 A 
HETATM    9  C12 UNL     1      21.933  -0.325  53.320  1.00  0.00     0.029 A 
HETATM   10  C13 UNL     1      23.304  -0.529  53.517  1.00  0.00     0.003 A 
HETATM   11  C14 UNL     1      24.167   0.437  53.053  1.00  0.00     0.015 A 
HETATM   12  C15 UNL     1      23.707   1.569  52.416  1.00  0.00     0.007 A 
HETATM   13  C16 UNL     1      22.353   1.777  52.218  1.00  0.00     0.044 A 
HETATM   14  P1  UNL     1      24.846   2.823  51.782  1.00  0.00     0.140 P 
HETATM   15 CL1  UNL     1      26.829   2.203  51.621  1.00  0.00    -0.064 Cl
HETATM   16  H13 UNL     1      19.991   1.483  53.356  1.00  0.00     0.159 HD
ENDROOT
BRANCH   1  17
HETATM   17  C7  UNL     1      24.438   5.120  50.271  1.00  0.00     0.374 C 
BRANCH  17  18
HETATM   18  C6  UNL     1      25.701   5.459  49.566  1.00  0.00    -0.004 A 
HETATM   19  C5  UNL     1      26.650   4.506  49.252  1.00  0.00     0.014 A 
HETATM   20  C4  UNL     1      27.842   4.779  48.595  1.00  0.00     0.038 A 
HETATM   21  C3  UNL     1      28.078   6.101  48.239  1.00  0.00     0.074 A 
HETATM   22  C18 UNL     1      27.170   7.099  48.525  1.00  0.00     0.038 A 
HETATM   23  C17 UNL     1      26.000   6.767  49.181  1.00  0.00     0.014 A 
BRANCH  21  24
HETATM   24  O1  UNL     1      29.311   6.260  47.584  1.00  0.00    -0.324 OA
BRANCH  24  25
HETATM   25  C2  UNL     1      30.477   5.742  48.151  1.00  0.00     0.132 C 
HETATM   26  C1  UNL     1      31.455   5.114  47.479  1.00  0.00     0.037 C 
ENDBRANCH  24  25
ENDBRANCH  21  24
ENDBRANCH  17  18
BRANCH  17  27
HETATM   27  N1  UNL     1      24.434   5.714  51.605  1.00  0.00     0.107 N 
HETATM   28  H7  UNL     1      24.380   6.752  51.520  1.00  0.00     0.316 HD
HETATM   29  H8  UNL     1      25.266   5.388  52.155  1.00  0.00     0.316 HD
ENDBRANCH  17  27
ENDBRANCH   1  17
TORSDOF 5
ENDMDL
MODEL 3
REMARK VINA RESULT:      -7.8      3.169      7.153
REMARK  5 active torsions:
REMARK  status: ('A' for Active; 'I' for Inactive)
REMARK    1  A    between atoms: C2_2  and  O1_3 
REMARK    2  A    between atoms: O1_3  and  C3_4 
REMARK    3  A    between atoms: C6_7  and  C7_8 
REMARK    4  A    between atoms: C7_8  and  N1_9 
REMARK    5  A    between atoms: C7_8  and  N2_10 
ROOT
HETATM    1  N2  UNL     1      23.706   3.672  50.986  1.00  0.00    -0.222 N 
HETATM    2  N3  UNL     1      22.492   3.130  50.621  1.00  0.00    -0.166 NA
HETATM    3  C8  UNL     1      22.066   1.948  50.789  1.00  0.00     0.215 C 
HETATM    4  N4  UNL     1      21.952   0.585  51.143  1.00  0.00    -0.400 NA
HETATM    5  C9  UNL     1      22.251   0.053  52.262  1.00  0.00     0.319 C 
HETATM    6  C10 UNL     1      22.465  -0.900  53.348  1.00  0.00     0.149 C 
HETATM    7  N5  UNL     1      23.428  -0.425  54.354  1.00  0.00    -0.388 N 
HETATM    8  C11 UNL     1      24.539  -0.134  53.476  1.00  0.00     0.028 A 
HETATM    9  C12 UNL     1      25.579  -0.991  53.186  1.00  0.00     0.029 A 
HETATM   10  C13 UNL     1      26.594  -0.635  52.291  1.00  0.00     0.003 A 
HETATM   11  C14 UNL     1      26.522   0.608  51.705  1.00  0.00     0.015 A 
HETATM   12  C15 UNL     1      25.491   1.478  51.984  1.00  0.00     0.007 A 
HETATM   13  C16 UNL     1      24.484   1.132  52.869  1.00  0.00     0.044 A 
HETATM   14  P1  UNL     1      25.384   3.100  51.191  1.00  0.00     0.140 P 
HETATM   15 CL1  UNL     1      26.586   3.331  49.504  1.00  0.00    -0.064 Cl
HETATM   16  H13 UNL     1      24.023  -0.113  55.148  1.00  0.00     0.159 HD
ENDROOT
BRANCH   1  17
HETATM   17  C7  UNL     1      23.436   5.082  51.252  1.00  0.00     0.374 C 
BRANCH  17  18
HETATM   18  C6  UNL     1      24.183   5.979  50.333  1.00  0.00    -0.004 A 
HETATM   19  C5  UNL     1      25.064   6.939  50.792  1.00  0.00     0.014 A 
HETATM   20  C4  UNL     1      25.782   7.796  49.969  1.00  0.00     0.038 A 
HETATM   21  C3  UNL     1      25.588   7.666  48.599  1.00  0.00     0.074 A 
HETATM   22  C18 UNL     1      24.723   6.727  48.079  1.00  0.00     0.038 A 
HETATM   23  C17 UNL     1      24.035   5.900  48.947  1.00  0.00     0.014 A 
BRANCH  21  24
HETATM   24  O1  UNL     1      26.361   8.582  47.866  1.00  0.00    -0.324 OA
BRANCH  24  25
HETATM   25  C2  UNL     1      27.400   8.127  47.051  1.00  0.00     0.132 C 
HETATM   26  C1  UNL     1      28.364   7.273  47.427  1.00  0.00     0.037 C 
ENDBRANCH  24  25
ENDBRANCH  21  24
ENDBRANCH  17  18
BRANCH  17  27
HETATM   27  N1  UNL     1      23.747   5.415  52.639  1.00  0.00     0.107 N 
HETATM   28  H7  UNL     1      23.542   4.591  53.245  1.00  0.00     0.316 HD
HETATM   29  H8  UNL     1      23.234   6.281  52.934  1.00  0.00     0.316 HD
ENDBRANCH  17  27
ENDBRANCH   1  17
TORSDOF 5
ENDMDL
MODEL 4
REMARK VINA RESULT:      -7.8      3.299      4.926
REMARK  5 active torsions:
REMARK  status: ('A' for Active; 'I' for Inactive)
REMARK    1  A    between atoms: C2_2  and  O1_3 
REMARK    2  A    between atoms: O1_3  and  C3_4 
REMARK    3  A    between atoms: C6_7  and  C7_8 
REMARK    4  A    between atoms: C7_8  and  N1_9 
REMARK    5  A    between atoms: C7_8  and  N2_10 
ROOT
HETATM    1  N2  UNL     1      22.999   1.638  51.410  1.00  0.00    -0.222 N 
HETATM    2  N3  UNL     1      23.051   1.805  50.042  1.00  0.00    -0.166 NA
HETATM    3  C8  UNL     1      22.100   1.797  49.204  1.00  0.00     0.215 C 
HETATM    4  N4  UNL     1      20.824   1.725  48.600  1.00  0.00    -0.400 NA
HETATM    5  C9  UNL     1      19.757   2.305  48.984  1.00  0.00     0.319 C 
HETATM    6  C10 UNL     1      18.378   2.774  49.092  1.00  0.00     0.149 C 
HETATM    7  N5  UNL     1      18.024   3.230  50.445  1.00  0.00    -0.388 N 
HETATM    8  C11 UNL     1      18.399   2.043  51.182  1.00  0.00     0.028 A 
HETATM    9  C12 UNL     1      17.550   1.015  51.530  1.00  0.00     0.029 A 
HETATM   10  C13 UNL     1      18.012  -0.117  52.213  1.00  0.00     0.003 A 
HETATM   11  C14 UNL     1      19.350  -0.170  52.529  1.00  0.00     0.015 A 
HETATM   12  C15 UNL     1      20.212   0.850  52.190  1.00  0.00     0.007 A 
HETATM   13  C16 UNL     1      19.761   1.972  51.515  1.00  0.00     0.044 A 
HETATM   14  P1  UNL     1      21.976   0.764  52.582  1.00  0.00     0.140 P 
HETATM   15 CL1  UNL     1      22.669  -1.136  53.085  1.00  0.00    -0.064 Cl
HETATM   16  H13 UNL     1      17.738   3.655  51.350  1.00  0.00     0.159 HD
ENDROOT
BRANCH   1  17
HETATM   17  C7  UNL     1      24.113   2.420  51.938  1.00  0.00     0.374 C 
BRANCH  17  18
HETATM   18  C6  UNL     1      25.138   1.565  52.592  1.00  0.00    -0.004 A 
HETATM   19  C5  UNL     1      25.697   0.470  51.963  1.00  0.00     0.014 A 
HETATM   20  C4  UNL     1      26.655  -0.354  52.537  1.00  0.00     0.038 A 
HETATM   21  C3  UNL     1      27.065  -0.042  53.826  1.00  0.00     0.074 A 
HETATM   22  C18 UNL     1      26.545   1.038  54.508  1.00  0.00     0.038 A 
HETATM   23  C17 UNL     1      25.593   1.824  53.886  1.00  0.00     0.014 A 
BRANCH  21  24
HETATM   24  O1  UNL     1      28.033  -0.942  54.306  1.00  0.00    -0.324 OA
BRANCH  24  25
HETATM   25  C2  UNL     1      29.271  -1.043  53.668  1.00  0.00     0.132 C 
HETATM   26  C1  UNL     1      30.142  -0.035  53.501  1.00  0.00     0.037 C 
ENDBRANCH  24  25
ENDBRANCH  21  24
ENDBRANCH  17  18
BRANCH  17  27
HETATM   27  N1  UNL     1      23.635   3.434  52.873  1.00  0.00     0.107 N 
HETATM   28  H7  UNL     1      23.641   3.041  53.839  1.00  0.00     0.316 HD
HETATM   29  H8  UNL     1      22.694   3.792  52.579  1.00  0.00     0.316 HD
ENDBRANCH  17  27
ENDBRANCH   1  17
TORSDOF 5
ENDMDL
MODEL 5
REMARK VINA RESULT:      -7.5      2.119      2.449
REMARK  5 active torsions:
REMARK  status: ('A' for Active; 'I' for Inactive)
REMARK    1  A    between atoms: C2_2  and  O1_3 
REMARK    2  A    between atoms: O1_3  and  C3_4 
REMARK    3  A    between atoms: C6_7  and  C7_8 
REMARK    4  A    between atoms: C7_8  and  N1_9 
REMARK    5  A    between atoms: C7_8  and  N2_10 
ROOT
HETATM    1  N2  UNL     1      24.311   3.241  50.859  1.00  0.00    -0.222 N 
HETATM    2  N3  UNL     1      25.680   3.287  50.702  1.00  0.00    -0.166 NA
HETATM    3  C8  UNL     1      26.364   3.975  49.885  1.00  0.00     0.215 C 
HETATM    4  N4  UNL     1      26.763   4.866  48.864  1.00  0.00    -0.400 NA
HETATM    5  C9  UNL     1      26.349   6.056  48.675  1.00  0.00     0.319 C 
HETATM    6  C10 UNL     1      26.140   7.399  48.140  1.00  0.00     0.149 C 
HETATM    7  N5  UNL     1      24.857   7.992  48.548  1.00  0.00    -0.388 N 
HETATM    8  C11 UNL     1      23.974   6.937  48.102  1.00  0.00     0.028 A 
HETATM    9  C12 UNL     1      23.330   6.892  46.884  1.00  0.00     0.029 A 
HETATM   10  C13 UNL     1      22.521   5.808  46.523  1.00  0.00     0.003 A 
HETATM   11  C14 UNL     1      22.388   4.781  47.429  1.00  0.00     0.015 A 
HETATM   12  C15 UNL     1      23.024   4.810  48.651  1.00  0.00     0.007 A 
HETATM   13  C16 UNL     1      23.824   5.880  49.014  1.00  0.00     0.044 A 
HETATM   14  P1  UNL     1      22.869   3.445  49.828  1.00  0.00     0.140 P 
HETATM   15 CL1  UNL     1      22.128   1.673  49.021  1.00  0.00    -0.064 Cl
HETATM   16  H13 UNL     1      24.014   8.507  48.876  1.00  0.00     0.159 HD
ENDROOT
BRANCH   1  17
HETATM   17  C7  UNL     1      24.094   2.941  52.272  1.00  0.00     0.374 C 
BRANCH  17  18
HETATM   18  C6  UNL     1      25.045   1.919  52.780  1.00  0.00    -0.004 A 
HETATM   19  C5  UNL     1      26.028   2.218  53.703  1.00  0.00     0.014 A 
HETATM   20  C4  UNL     1      26.936   1.294  54.203  1.00  0.00     0.038 A 
HETATM   21  C3  UNL     1      26.833  -0.009  53.733  1.00  0.00     0.074 A 
HETATM   22  C18 UNL     1      25.874  -0.371  52.811  1.00  0.00     0.038 A 
HETATM   23  C17 UNL     1      24.996   0.592  52.349  1.00  0.00     0.014 A 
BRANCH  21  24
HETATM   24  O1  UNL     1      27.800  -0.855  54.304  1.00  0.00    -0.324 OA
BRANCH  24  25
HETATM   25  C2  UNL     1      29.131  -0.440  54.388  1.00  0.00     0.132 C 
HETATM   26  C1  UNL     1      30.085  -0.706  53.482  1.00  0.00     0.037 C 
ENDBRANCH  24  25
ENDBRANCH  21  24
ENDBRANCH  17  18
BRANCH  17  27
HETATM   27  N1  UNL     1      22.720   2.506  52.502  1.00  0.00     0.107 N 
HETATM   28  H7  UNL     1      22.208   3.247  53.027  1.00  0.00     0.316 HD
HETATM   29  H8  UNL     1      22.705   1.574  52.985  1.00  0.00     0.316 HD
ENDBRANCH  17  27
ENDBRANCH   1  17
TORSDOF 5
ENDMDL
MODEL 6
REMARK VINA RESULT:      -7.3      3.093      4.439
REMARK  5 active torsions:
REMARK  status: ('A' for Active; 'I' for Inactive)
REMARK    1  A    between atoms: C2_2  and  O1_3 
REMARK    2  A    between atoms: O1_3  and  C3_4 
REMARK    3  A    between atoms: C6_7  and  C7_8 
REMARK    4  A    between atoms: C7_8  and  N1_9 
REMARK    5  A    between atoms: C7_8  and  N2_10 
ROOT
HETATM    1  N2  UNL     1      24.678   2.689  51.238  1.00  0.00    -0.222 N 
HETATM    2  N3  UNL     1      26.018   2.578  50.933  1.00  0.00    -0.166 NA
HETATM    3  C8  UNL     1      26.691   3.214  50.067  1.00  0.00     0.215 C 
HETATM    4  N4  UNL     1      27.086   4.093  49.035  1.00  0.00    -0.400 NA
HETATM    5  C9  UNL     1      26.803   5.331  48.926  1.00  0.00     0.319 C 
HETATM    6  C10 UNL     1      26.704   6.710  48.456  1.00  0.00     0.149 C 
HETATM    7  N5  UNL     1      25.553   7.434  49.018  1.00  0.00    -0.388 N 
HETATM    8  C11 UNL     1      24.506   6.510  48.641  1.00  0.00     0.028 A 
HETATM    9  C12 UNL     1      23.738   6.592  47.500  1.00  0.00     0.029 A 
HETATM   10  C13 UNL     1      22.770   5.627  47.198  1.00  0.00     0.003 A 
HETATM   11  C14 UNL     1      22.608   4.586  48.083  1.00  0.00     0.015 A 
HETATM   12  C15 UNL     1      23.367   4.489  49.229  1.00  0.00     0.007 A 
HETATM   13  C16 UNL     1      24.326   5.441  49.534  1.00  0.00     0.044 A 
HETATM   14  P1  UNL     1      23.171   3.104  50.376  1.00  0.00     0.140 P 
HETATM   15 CL1  UNL     1      22.139   1.467  49.604  1.00  0.00    -0.064 Cl
HETATM   16  H13 UNL     1      24.819   8.030  49.450  1.00  0.00     0.159 HD
ENDROOT
BRANCH   1  17
HETATM   17  C7  UNL     1      24.575   2.358  52.657  1.00  0.00     0.374 C 
BRANCH  17  18
HETATM   18  C6  UNL     1      23.483   1.388  52.928  1.00  0.00    -0.004 A 
HETATM   19  C5  UNL     1      22.179   1.787  53.150  1.00  0.00     0.014 A 
HETATM   20  C4  UNL     1      21.130   0.915  53.407  1.00  0.00     0.038 A 
HETATM   21  C3  UNL     1      21.429  -0.441  53.440  1.00  0.00     0.074 A 
HETATM   22  C18 UNL     1      22.711  -0.902  53.226  1.00  0.00     0.038 A 
HETATM   23  C17 UNL     1      23.716   0.012  52.975  1.00  0.00     0.014 A 
BRANCH  21  24
HETATM   24  O1  UNL     1      20.295  -1.227  53.709  1.00  0.00    -0.324 OA
BRANCH  24  25
HETATM   25  C2  UNL     1      19.036  -0.813  53.269  1.00  0.00     0.132 C 
HETATM   26  C1  UNL     1      17.917  -1.551  53.314  1.00  0.00     0.037 C 
ENDBRANCH  24  25
ENDBRANCH  21  24
ENDBRANCH  17  18
BRANCH  17  27
HETATM   27  N1  UNL     1      24.383   3.565  53.456  1.00  0.00     0.107 N 
HETATM   28  H7  UNL     1      25.120   4.261  53.210  1.00  0.00     0.316 HD
HETATM   29  H8  UNL     1      24.362   3.330  54.478  1.00  0.00     0.316 HD
ENDBRANCH  17  27
ENDBRANCH   1  17
TORSDOF 5
ENDMDL
MODEL 7
REMARK VINA RESULT:      -7.3      3.346      4.577
REMARK  5 active torsions:
REMARK  status: ('A' for Active; 'I' for Inactive)
REMARK    1  A    between atoms: C2_2  and  O1_3 
REMARK    2  A    between atoms: O1_3  and  C3_4 
REMARK    3  A    between atoms: C6_7  and  C7_8 
REMARK    4  A    between atoms: C7_8  and  N1_9 
REMARK    5  A    between atoms: C7_8  and  N2_10 
ROOT
HETATM    1  N2  UNL     1      24.696   4.950  50.283  1.00  0.00    -0.222 N 
HETATM    2  N3  UNL     1      25.653   3.965  50.155  1.00  0.00    -0.166 NA
HETATM    3  C8  UNL     1      26.715   3.976  49.464  1.00  0.00     0.215 C 
HETATM    4  N4  UNL     1      27.767   4.351  48.597  1.00  0.00    -0.400 NA
HETATM    5  C9  UNL     1      28.398   5.458  48.587  1.00  0.00     0.319 C 
HETATM    6  C10 UNL     1      29.322   6.541  48.261  1.00  0.00     0.149 C 
HETATM    7  N5  UNL     1      28.863   7.856  48.736  1.00  0.00    -0.388 N 
HETATM    8  C11 UNL     1      27.555   7.869  48.120  1.00  0.00     0.028 A 
HETATM    9  C12 UNL     1      27.248   8.433  46.901  1.00  0.00     0.029 A 
HETATM   10  C13 UNL     1      25.957   8.364  46.365  1.00  0.00     0.003 A 
HETATM   11  C14 UNL     1      24.995   7.710  47.101  1.00  0.00     0.015 A 
HETATM   12  C15 UNL     1      25.283   7.142  48.323  1.00  0.00     0.007 A 
HETATM   13  C16 UNL     1      26.559   7.208  48.858  1.00  0.00     0.044 A 
HETATM   14  P1  UNL     1      24.023   6.259  49.274  1.00  0.00     0.140 P 
HETATM   15 CL1  UNL     1      22.323   5.729  48.194  1.00  0.00    -0.064 Cl
HETATM   16  H13 UNL     1      28.648   8.796  49.126  1.00  0.00     0.159 HD
ENDROOT
BRANCH   1  17
HETATM   17  C7  UNL     1      24.154   4.789  51.630  1.00  0.00     0.374 C 
BRANCH  17  18
HETATM   18  C6  UNL     1      23.608   3.426  51.855  1.00  0.00    -0.004 A 
HETATM   19  C5  UNL     1      22.559   2.918  51.113  1.00  0.00     0.014 A 
HETATM   20  C4  UNL     1      22.019   1.652  51.291  1.00  0.00     0.038 A 
HETATM   21  C3  UNL     1      22.582   0.859  52.282  1.00  0.00     0.074 A 
HETATM   22  C18 UNL     1      23.632   1.308  53.057  1.00  0.00     0.038 A 
HETATM   23  C17 UNL     1      24.129   2.578  52.835  1.00  0.00     0.014 A 
BRANCH  21  24
HETATM   24  O1  UNL     1      21.957  -0.397  52.374  1.00  0.00    -0.324 OA
BRANCH  24  25
HETATM   25  C2  UNL     1      22.194  -1.217  53.479  1.00  0.00     0.132 C 
HETATM   26  C1  UNL     1      21.398  -1.318  54.555  1.00  0.00     0.037 C 
ENDBRANCH  24  25
ENDBRANCH  21  24
ENDBRANCH  17  18
BRANCH  17  27
HETATM   27  N1  UNL     1      23.125   5.791  51.895  1.00  0.00     0.107 N 
HETATM   28  H7  UNL     1      22.598   5.983  51.017  1.00  0.00     0.316 HD
HETATM   29  H8  UNL     1      23.551   6.651  52.318  1.00  0.00     0.316 HD
ENDBRANCH  17  27
ENDBRANCH   1  17
TORSDOF 5
ENDMDL
MODEL 8
REMARK VINA RESULT:      -7.3      2.780      6.632
REMARK  5 active torsions:
REMARK  status: ('A' for Active; 'I' for Inactive)
REMARK    1  A    between atoms: C2_2  and  O1_3 
REMARK    2  A    between atoms: O1_3  and  C3_4 
REMARK    3  A    between atoms: C6_7  and  C7_8 
REMARK    4  A    between atoms: C7_8  and  N1_9 
REMARK    5  A    between atoms: C7_8  and  N2_10 
ROOT
HETATM    1  N2  UNL     1      23.794   2.477  51.152  1.00  0.00    -0.222 N 
HETATM    2  N3  UNL     1      24.820   3.183  51.742  1.00  0.00    -0.166 NA
HETATM    3  C8  UNL     1      25.413   2.956  52.839  1.00  0.00     0.215 C 
HETATM    4  N4  UNL     1      25.819   2.396  54.072  1.00  0.00    -0.400 NA
HETATM    5  C9  UNL     1      26.050   1.168  54.322  1.00  0.00     0.319 C 
HETATM    6  C10 UNL     1      26.394  -0.086  54.985  1.00  0.00     0.149 C 
HETATM    7  N5  UNL     1      25.857  -1.272  54.299  1.00  0.00    -0.388 N 
HETATM    8  C11 UNL     1      24.464  -0.887  54.253  1.00  0.00     0.028 A 
HETATM    9  C12 UNL     1      23.503  -1.241  55.176  1.00  0.00     0.029 A 
HETATM   10  C13 UNL     1      22.183  -0.789  55.069  1.00  0.00     0.003 A 
HETATM   11  C14 UNL     1      21.871   0.026  54.005  1.00  0.00     0.015 A 
HETATM   12  C15 UNL     1      22.818   0.389  53.072  1.00  0.00     0.007 A 
HETATM   13  C16 UNL     1      24.126  -0.056  53.172  1.00  0.00     0.044 A 
HETATM   14  P1  UNL     1      22.412   1.484  51.691  1.00  0.00     0.140 P 
HETATM   15 CL1  UNL     1      20.625   2.533  51.902  1.00  0.00    -0.064 Cl
HETATM   16  H13 UNL     1      25.591  -2.153  53.815  1.00  0.00     0.159 HD
ENDROOT
BRANCH   1  17
HETATM   17  C7  UNL     1      23.978   2.654  49.715  1.00  0.00     0.374 C 
BRANCH  17  18
HETATM   18  C6  UNL     1      24.920   3.760  49.403  1.00  0.00    -0.004 A 
HETATM   19  C5  UNL     1      26.284   3.565  49.307  1.00  0.00     0.014 A 
HETATM   20  C4  UNL     1      27.197   4.569  49.019  1.00  0.00     0.038 A 
HETATM   21  C3  UNL     1      26.689   5.846  48.817  1.00  0.00     0.074 A 
HETATM   22  C18 UNL     1      25.337   6.106  48.899  1.00  0.00     0.038 A 
HETATM   23  C17 UNL     1      24.474   5.066  49.189  1.00  0.00     0.014 A 
BRANCH  21  24
HETATM   24  O1  UNL     1      27.701   6.780  48.535  1.00  0.00    -0.324 OA
BRANCH  24  25
HETATM   25  C2  UNL     1      28.882   6.366  47.915  1.00  0.00     0.132 C 
HETATM   26  C1  UNL     1      29.646   7.125  47.114  1.00  0.00     0.037 C 
ENDBRANCH  24  25
ENDBRANCH  21  24
ENDBRANCH  17  18
BRANCH  17  27
HETATM   27  N1  UNL     1      22.697   2.885  49.054  1.00  0.00     0.107 N 
HETATM   28  H7  UNL     1      22.016   3.265  49.747  1.00  0.00     0.316 HD
HETATM   29  H8  UNL     1      22.362   2.009  48.584  1.00  0.00     0.316 HD
ENDBRANCH  17  27
ENDBRANCH   1  17
TORSDOF 5
ENDMDL
MODEL 9
REMARK VINA RESULT:      -7.1      3.580      7.095
REMARK  5 active torsions:
REMARK  status: ('A' for Active; 'I' for Inactive)
REMARK    1  A    between atoms: C2_2  and  O1_3 
REMARK    2  A    between atoms: O1_3  and  C3_4 
REMARK    3  A    between atoms: C6_7  and  C7_8 
REMARK    4  A    between atoms: C7_8  and  N1_9 
REMARK    5  A    between atoms: C7_8  and  N2_10 
ROOT
HETATM    1  N2  UNL     1      24.268   4.954  49.191  1.00  0.00    -0.222 N 
HETATM    2  N3  UNL     1      23.219   4.368  48.516  1.00  0.00    -0.166 NA
HETATM    3  C8  UNL     1      22.707   3.221  48.684  1.00  0.00     0.215 C 
HETATM    4  N4  UNL     1      22.418   1.920  49.155  1.00  0.00    -0.400 NA
HETATM    5  C9  UNL     1      22.306   1.548  50.368  1.00  0.00     0.319 C 
HETATM    6  C10 UNL     1      22.105   0.753  51.577  1.00  0.00     0.149 C 
HETATM    7  N5  UNL     1      22.703   1.362  52.776  1.00  0.00    -0.388 N 
HETATM    8  C11 UNL     1      24.055   1.528  52.288  1.00  0.00     0.028 A 
HETATM    9  C12 UNL     1      25.090   0.638  52.475  1.00  0.00     0.029 A 
HETATM   10  C13 UNL     1      26.360   0.866  51.931  1.00  0.00     0.003 A 
HETATM   11  C14 UNL     1      26.543   2.016  51.199  1.00  0.00     0.015 A 
HETATM   12  C15 UNL     1      25.520   2.918  51.002  1.00  0.00     0.007 A 
HETATM   13  C16 UNL     1      24.262   2.698  51.538  1.00  0.00     0.044 A 
HETATM   14  P1  UNL     1      25.757   4.415  50.015  1.00  0.00     0.140 P 
HETATM   15 CL1  UNL     1      27.457   4.408  48.811  1.00  0.00    -0.064 Cl
HETATM   16  H13 UNL     1      23.017   1.780  53.675  1.00  0.00     0.159 HD
ENDROOT
BRANCH   1  17
HETATM   17  C7  UNL     1      23.992   6.388  49.166  1.00  0.00     0.374 C 
BRANCH  17  18
HETATM   18  C6  UNL     1      25.231   7.194  49.014  1.00  0.00    -0.004 A 
HETATM   19  C5  UNL     1      25.880   7.331  47.802  1.00  0.00     0.014 A 
HETATM   20  C4  UNL     1      27.038   8.074  47.616  1.00  0.00     0.038 A 
HETATM   21  C3  UNL     1      27.563   8.713  48.732  1.00  0.00     0.074 A 
HETATM   22  C18 UNL     1      26.963   8.615  49.969  1.00  0.00     0.038 A 
HETATM   23  C17 UNL     1      25.811   7.862  50.094  1.00  0.00     0.014 A 
BRANCH  21  24
HETATM   24  O1  UNL     1      28.733   9.431  48.428  1.00  0.00    -0.324 OA
BRANCH  24  25
HETATM   25  C2  UNL     1      29.889   9.239  49.186  1.00  0.00     0.132 C 
HETATM   26  C1  UNL     1      30.740   8.208  49.057  1.00  0.00     0.037 C 
ENDBRANCH  24  25
ENDBRANCH  21  24
ENDBRANCH  17  18
BRANCH  17  27
HETATM   27  N1  UNL     1      23.273   6.796  50.369  1.00  0.00     0.107 N 
HETATM   28  H7  UNL     1      23.686   6.314  51.197  1.00  0.00     0.316 HD
HETATM   29  H8  UNL     1      22.245   6.622  50.260  1.00  0.00     0.316 HD
ENDBRANCH  17  27
ENDBRANCH   1  17
TORSDOF 5
ENDMDL
