MODEL 1
REMARK VINA RESULT:      -9.3      0.000      0.000
REMARK  0 active torsions:
REMARK  status: ('A' for Active; 'I' for Inactive)
ROOT
HETATM    1  C1  UNL     1      27.546   9.587  50.391  1.00  0.00     0.093 C 
HETATM    2  C2  UNL     1      26.472   8.625  50.013  1.00  0.00     0.124 A 
HETATM    3  N1  UNL     1      26.774   7.365  49.619  1.00  0.00    -0.238 NA
HETATM    4  C3  UNL     1      25.852   6.449  49.265  1.00  0.00     0.042 A 
HETATM    5  C4  UNL     1      24.588   6.940  49.349  1.00  0.00     0.077 A 
HETATM    6  C5  UNL     1      24.188   8.195  49.738  1.00  0.00     0.133 A 
HETATM    7  N2  UNL     1      25.169   9.044  50.073  1.00  0.00    -0.216 NA
HETATM    8  N3  UNL     1      22.839   8.604  49.837  1.00  0.00    -0.320 N 
HETATM    9  C6  UNL     1      22.101   7.412  50.049  1.00  0.00     0.172 A 
HETATM   10  N4  UNL     1      21.145   6.881  49.620  1.00  0.00    -0.235 NA
HETATM   11  C7  UNL     1      20.741   5.686  50.039  1.00  0.00     0.138 A 
HETATM   12  C8  UNL     1      21.442   5.035  50.997  1.00  0.00     0.056 A 
HETATM   13  S1  UNL     1      22.846   6.243  51.367  1.00  0.00    -0.051 SA
HETATM   14  C9  UNL     1      21.679   3.906  51.875  1.00  0.00     0.364 C 
HETATM   15  N5  UNL     1      20.364   3.263  52.106  1.00  0.00    -0.365 N 
HETATM   16  C10 UNL     1      20.349   2.152  52.985  1.00  0.00     0.094 C 
HETATM   17  C11 UNL     1      20.926   0.989  53.104  1.00  0.00    -0.021 C 
HETATM   18  C12 UNL     1      20.442   0.275  54.311  1.00  0.00     0.045 C 
HETATM   19  C13 UNL     1      21.264  -0.892  54.726  1.00  0.00     0.032 C 
HETATM   20  C14 UNL     1      22.714  -0.606  54.929  1.00  0.00    -0.026 C 
HETATM   21  C15 UNL     1      23.554  -0.234  53.921  1.00  0.00     0.005 C 
HETATM   22  C16 UNL     1      23.247   0.430  52.607  1.00  0.00    -0.036 C 
HETATM   23  C17 UNL     1      21.947   0.344  52.241  1.00  0.00     0.048 C 
HETATM   24 CL1  UNL     1      21.609  -0.543  50.750  1.00  0.00    -0.083 Cl
HETATM   25  C18 UNL     1      24.586   0.918  52.248  1.00  0.00     0.044 C 
HETATM   26  C19 UNL     1      24.650   1.832  51.070  1.00  0.00     0.073 C 
HETATM   27  C20 UNL     1      23.921   3.142  51.224  1.00  0.00     0.456 C 
HETATM   28  N6  UNL     1      22.542   2.875  51.410  1.00  0.00     0.145 N 
HETATM   29  N7  UNL     1      24.231   3.969  50.066  1.00  0.00     0.118 N 
HETATM   30  C21 UNL     1      23.556   3.491  48.875  1.00  0.00     0.312 C 
HETATM   31  C22 UNL     1      25.654   4.073  49.846  1.00  0.00     0.280 C 
HETATM   32  C23 UNL     1      26.136   5.060  48.850  1.00  0.00     0.089 C 
HETATM   33  H5  UNL     1      22.473   9.554  49.773  1.00  0.00     0.169 HD
HETATM   34  H8  UNL     1      19.479   3.604  51.646  1.00  0.00     0.161 HD
HETATM   35  H21 UNL     1      22.074   2.517  50.521  1.00  0.00     0.321 HD
ENDROOT
TORSDOF 0
ENDMDL
MODEL 2
REMARK VINA RESULT:      -9.0      5.939      9.705
REMARK  0 active torsions:
REMARK  status: ('A' for Active; 'I' for Inactive)
ROOT
HETATM    1  C1  UNL     1      35.082  10.357  43.590  1.00  0.00     0.093 C 
HETATM    2  C2  UNL     1      34.421   9.931  44.856  1.00  0.00     0.124 A 
HETATM    3  N1  UNL     1      33.541  10.742  45.488  1.00  0.00    -0.238 NA
HETATM    4  C3  UNL     1      32.910  10.417  46.634  1.00  0.00     0.042 A 
HETATM    5  C4  UNL     1      33.263   9.182  47.076  1.00  0.00     0.077 A 
HETATM    6  C5  UNL     1      34.139   8.292  46.504  1.00  0.00     0.133 A 
HETATM    7  N2  UNL     1      34.722   8.695  45.367  1.00  0.00    -0.216 NA
HETATM    8  N3  UNL     1      34.411   7.004  47.016  1.00  0.00    -0.320 N 
HETATM    9  C6  UNL     1      33.260   6.647  47.763  1.00  0.00     0.172 A 
HETATM   10  N4  UNL     1      32.999   6.214  48.823  1.00  0.00    -0.235 NA
HETATM   11  C7  UNL     1      31.747   6.038  49.236  1.00  0.00     0.138 A 
HETATM   12  C8  UNL     1      30.717   6.362  48.420  1.00  0.00     0.056 A 
HETATM   13  S1  UNL     1      31.602   6.992  46.875  1.00  0.00    -0.051 SA
HETATM   14  C9  UNL     1      29.304   6.482  48.117  1.00  0.00     0.364 C 
HETATM   15  N5  UNL     1      28.603   5.473  48.946  1.00  0.00    -0.365 N 
HETATM   16  C10 UNL     1      27.201   5.378  48.776  1.00  0.00     0.094 C 
HETATM   17  C11 UNL     1      26.151   6.148  48.845  1.00  0.00    -0.021 C 
HETATM   18  C12 UNL     1      24.913   5.390  48.536  1.00  0.00     0.045 C 
HETATM   19  C13 UNL     1      23.715   6.224  48.257  1.00  0.00     0.032 C 
HETATM   20  C14 UNL     1      23.891   7.247  47.185  1.00  0.00    -0.026 C 
HETATM   21  C15 UNL     1      24.740   8.309  47.292  1.00  0.00     0.005 C 
HETATM   22  C16 UNL     1      25.972   8.475  48.140  1.00  0.00    -0.036 C 
HETATM   23  C17 UNL     1      26.054   7.594  49.164  1.00  0.00     0.048 C 
HETATM   24 CL1  UNL     1      26.037   8.280  50.793  1.00  0.00    -0.083 Cl
HETATM   25  C18 UNL     1      26.604   9.610  47.452  1.00  0.00     0.044 C 
HETATM   26  C19 UNL     1      27.990   9.945  47.893  1.00  0.00     0.073 C 
HETATM   27  C20 UNL     1      29.025   8.877  47.651  1.00  0.00     0.456 C 
HETATM   28  N6  UNL     1      28.670   7.725  48.395  1.00  0.00     0.145 N 
HETATM   29  N7  UNL     1      30.331   9.434  47.975  1.00  0.00     0.118 N 
HETATM   30  C21 UNL     1      30.508   9.577  49.407  1.00  0.00     0.312 C 
HETATM   31  C22 UNL     1      30.564  10.687  47.299  1.00  0.00     0.280 C 
HETATM   32  C23 UNL     1      31.929  11.263  47.344  1.00  0.00     0.089 C 
HETATM   33  H5  UNL     1      35.255   6.447  46.876  1.00  0.00     0.169 HD
HETATM   34  H8  UNL     1      29.111   4.853  49.632  1.00  0.00     0.161 HD
HETATM   35  H21 UNL     1      28.801   7.862  49.444  1.00  0.00     0.321 HD
ENDROOT
TORSDOF 0
ENDMDL
MODEL 3
REMARK VINA RESULT:      -8.8      3.532      7.356
REMARK  0 active torsions:
REMARK  status: ('A' for Active; 'I' for Inactive)
ROOT
HETATM    1  C1  UNL     1      26.598  -0.501  53.699  1.00  0.00     0.093 C 
HETATM    2  C2  UNL     1      25.313   0.204  53.427  1.00  0.00     0.124 A 
HETATM    3  N1  UNL     1      25.274   1.549  53.287  1.00  0.00    -0.238 NA
HETATM    4  C3  UNL     1      24.147   2.245  53.042  1.00  0.00     0.042 A 
HETATM    5  C4  UNL     1      23.059   1.437  52.952  1.00  0.00     0.077 A 
HETATM    6  C5  UNL     1      23.003   0.071  53.077  1.00  0.00     0.133 A 
HETATM    7  N2  UNL     1      24.169  -0.543  53.321  1.00  0.00    -0.216 NA
HETATM    8  N3  UNL     1      21.824  -0.694  52.923  1.00  0.00    -0.320 N 
HETATM    9  C6  UNL     1      20.980   0.084  52.092  1.00  0.00     0.172 A 
HETATM   10  N4  UNL     1      19.866   0.457  52.072  1.00  0.00    -0.235 NA
HETATM   11  C7  UNL     1      19.394   1.250  51.114  1.00  0.00     0.138 A 
HETATM   12  C8  UNL     1      20.208   1.655  50.112  1.00  0.00     0.056 A 
HETATM   13  S1  UNL     1      21.846   0.825  50.556  1.00  0.00    -0.051 SA
HETATM   14  C9  UNL     1      20.480   2.390  48.892  1.00  0.00     0.364 C 
HETATM   15  N5  UNL     1      19.189   2.517  48.175  1.00  0.00    -0.365 N 
HETATM   16  C10 UNL     1      19.226   3.167  46.917  1.00  0.00     0.094 C 
HETATM   17  C11 UNL     1      19.604   4.309  46.415  1.00  0.00    -0.021 C 
HETATM   18  C12 UNL     1      19.355   4.357  44.953  1.00  0.00     0.045 C 
HETATM   19  C13 UNL     1      20.046   5.457  44.231  1.00  0.00     0.032 C 
HETATM   20  C14 UNL     1      21.523   5.519  44.433  1.00  0.00    -0.026 C 
HETATM   21  C15 UNL     1      22.105   5.796  45.636  1.00  0.00     0.005 C 
HETATM   22  C16 UNL     1      21.567   5.619  47.030  1.00  0.00    -0.036 C 
HETATM   23  C17 UNL     1      20.222   5.482  47.084  1.00  0.00     0.048 C 
HETATM   24 CL1  UNL     1      19.340   6.737  47.961  1.00  0.00    -0.083 Cl
HETATM   25  C18 UNL     1      22.820   5.683  47.796  1.00  0.00     0.044 C 
HETATM   26  C19 UNL     1      22.713   5.333  49.243  1.00  0.00     0.073 C 
HETATM   27  C20 UNL     1      22.291   3.918  49.541  1.00  0.00     0.456 C 
HETATM   28  N6  UNL     1      20.992   3.712  49.014  1.00  0.00     0.145 N 
HETATM   29  N7  UNL     1      22.408   3.704  50.976  1.00  0.00     0.118 N 
HETATM   30  C21 UNL     1      21.360   4.393  51.704  1.00  0.00     0.312 C 
HETATM   31  C22 UNL     1      23.711   4.079  51.470  1.00  0.00     0.280 C 
HETATM   32  C23 UNL     1      24.063   3.709  52.862  1.00  0.00     0.089 C 
HETATM   33  H5  UNL     1      21.624  -1.611  53.324  1.00  0.00     0.169 HD
HETATM   34  H8  UNL     1      18.284   2.149  48.571  1.00  0.00     0.161 HD
HETATM   35  H21 UNL     1      20.243   4.237  49.563  1.00  0.00     0.321 HD
ENDROOT
TORSDOF 0
ENDMDL
MODEL 4
REMARK VINA RESULT:      -8.5      5.050      8.605
REMARK  0 active torsions:
REMARK  status: ('A' for Active; 'I' for Inactive)
ROOT
HETATM    1  C1  UNL     1      32.659  11.256  42.991  1.00  0.00     0.093 C 
HETATM    2  C2  UNL     1      32.231  10.748  44.325  1.00  0.00     0.124 A 
HETATM    3  N1  UNL     1      31.207  11.329  44.994  1.00  0.00    -0.238 NA
HETATM    4  C3  UNL     1      30.772  10.918  46.202  1.00  0.00     0.042 A 
HETATM    5  C4  UNL     1      31.482   9.856  46.664  1.00  0.00     0.077 A 
HETATM    6  C5  UNL     1      32.527   9.203  46.059  1.00  0.00     0.133 A 
HETATM    7  N2  UNL     1      32.896   9.676  44.861  1.00  0.00    -0.216 NA
HETATM    8  N3  UNL     1      33.179   8.072  46.600  1.00  0.00    -0.320 N 
HETATM    9  C6  UNL     1      32.226   7.465  47.456  1.00  0.00     0.172 A 
HETATM   10  N4  UNL     1      32.169   7.046  48.552  1.00  0.00    -0.235 NA
HETATM   11  C7  UNL     1      31.046   6.563  49.075  1.00  0.00     0.138 A 
HETATM   12  C8  UNL     1      29.912   6.542  48.336  1.00  0.00     0.056 A 
HETATM   13  S1  UNL     1      30.479   7.290  46.698  1.00  0.00    -0.051 SA
HETATM   14  C9  UNL     1      28.504   6.254  48.149  1.00  0.00     0.364 C 
HETATM   15  N5  UNL     1      28.168   5.148  49.077  1.00  0.00    -0.365 N 
HETATM   16  C10 UNL     1      26.838   4.665  49.029  1.00  0.00     0.094 C 
HETATM   17  C11 UNL     1      25.623   5.123  49.154  1.00  0.00    -0.021 C 
HETATM   18  C12 UNL     1      24.625   4.039  48.983  1.00  0.00     0.045 C 
HETATM   19  C13 UNL     1      23.226   4.497  48.771  1.00  0.00     0.032 C 
HETATM   20  C14 UNL     1      23.038   5.458  47.645  1.00  0.00    -0.026 C 
HETATM   21  C15 UNL     1      23.567   6.716  47.636  1.00  0.00     0.005 C 
HETATM   22  C16 UNL     1      24.761   7.264  48.369  1.00  0.00    -0.036 C 
HETATM   23  C17 UNL     1      25.154   6.506  49.418  1.00  0.00     0.048 C 
HETATM   24 CL1  UNL     1      25.062   7.264  51.012  1.00  0.00    -0.083 Cl
HETATM   25  C18 UNL     1      25.006   8.482  47.583  1.00  0.00     0.044 C 
HETATM   26  C19 UNL     1      26.272   9.209  47.890  1.00  0.00     0.073 C 
HETATM   27  C20 UNL     1      27.543   8.449  47.607  1.00  0.00     0.456 C 
HETATM   28  N6  UNL     1      27.572   7.293  48.426  1.00  0.00     0.145 N 
HETATM   29  N7  UNL     1      28.664   9.359  47.796  1.00  0.00     0.118 N 
HETATM   30  C21 UNL     1      28.893   9.636  49.201  1.00  0.00     0.312 C 
HETATM   31  C22 UNL     1      28.494  10.582  47.050  1.00  0.00     0.280 C 
HETATM   32  C23 UNL     1      29.648  11.509  46.956  1.00  0.00     0.089 C 
HETATM   33  H5  UNL     1      34.132   7.758  46.413  1.00  0.00     0.169 HD
HETATM   34  H8  UNL     1      28.873   4.735  49.743  1.00  0.00     0.161 HD
HETATM   35  H21 UNL     1      27.733   7.527  49.455  1.00  0.00     0.321 HD
ENDROOT
TORSDOF 0
ENDMDL
MODEL 5
REMARK VINA RESULT:      -8.4      2.644      7.763
REMARK  0 active torsions:
REMARK  status: ('A' for Active; 'I' for Inactive)
ROOT
HETATM    1  C1  UNL     1      21.970  -0.895  54.856  1.00  0.00     0.093 C 
HETATM    2  C2  UNL     1      22.449  -0.165  53.649  1.00  0.00     0.124 A 
HETATM    3  N1  UNL     1      21.653  -0.018  52.564  1.00  0.00    -0.238 NA
HETATM    4  C3  UNL     1      22.026   0.630  51.442  1.00  0.00     0.042 A 
HETATM    5  C4  UNL     1      23.291   1.116  51.532  1.00  0.00     0.077 A 
HETATM    6  C5  UNL     1      24.166   1.019  52.586  1.00  0.00     0.133 A 
HETATM    7  N2  UNL     1      23.716   0.358  53.661  1.00  0.00    -0.216 NA
HETATM    8  N3  UNL     1      25.455   1.598  52.604  1.00  0.00    -0.320 N 
HETATM    9  C6  UNL     1      25.389   2.686  51.697  1.00  0.00     0.172 A 
HETATM   10  N4  UNL     1      26.007   3.118  50.797  1.00  0.00    -0.235 NA
HETATM   11  C7  UNL     1      25.614   4.184  50.105  1.00  0.00     0.138 A 
HETATM   12  C8  UNL     1      24.461   4.813  50.433  1.00  0.00     0.056 A 
HETATM   13  S1  UNL     1      23.841   3.791  51.896  1.00  0.00    -0.051 SA
HETATM   14  C9  UNL     1      23.461   5.845  50.248  1.00  0.00     0.364 C 
HETATM   15  N5  UNL     1      24.146   6.990  49.603  1.00  0.00    -0.365 N 
HETATM   16  C10 UNL     1      23.361   8.146  49.368  1.00  0.00     0.094 C 
HETATM   17  C11 UNL     1      22.259   8.473  48.753  1.00  0.00    -0.021 C 
HETATM   18  C12 UNL     1      21.979   9.923  48.897  1.00  0.00     0.045 C 
HETATM   19  C13 UNL     1      20.599  10.339  48.532  1.00  0.00     0.032 C 
HETATM   20  C14 UNL     1      19.508   9.602  49.235  1.00  0.00    -0.026 C 
HETATM   21  C15 UNL     1      19.270   8.270  49.062  1.00  0.00     0.005 C 
HETATM   22  C16 UNL     1      20.199   7.175  48.613  1.00  0.00    -0.036 C 
HETATM   23  C17 UNL     1      21.312   7.625  47.987  1.00  0.00     0.048 C 
HETATM   24 CL1  UNL     1      21.512   7.140  46.299  1.00  0.00    -0.083 Cl
HETATM   25  C18 UNL     1      19.447   5.998  49.071  1.00  0.00     0.044 C 
HETATM   26  C19 UNL     1      20.167   4.694  48.983  1.00  0.00     0.073 C 
HETATM   27  C20 UNL     1      21.399   4.573  49.842  1.00  0.00     0.456 C 
HETATM   28  N6  UNL     1      22.342   5.544  49.422  1.00  0.00     0.145 N 
HETATM   29  N7  UNL     1      21.868   3.196  49.767  1.00  0.00     0.118 N 
HETATM   30  C21 UNL     1      22.477   2.911  48.482  1.00  0.00     0.312 C 
HETATM   31  C22 UNL     1      20.814   2.254  50.058  1.00  0.00     0.280 C 
HETATM   32  C23 UNL     1      21.183   0.830  50.246  1.00  0.00     0.089 C 
HETATM   33  H5  UNL     1      26.260   1.300  53.155  1.00  0.00     0.169 HD
HETATM   34  H8  UNL     1      25.163   6.959  49.328  1.00  0.00     0.161 HD
HETATM   35  H21 UNL     1      22.768   5.313  48.471  1.00  0.00     0.321 HD
ENDROOT
TORSDOF 0
ENDMDL
MODEL 6
REMARK VINA RESULT:      -8.4      2.923      5.769
REMARK  0 active torsions:
REMARK  status: ('A' for Active; 'I' for Inactive)
ROOT
HETATM    1  C1  UNL     1      16.826   3.115  46.070  1.00  0.00     0.093 C 
HETATM    2  C2  UNL     1      17.919   3.692  46.902  1.00  0.00     0.124 A 
HETATM    3  N1  UNL     1      17.896   3.587  48.251  1.00  0.00    -0.238 NA
HETATM    4  C3  UNL     1      18.852   4.087  49.059  1.00  0.00     0.042 A 
HETATM    5  C4  UNL     1      19.837   4.707  48.359  1.00  0.00     0.077 A 
HETATM    6  C5  UNL     1      19.946   4.860  46.998  1.00  0.00     0.133 A 
HETATM    7  N2  UNL     1      18.953   4.333  46.269  1.00  0.00    -0.216 NA
HETATM    8  N3  UNL     1      21.037   5.485  46.354  1.00  0.00    -0.320 N 
HETATM    9  C6  UNL     1      22.128   5.349  47.248  1.00  0.00     0.172 A 
HETATM   10  N4  UNL     1      22.966   6.022  47.722  1.00  0.00    -0.235 NA
HETATM   11  C7  UNL     1      23.845   5.556  48.604  1.00  0.00     0.138 A 
HETATM   12  C8  UNL     1      23.792   4.258  48.987  1.00  0.00     0.056 A 
HETATM   13  S1  UNL     1      22.331   3.598  47.988  1.00  0.00    -0.051 SA
HETATM   14  C9  UNL     1      24.262   3.124  49.758  1.00  0.00     0.364 C 
HETATM   15  N5  UNL     1      25.696   3.366  50.041  1.00  0.00    -0.365 N 
HETATM   16  C10 UNL     1      26.381   2.350  50.751  1.00  0.00     0.094 C 
HETATM   17  C11 UNL     1      26.279   1.704  51.879  1.00  0.00    -0.021 C 
HETATM   18  C12 UNL     1      27.375   0.715  52.027  1.00  0.00     0.045 C 
HETATM   19  C13 UNL     1      27.172  -0.296  53.098  1.00  0.00     0.032 C 
HETATM   20  C14 UNL     1      25.892  -1.059  53.014  1.00  0.00    -0.026 C 
HETATM   21  C15 UNL     1      24.665  -0.485  53.172  1.00  0.00     0.005 C 
HETATM   22  C16 UNL     1      24.236   0.943  52.970  1.00  0.00    -0.036 C 
HETATM   23  C17 UNL     1      25.262   1.825  52.953  1.00  0.00     0.048 C 
HETATM   24 CL1  UNL     1      25.271   3.042  54.235  1.00  0.00    -0.083 Cl
HETATM   25  C18 UNL     1      22.780   0.761  52.879  1.00  0.00     0.044 C 
HETATM   26  C19 UNL     1      22.001   1.964  52.463  1.00  0.00     0.073 C 
HETATM   27  C20 UNL     1      22.292   2.481  51.078  1.00  0.00     0.456 C 
HETATM   28  N6  UNL     1      23.650   2.882  51.020  1.00  0.00     0.145 N 
HETATM   29  N7  UNL     1      21.332   3.534  50.778  1.00  0.00     0.118 N 
HETATM   30  C21 UNL     1      21.623   4.746  51.520  1.00  0.00     0.312 C 
HETATM   31  C22 UNL     1      19.974   3.103  51.006  1.00  0.00     0.280 C 
HETATM   32  C23 UNL     1      18.875   3.978  50.532  1.00  0.00     0.089 C 
HETATM   33  H5  UNL     1      21.040   5.937  45.438  1.00  0.00     0.169 HD
HETATM   34  H8  UNL     1      26.193   4.245  49.736  1.00  0.00     0.161 HD
HETATM   35  H21 UNL     1      23.836   3.770  51.581  1.00  0.00     0.321 HD
ENDROOT
TORSDOF 0
ENDMDL
MODEL 7
REMARK VINA RESULT:      -8.2      8.658     11.052
REMARK  0 active torsions:
REMARK  status: ('A' for Active; 'I' for Inactive)
ROOT
HETATM    1  C1  UNL     1      24.254  10.614  46.971  1.00  0.00     0.093 C 
HETATM    2  C2  UNL     1      25.742  10.685  46.966  1.00  0.00     0.124 A 
HETATM    3  N1  UNL     1      26.461  10.293  48.044  1.00  0.00    -0.238 NA
HETATM    4  C3  UNL     1      27.807  10.332  48.103  1.00  0.00     0.042 A 
HETATM    5  C4  UNL     1      28.353  10.812  46.955  1.00  0.00     0.077 A 
HETATM    6  C5  UNL     1      27.708  11.229  45.817  1.00  0.00     0.133 A 
HETATM    7  N2  UNL     1      26.370  11.157  45.843  1.00  0.00    -0.216 NA
HETATM    8  N3  UNL     1      28.367  11.673  44.648  1.00  0.00    -0.320 N 
HETATM    9  C6  UNL     1      29.644  11.061  44.682  1.00  0.00     0.172 A 
HETATM   10  N4  UNL     1      30.771  11.368  44.552  1.00  0.00    -0.235 NA
HETATM   11  C7  UNL     1      31.770  10.503  44.702  1.00  0.00     0.138 A 
HETATM   12  C8  UNL     1      31.504   9.213  45.017  1.00  0.00     0.056 A 
HETATM   13  S1  UNL     1      29.618   9.198  45.115  1.00  0.00    -0.051 SA
HETATM   14  C9  UNL     1      31.905   7.854  45.320  1.00  0.00     0.364 C 
HETATM   15  N5  UNL     1      33.219   7.642  44.666  1.00  0.00    -0.365 N 
HETATM   16  C10 UNL     1      33.786   6.350  44.791  1.00  0.00     0.094 C 
HETATM   17  C11 UNL     1      34.134   5.520  45.734  1.00  0.00    -0.021 C 
HETATM   18  C12 UNL     1      34.696   4.271  45.163  1.00  0.00     0.045 C 
HETATM   19  C13 UNL     1      34.809   3.136  46.117  1.00  0.00     0.032 C 
HETATM   20  C14 UNL     1      33.547   2.774  46.824  1.00  0.00    -0.026 C 
HETATM   21  C15 UNL     1      32.920   3.600  47.711  1.00  0.00     0.005 C 
HETATM   22  C16 UNL     1      32.975   5.098  47.837  1.00  0.00    -0.036 C 
HETATM   23  C17 UNL     1      34.032   5.661  47.208  1.00  0.00     0.048 C 
HETATM   24 CL1  UNL     1      35.191   6.517  48.233  1.00  0.00    -0.083 Cl
HETATM   25  C18 UNL     1      31.776   5.329  48.656  1.00  0.00     0.044 C 
HETATM   26  C19 UNL     1      31.371   6.756  48.825  1.00  0.00     0.073 C 
HETATM   27  C20 UNL     1      30.973   7.472  47.560  1.00  0.00     0.456 C 
HETATM   28  N6  UNL     1      32.089   7.506  46.687  1.00  0.00     0.145 N 
HETATM   29  N7  UNL     1      30.448   8.780  47.929  1.00  0.00     0.118 N 
HETATM   30  C21 UNL     1      31.505   9.677  48.355  1.00  0.00     0.312 C 
HETATM   31  C22 UNL     1      29.419   8.680  48.936  1.00  0.00     0.280 C 
HETATM   32  C23 UNL     1      28.629   9.895  49.250  1.00  0.00     0.089 C 
HETATM   33  H5  UNL     1      28.000  12.300  43.931  1.00  0.00     0.169 HD
HETATM   34  H8  UNL     1      33.715   8.405  44.135  1.00  0.00     0.161 HD
HETATM   35  H21 UNL     1      32.853   8.167  47.029  1.00  0.00     0.321 HD
ENDROOT
TORSDOF 0
ENDMDL
MODEL 8
REMARK VINA RESULT:      -8.0      7.779     12.155
REMARK  0 active torsions:
REMARK  status: ('A' for Active; 'I' for Inactive)
ROOT
HETATM    1  C1  UNL     1      32.422   3.549  47.024  1.00  0.00     0.093 C 
HETATM    2  C2  UNL     1      31.762   4.775  47.557  1.00  0.00     0.124 A 
HETATM    3  N1  UNL     1      32.461   5.921  47.728  1.00  0.00    -0.238 NA
HETATM    4  C3  UNL     1      31.924   7.062  48.205  1.00  0.00     0.042 A 
HETATM    5  C4  UNL     1      30.604   6.922  48.493  1.00  0.00     0.077 A 
HETATM    6  C5  UNL     1      29.817   5.806  48.351  1.00  0.00     0.133 A 
HETATM    7  N2  UNL     1      30.429   4.716  47.871  1.00  0.00    -0.216 NA
HETATM    8  N3  UNL     1      28.433   5.768  48.638  1.00  0.00    -0.320 N 
HETATM    9  C6  UNL     1      27.985   7.105  48.495  1.00  0.00     0.172 A 
HETATM   10  N4  UNL     1      27.342   7.885  49.093  1.00  0.00    -0.235 NA
HETATM   11  C7  UNL     1      27.148   9.129  48.666  1.00  0.00     0.138 A 
HETATM   12  C8  UNL     1      27.702   9.536  47.500  1.00  0.00     0.056 A 
HETATM   13  S1  UNL     1      28.610   7.986  46.917  1.00  0.00    -0.051 SA
HETATM   14  C9  UNL     1      27.965  10.530  46.478  1.00  0.00     0.364 C 
HETATM   15  N5  UNL     1      26.838  11.491  46.519  1.00  0.00    -0.365 N 
HETATM   16  C10 UNL     1      26.861  12.534  45.561  1.00  0.00     0.094 C 
HETATM   17  C11 UNL     1      27.653  13.497  45.180  1.00  0.00    -0.021 C 
HETATM   18  C12 UNL     1      27.053  14.271  44.066  1.00  0.00     0.045 C 
HETATM   19  C13 UNL     1      27.994  15.163  43.338  1.00  0.00     0.032 C 
HETATM   20  C14 UNL     1      29.218  14.494  42.807  1.00  0.00    -0.026 C 
HETATM   21  C15 UNL     1      30.181  13.948  43.605  1.00  0.00     0.005 C 
HETATM   22  C16 UNL     1      30.085  13.436  45.016  1.00  0.00    -0.036 C 
HETATM   23  C17 UNL     1      28.996  13.878  45.687  1.00  0.00     0.048 C 
HETATM   24 CL1  UNL     1      29.303  14.874  47.114  1.00  0.00    -0.083 Cl
HETATM   25  C18 UNL     1      31.308  12.622  45.075  1.00  0.00     0.044 C 
HETATM   26  C19 UNL     1      31.460  11.766  46.288  1.00  0.00     0.073 C 
HETATM   27  C20 UNL     1      30.416  10.693  46.461  1.00  0.00     0.456 C 
HETATM   28  N6  UNL     1      29.149  11.310  46.601  1.00  0.00     0.145 N 
HETATM   29  N7  UNL     1      30.813   9.854  47.583  1.00  0.00     0.118 N 
HETATM   30  C21 UNL     1      30.625  10.536  48.849  1.00  0.00     0.312 C 
HETATM   31  C22 UNL     1      32.170   9.383  47.448  1.00  0.00     0.280 C 
HETATM   32  C23 UNL     1      32.644   8.339  48.388  1.00  0.00     0.089 C 
HETATM   33  H5  UNL     1      27.876   4.951  48.891  1.00  0.00     0.169 HD
HETATM   34  H8  UNL     1      26.054  11.415  47.220  1.00  0.00     0.161 HD
HETATM   35  H21 UNL     1      29.041  11.811  47.537  1.00  0.00     0.321 HD
ENDROOT
TORSDOF 0
ENDMDL
MODEL 9
REMARK VINA RESULT:      -8.0      6.813      9.866
REMARK  0 active torsions:
REMARK  status: ('A' for Active; 'I' for Inactive)
ROOT
HETATM    1  C1  UNL     1      33.790   4.802  43.114  1.00  0.00     0.093 C 
HETATM    2  C2  UNL     1      33.275   5.872  44.014  1.00  0.00     0.124 A 
HETATM    3  N1  UNL     1      32.450   6.837  43.546  1.00  0.00    -0.238 NA
HETATM    4  C3  UNL     1      31.951   7.831  44.307  1.00  0.00     0.042 A 
HETATM    5  C4  UNL     1      32.373   7.747  45.595  1.00  0.00     0.077 A 
HETATM    6  C5  UNL     1      33.202   6.808  46.158  1.00  0.00     0.133 A 
HETATM    7  N2  UNL     1      33.654   5.855  45.331  1.00  0.00    -0.216 NA
HETATM    8  N3  UNL     1      33.553   6.776  47.527  1.00  0.00    -0.320 N 
HETATM    9  C6  UNL     1      32.495   7.437  48.200  1.00  0.00     0.172 A 
HETATM   10  N4  UNL     1      32.356   8.278  49.008  1.00  0.00    -0.235 NA
HETATM   11  C7  UNL     1      31.159   8.706  49.397  1.00  0.00     0.138 A 
HETATM   12  C8  UNL     1      30.041   8.166  48.855  1.00  0.00     0.056 A 
HETATM   13  S1  UNL     1      30.745   6.895  47.649  1.00  0.00    -0.051 SA
HETATM   14  C9  UNL     1      28.602   8.059  48.714  1.00  0.00     0.364 C 
HETATM   15  N5  UNL     1      28.014   8.512  49.997  1.00  0.00    -0.365 N 
HETATM   16  C10 UNL     1      26.603   8.446  50.104  1.00  0.00     0.094 C 
HETATM   17  C11 UNL     1      25.551   8.892  49.476  1.00  0.00    -0.021 C 
HETATM   18  C12 UNL     1      24.304   8.436  50.138  1.00  0.00     0.045 C 
HETATM   19  C13 UNL     1      23.066   8.598  49.330  1.00  0.00     0.032 C 
HETATM   20  C14 UNL     1      23.106   7.973  47.976  1.00  0.00    -0.026 C 
HETATM   21  C15 UNL     1      23.941   8.391  46.981  1.00  0.00     0.005 C 
HETATM   22  C16 UNL     1      25.251   9.125  47.068  1.00  0.00    -0.036 C 
HETATM   23  C17 UNL     1      25.459   9.735  48.258  1.00  0.00     0.048 C 
HETATM   24 CL1  UNL     1      25.600  11.496  48.223  1.00  0.00    -0.083 Cl
HETATM   25  C18 UNL     1      25.784   8.856  45.725  1.00  0.00     0.044 C 
HETATM   26  C19 UNL     1      27.201   9.263  45.495  1.00  0.00     0.073 C 
HETATM   27  C20 UNL     1      28.227   8.548  46.336  1.00  0.00     0.456 C 
HETATM   28  N6  UNL     1      27.976   8.836  47.701  1.00  0.00     0.145 N 
HETATM   29  N7  UNL     1      29.548   8.936  45.864  1.00  0.00     0.118 N 
HETATM   30  C21 UNL     1      29.872  10.297  46.249  1.00  0.00     0.312 C 
HETATM   31  C22 UNL     1      29.682   8.758  44.438  1.00  0.00     0.280 C 
HETATM   32  C23 UNL     1      31.034   8.891  43.842  1.00  0.00     0.089 C 
HETATM   33  H5  UNL     1      34.388   6.363  47.943  1.00  0.00     0.169 HD
HETATM   34  H8  UNL     1      28.603   8.869  50.795  1.00  0.00     0.161 HD
HETATM   35  H21 UNL     1      28.215   9.845  47.953  1.00  0.00     0.321 HD
ENDROOT
TORSDOF 0
ENDMDL
