MODEL 1
REMARK VINA RESULT:      -8.2      0.000      0.000
REMARK  4 active torsions:
REMARK  status: ('A' for Active; 'I' for Inactive)
REMARK    1  A    between atoms: C2_2  and  N1_3 
REMARK    2  A    between atoms: N2_8  and  C6_9 
REMARK    3  A    between atoms: C8_13  and  N5_14 
REMARK    4  A    between atoms: N5_14  and  C9_15 
ROOT
HETATM    1  N1  UNL     1      23.300   4.878  50.251  1.00  0.00    -0.264 NA
HETATM    2  C3  UNL     1      22.823   3.859  49.844  1.00  0.00     0.121 A 
HETATM    3  C4  UNL     1      22.421   2.957  49.492  1.00  0.00     0.038 A 
HETATM    4  C5  UNL     1      21.959   1.853  49.071  1.00  0.00     0.231 A 
HETATM    5  O1  UNL     1      21.299   0.981  48.647  1.00  0.00    -0.283 OA
HETATM    6  N2  UNL     1      23.288   2.407  49.622  1.00  0.00     0.000 N 
HETATM    7  C6  UNL     1      24.058   3.596  50.168  1.00  0.00     0.144 A 
HETATM    8  N3  UNL     1      25.210   3.698  49.315  1.00  0.00    -0.357 N 
HETATM    9  C7  UNL     1      26.567   3.415  49.616  1.00  0.00     0.207 A 
HETATM   10  N4  UNL     1      26.870   3.015  50.821  1.00  0.00    -0.226 NA
HETATM   11  C8  UNL     1      25.804   2.880  51.783  1.00  0.00     0.135 A 
HETATM   12  C15 UNL     1      24.517   3.139  51.506  1.00  0.00     0.008 A 
HETATM   13  C16 UNL     1      23.615   2.932  52.673  1.00  0.00     0.052 C 
HETATM   14  H6  UNL     1      24.016   1.516  49.600  1.00  0.00     0.000 HD
HETATM   15  H7  UNL     1      24.981   4.027  48.355  1.00  0.00     0.162 HD
ENDROOT
BRANCH  11  16
HETATM   16  N5  UNL     1      26.317   2.420  53.042  1.00  0.00    -0.341 N 
HETATM   17  H9  UNL     1      26.404   2.841  53.996  1.00  0.00     0.167 HD
BRANCH  16  18
HETATM   18  C9  UNL     1      26.841   1.079  53.010  1.00  0.00     0.035 A 
HETATM   19  C10 UNL     1      26.009   0.031  52.586  1.00  0.00     0.032 A 
HETATM   20  C11 UNL     1      26.365  -1.317  52.508  1.00  0.00     0.046 A 
HETATM   21  C12 UNL     1      27.672  -1.568  52.897  1.00  0.00     0.138 A 
HETATM   22  F1  UNL     1      28.040  -2.872  52.834  1.00  0.00    -0.204 F 
HETATM   23  C13 UNL     1      28.574  -0.623  53.329  1.00  0.00     0.074 A 
HETATM   24 CL1  UNL     1      30.221  -1.008  53.798  1.00  0.00    -0.081 Cl
HETATM   25  C14 UNL     1      28.104   0.671  53.368  1.00  0.00     0.056 A 
ENDBRANCH  16  18
ENDBRANCH  11  16
BRANCH   1  26
HETATM   26  C2  UNL     1      24.314   5.752  50.792  1.00  0.00     0.089 C 
HETATM   27  C1  UNL     1      23.640   7.131  50.912  1.00  0.00     0.021 C 
ENDBRANCH   1  26
TORSDOF 4
ENDMDL
MODEL 2
REMARK VINA RESULT:      -7.9      4.536      6.426
REMARK  4 active torsions:
REMARK  status: ('A' for Active; 'I' for Inactive)
REMARK    1  A    between atoms: C2_2  and  N1_3 
REMARK    2  A    between atoms: N2_8  and  C6_9 
REMARK    3  A    between atoms: C8_13  and  N5_14 
REMARK    4  A    between atoms: N5_14  and  C9_15 
ROOT
HETATM    1  N1  UNL     1      27.166   2.471  51.425  1.00  0.00    -0.264 NA
HETATM    2  C3  UNL     1      27.765   2.356  52.454  1.00  0.00     0.121 A 
HETATM    3  C4  UNL     1      28.272   2.251  53.365  1.00  0.00     0.038 A 
HETATM    4  C5  UNL     1      28.863   2.118  54.480  1.00  0.00     0.231 A 
HETATM    5  O1  UNL     1      29.637   2.047  55.359  1.00  0.00    -0.283 OA
HETATM    6  N2  UNL     1      27.425   2.058  53.927  1.00  0.00     0.000 N 
HETATM    7  C6  UNL     1      26.504   2.163  52.725  1.00  0.00     0.144 A 
HETATM    8  N3  UNL     1      25.543   3.164  53.098  1.00  0.00    -0.357 N 
HETATM    9  C7  UNL     1      24.168   3.003  53.410  1.00  0.00     0.207 A 
HETATM   10  N4  UNL     1      23.651   1.807  53.358  1.00  0.00    -0.226 NA
HETATM   11  C8  UNL     1      24.508   0.708  52.985  1.00  0.00     0.135 A 
HETATM   12  C15 UNL     1      25.810   0.849  52.693  1.00  0.00     0.008 A 
HETATM   13  C16 UNL     1      26.469  -0.436  52.330  1.00  0.00     0.052 C 
HETATM   14  H6  UNL     1      26.762   1.846  54.843  1.00  0.00     0.000 HD
HETATM   15  H7  UNL     1      25.943   4.124  53.132  1.00  0.00     0.162 HD
ENDROOT
BRANCH  11  16
HETATM   16  N5  UNL     1      23.777  -0.527  52.993  1.00  0.00    -0.341 N 
HETATM   17  H9  UNL     1      24.039  -1.533  53.115  1.00  0.00     0.167 HD
BRANCH  16  18
HETATM   18  C9  UNL     1      22.361  -0.375  52.783  1.00  0.00     0.035 A 
HETATM   19  C10 UNL     1      21.473  -0.793  53.787  1.00  0.00     0.032 A 
HETATM   20  C11 UNL     1      20.080  -0.720  53.730  1.00  0.00     0.046 A 
HETATM   21  C12 UNL     1      19.601  -0.174  52.549  1.00  0.00     0.138 A 
HETATM   22  F1  UNL     1      18.250  -0.096  52.469  1.00  0.00    -0.204 F 
HETATM   23  C13 UNL     1      20.375   0.268  51.500  1.00  0.00     0.074 A 
HETATM   24 CL1  UNL     1      19.703   0.961  50.034  1.00  0.00    -0.081 Cl
HETATM   25  C14 UNL     1      21.736   0.140  51.672  1.00  0.00     0.056 A 
ENDBRANCH  16  18
ENDBRANCH  11  16
BRANCH   1  26
HETATM   26  C2  UNL     1      26.022   2.495  50.544  1.00  0.00     0.089 C 
HETATM   27  C1  UNL     1      26.424   3.424  49.383  1.00  0.00     0.021 C 
ENDBRANCH   1  26
TORSDOF 4
ENDMDL
MODEL 3
REMARK VINA RESULT:      -7.5      2.664      3.734
REMARK  4 active torsions:
REMARK  status: ('A' for Active; 'I' for Inactive)
REMARK    1  A    between atoms: C2_2  and  N1_3 
REMARK    2  A    between atoms: N2_8  and  C6_9 
REMARK    3  A    between atoms: C8_13  and  N5_14 
REMARK    4  A    between atoms: N5_14  and  C9_15 
ROOT
HETATM    1  N1  UNL     1      22.760   6.231  50.312  1.00  0.00    -0.264 NA
HETATM    2  C3  UNL     1      23.855   6.708  50.254  1.00  0.00     0.121 A 
HETATM    3  C4  UNL     1      24.822   7.111  50.215  1.00  0.00     0.038 A 
HETATM    4  C5  UNL     1      26.000   7.580  50.186  1.00  0.00     0.231 A 
HETATM    5  O1  UNL     1      26.978   8.196  49.980  1.00  0.00    -0.283 OA
HETATM    6  N2  UNL     1      25.237   6.435  50.880  1.00  0.00     0.000 N 
HETATM    7  C6  UNL     1      23.924   5.698  51.076  1.00  0.00     0.144 A 
HETATM    8  N3  UNL     1      23.705   5.729  52.495  1.00  0.00    -0.357 N 
HETATM    9  C7  UNL     1      23.777   4.664  53.430  1.00  0.00     0.207 A 
HETATM   10  N4  UNL     1      24.068   3.469  52.995  1.00  0.00    -0.226 NA
HETATM   11  C8  UNL     1      24.303   3.296  51.582  1.00  0.00     0.135 A 
HETATM   12  C15 UNL     1      24.242   4.297  50.691  1.00  0.00     0.008 A 
HETATM   13  C16 UNL     1      24.515   3.855  49.295  1.00  0.00     0.052 C 
HETATM   14  H6  UNL     1      26.016   5.920  51.552  1.00  0.00     0.000 HD
HETATM   15  H7  UNL     1      23.461   6.676  52.852  1.00  0.00     0.162 HD
ENDROOT
BRANCH  11  16
HETATM   16  N5  UNL     1      24.621   1.927  51.288  1.00  0.00    -0.341 N 
HETATM   17  H9  UNL     1      24.234   1.210  50.631  1.00  0.00     0.167 HD
BRANCH  16  18
HETATM   18  C9  UNL     1      25.712   1.396  52.063  1.00  0.00     0.035 A 
HETATM   19  C10 UNL     1      25.702   0.037  52.414  1.00  0.00     0.032 A 
HETATM   20  C11 UNL     1      26.678  -0.621  53.165  1.00  0.00     0.046 A 
HETATM   21  C12 UNL     1      27.719   0.202  53.564  1.00  0.00     0.138 A 
HETATM   22  F1  UNL     1      28.677  -0.415  54.300  1.00  0.00    -0.204 F 
HETATM   23  C13 UNL     1      27.833   1.543  53.281  1.00  0.00     0.074 A 
HETATM   24 CL1  UNL     1      29.187   2.527  53.809  1.00  0.00    -0.081 Cl
HETATM   25  C14 UNL     1      26.806   2.081  52.536  1.00  0.00     0.056 A 
ENDBRANCH  16  18
ENDBRANCH  11  16
BRANCH   1  26
HETATM   26  C2  UNL     1      21.725   5.315  50.732  1.00  0.00     0.089 C 
HETATM   27  C1  UNL     1      20.639   5.404  49.644  1.00  0.00     0.021 C 
ENDBRANCH   1  26
TORSDOF 4
ENDMDL
MODEL 4
REMARK VINA RESULT:      -7.5      4.057      5.040
REMARK  4 active torsions:
REMARK  status: ('A' for Active; 'I' for Inactive)
REMARK    1  A    between atoms: C2_2  and  N1_3 
REMARK    2  A    between atoms: N2_8  and  C6_9 
REMARK    3  A    between atoms: C8_13  and  N5_14 
REMARK    4  A    between atoms: N5_14  and  C9_15 
ROOT
HETATM    1  N1  UNL     1      22.627   5.895  50.345  1.00  0.00    -0.264 NA
HETATM    2  C3  UNL     1      23.740   6.271  50.116  1.00  0.00     0.121 A 
HETATM    3  C4  UNL     1      24.721   6.587  49.928  1.00  0.00     0.038 A 
HETATM    4  C5  UNL     1      25.918   6.951  49.719  1.00  0.00     0.231 A 
HETATM    5  O1  UNL     1      26.906   7.457  49.339  1.00  0.00    -0.283 OA
HETATM    6  N2  UNL     1      25.161   5.958  50.622  1.00  0.00     0.000 N 
HETATM    7  C6  UNL     1      23.831   5.358  51.042  1.00  0.00     0.144 A 
HETATM    8  N3  UNL     1      23.777   5.567  52.463  1.00  0.00    -0.357 N 
HETATM    9  C7  UNL     1      23.881   4.611  53.506  1.00  0.00     0.207 A 
HETATM   10  N4  UNL     1      24.037   3.355  53.191  1.00  0.00    -0.226 NA
HETATM   11  C8  UNL     1      24.097   3.005  51.792  1.00  0.00     0.135 A 
HETATM   12  C15 UNL     1      24.006   3.901  50.799  1.00  0.00     0.008 A 
HETATM   13  C16 UNL     1      24.087   3.284  49.445  1.00  0.00     0.052 C 
HETATM   14  H6  UNL     1      25.974   5.460  51.266  1.00  0.00     0.000 HD
HETATM   15  H7  UNL     1      23.642   6.564  52.725  1.00  0.00     0.162 HD
ENDROOT
BRANCH  11  16
HETATM   16  N5  UNL     1      24.284   1.591  51.634  1.00  0.00    -0.341 N 
HETATM   17  H9  UNL     1      24.978   0.995  51.124  1.00  0.00     0.167 HD
BRANCH  16  18
HETATM   18  C9  UNL     1      23.305   0.787  52.318  1.00  0.00     0.035 A 
HETATM   19  C10 UNL     1      23.712  -0.016  53.395  1.00  0.00     0.032 A 
HETATM   20  C11 UNL     1      22.888  -0.853  54.150  1.00  0.00     0.046 A 
HETATM   21  C12 UNL     1      21.563  -0.838  53.745  1.00  0.00     0.138 A 
HETATM   22  F1  UNL     1      20.743  -1.647  54.461  1.00  0.00    -0.204 F 
HETATM   23  C13 UNL     1      21.052  -0.093  52.707  1.00  0.00     0.074 A 
HETATM   24 CL1  UNL     1      19.356  -0.112  52.252  1.00  0.00    -0.081 Cl
HETATM   25  C14 UNL     1      21.963   0.690  52.034  1.00  0.00     0.056 A 
ENDBRANCH  16  18
ENDBRANCH  11  16
BRANCH   1  26
HETATM   26  C2  UNL     1      21.586   5.121  50.979  1.00  0.00     0.089 C 
HETATM   27  C1  UNL     1      20.366   5.242  50.047  1.00  0.00     0.021 C 
ENDBRANCH   1  26
TORSDOF 4
ENDMDL
MODEL 5
REMARK VINA RESULT:      -7.3      2.462      2.968
REMARK  4 active torsions:
REMARK  status: ('A' for Active; 'I' for Inactive)
REMARK    1  A    between atoms: C2_2  and  N1_3 
REMARK    2  A    between atoms: N2_8  and  C6_9 
REMARK    3  A    between atoms: C8_13  and  N5_14 
REMARK    4  A    between atoms: N5_14  and  C9_15 
ROOT
HETATM    1  N1  UNL     1      21.603   5.992  50.243  1.00  0.00    -0.264 NA
HETATM    2  C3  UNL     1      20.851   5.191  50.718  1.00  0.00     0.121 A 
HETATM    3  C4  UNL     1      20.208   4.476  51.133  1.00  0.00     0.038 A 
HETATM    4  C5  UNL     1      19.448   3.591  51.632  1.00  0.00     0.231 A 
HETATM    5  O1  UNL     1      18.568   2.987  52.120  1.00  0.00    -0.283 OA
HETATM    6  N2  UNL     1      20.863   3.682  51.029  1.00  0.00     0.000 N 
HETATM    7  C6  UNL     1      21.944   4.550  50.409  1.00  0.00     0.144 A 
HETATM    8  N3  UNL     1      22.240   3.912  49.156  1.00  0.00    -0.357 N 
HETATM    9  C7  UNL     1      23.405   3.197  48.776  1.00  0.00     0.207 A 
HETATM   10  N4  UNL     1      24.376   3.081  49.639  1.00  0.00    -0.226 NA
HETATM   11  C8  UNL     1      24.212   3.686  50.938  1.00  0.00     0.135 A 
HETATM   12  C15 UNL     1      23.112   4.360  51.308  1.00  0.00     0.008 A 
HETATM   13  C16 UNL     1      23.195   4.895  52.696  1.00  0.00     0.052 C 
HETATM   14  H6  UNL     1      21.272   2.607  51.060  1.00  0.00     0.000 HD
HETATM   15  H7  UNL     1      21.476   4.009  48.457  1.00  0.00     0.162 HD
ENDROOT
BRANCH  11  16
HETATM   16  N5  UNL     1      25.367   3.447  51.756  1.00  0.00    -0.341 N 
HETATM   17  H9  UNL     1      26.143   4.047  52.121  1.00  0.00     0.167 HD
BRANCH  16  18
HETATM   18  C9  UNL     1      25.517   2.079  52.177  1.00  0.00     0.035 A 
HETATM   19  C10 UNL     1      26.670   1.371  51.801  1.00  0.00     0.032 A 
HETATM   20  C11 UNL     1      26.956   0.043  52.122  1.00  0.00     0.046 A 
HETATM   21  C12 UNL     1      25.972  -0.568  52.883  1.00  0.00     0.138 A 
HETATM   22  F1  UNL     1      26.226  -1.861  53.205  1.00  0.00    -0.204 F 
HETATM   23  C13 UNL     1      24.805   0.025  53.308  1.00  0.00     0.074 A 
HETATM   24 CL1  UNL     1      23.603  -0.804  54.281  1.00  0.00    -0.081 Cl
HETATM   25  C14 UNL     1      24.633   1.337  52.925  1.00  0.00     0.056 A 
ENDBRANCH  16  18
ENDBRANCH  11  16
BRANCH   1  26
HETATM   26  C2  UNL     1      22.820   6.486  49.645  1.00  0.00     0.089 C 
HETATM   27  C1  UNL     1      22.918   7.960  50.081  1.00  0.00     0.021 C 
ENDBRANCH   1  26
TORSDOF 4
ENDMDL
MODEL 6
REMARK VINA RESULT:      -7.1      2.333      3.161
REMARK  4 active torsions:
REMARK  status: ('A' for Active; 'I' for Inactive)
REMARK    1  A    between atoms: C2_2  and  N1_3 
REMARK    2  A    between atoms: N2_8  and  C6_9 
REMARK    3  A    between atoms: C8_13  and  N5_14 
REMARK    4  A    between atoms: N5_14  and  C9_15 
ROOT
HETATM    1  N1  UNL     1      24.628   5.821  49.896  1.00  0.00    -0.264 NA
HETATM    2  C3  UNL     1      23.525   6.282  49.936  1.00  0.00     0.121 A 
HETATM    3  C4  UNL     1      22.552   6.667  49.975  1.00  0.00     0.038 A 
HETATM    4  C5  UNL     1      21.363   7.109  50.026  1.00  0.00     0.231 A 
HETATM    5  O1  UNL     1      20.389   7.763  50.034  1.00  0.00    -0.283 OA
HETATM    6  N2  UNL     1      22.090   5.752  50.118  1.00  0.00     0.000 N 
HETATM    7  C6  UNL     1      23.404   4.994  50.099  1.00  0.00     0.144 A 
HETATM    8  N3  UNL     1      23.234   4.009  49.067  1.00  0.00    -0.357 N 
HETATM    9  C7  UNL     1      23.089   2.603  49.195  1.00  0.00     0.207 A 
HETATM   10  N4  UNL     1      23.118   2.078  50.388  1.00  0.00    -0.226 NA
HETATM   11  C8  UNL     1      23.295   2.958  51.518  1.00  0.00     0.135 A 
HETATM   12  C15 UNL     1      23.427   4.288  51.408  1.00  0.00     0.008 A 
HETATM   13  C16 UNL     1      23.606   4.968  52.721  1.00  0.00     0.052 C 
HETATM   14  H6  UNL     1      21.254   4.974  50.256  1.00  0.00     0.000 HD
HETATM   15  H7  UNL     1      23.221   4.417  48.110  1.00  0.00     0.162 HD
ENDROOT
BRANCH  11  16
HETATM   16  N5  UNL     1      23.288   2.212  52.744  1.00  0.00    -0.341 N 
HETATM   17  H9  UNL     1      22.578   2.040  53.494  1.00  0.00     0.167 HD
BRANCH  16  18
HETATM   18  C9  UNL     1      24.531   1.545  53.034  1.00  0.00     0.035 A 
HETATM   19  C10 UNL     1      24.540   0.149  53.176  1.00  0.00     0.032 A 
HETATM   20  C11 UNL     1      25.656  -0.638  53.464  1.00  0.00     0.046 A 
HETATM   21  C12 UNL     1      26.826   0.091  53.608  1.00  0.00     0.138 A 
HETATM   22  F1  UNL     1      27.925  -0.652  53.893  1.00  0.00    -0.204 F 
HETATM   23  C13 UNL     1      26.936   1.458  53.493  1.00  0.00     0.074 A 
HETATM   24 CL1  UNL     1      28.454   2.320  53.677  1.00  0.00    -0.081 Cl
HETATM   25  C14 UNL     1      25.765   2.126  53.211  1.00  0.00     0.056 A 
ENDBRANCH  16  18
ENDBRANCH  11  16
BRANCH   1  26
HETATM   26  C2  UNL     1      25.649   4.800  49.932  1.00  0.00     0.089 C 
HETATM   27  C1  UNL     1      26.710   5.250  48.911  1.00  0.00     0.021 C 
ENDBRANCH   1  26
TORSDOF 4
ENDMDL
MODEL 7
REMARK VINA RESULT:      -7.1      2.004      2.465
REMARK  4 active torsions:
REMARK  status: ('A' for Active; 'I' for Inactive)
REMARK    1  A    between atoms: C2_2  and  N1_3 
REMARK    2  A    between atoms: N2_8  and  C6_9 
REMARK    3  A    between atoms: C8_13  and  N5_14 
REMARK    4  A    between atoms: N5_14  and  C9_15 
ROOT
HETATM    1  N1  UNL     1      21.387   4.811  51.343  1.00  0.00    -0.264 NA
HETATM    2  C3  UNL     1      21.107   3.767  51.855  1.00  0.00     0.121 A 
HETATM    3  C4  UNL     1      20.878   2.844  52.295  1.00  0.00     0.038 A 
HETATM    4  C5  UNL     1      20.623   1.716  52.816  1.00  0.00     0.231 A 
HETATM    5  O1  UNL     1      20.174   0.810  53.413  1.00  0.00    -0.283 OA
HETATM    6  N2  UNL     1      21.669   2.332  51.866  1.00  0.00     0.000 N 
HETATM    7  C6  UNL     1      22.177   3.563  51.138  1.00  0.00     0.144 A 
HETATM    8  N3  UNL     1      22.224   3.168  49.758  1.00  0.00    -0.357 N 
HETATM    9  C7  UNL     1      23.358   2.925  48.940  1.00  0.00     0.207 A 
HETATM   10  N4  UNL     1      24.546   3.077  49.457  1.00  0.00    -0.226 NA
HETATM   11  C8  UNL     1      24.642   3.483  50.839  1.00  0.00     0.135 A 
HETATM   12  C15 UNL     1      23.576   3.710  51.621  1.00  0.00     0.008 A 
HETATM   13  C16 UNL     1      23.944   4.127  53.003  1.00  0.00     0.052 C 
HETATM   14  H6  UNL     1      22.366   1.462  51.584  1.00  0.00     0.000 HD
HETATM   15  H7  UNL     1      21.281   3.055  49.332  1.00  0.00     0.162 HD
ENDROOT
BRANCH  11  16
HETATM   16  N5  UNL     1      26.016   3.587  51.240  1.00  0.00    -0.341 N 
HETATM   17  H9  UNL     1      26.739   4.342  51.192  1.00  0.00     0.167 HD
BRANCH  16  18
HETATM   18  C9  UNL     1      26.546   2.390  51.841  1.00  0.00     0.035 A 
HETATM   19  C10 UNL     1      25.956   1.154  51.535  1.00  0.00     0.032 A 
HETATM   20  C11 UNL     1      26.347  -0.087  52.041  1.00  0.00     0.046 A 
HETATM   21  C12 UNL     1      27.421  -0.016  52.915  1.00  0.00     0.138 A 
HETATM   22  F1  UNL     1      27.817  -1.210  53.423  1.00  0.00    -0.204 F 
HETATM   23  C13 UNL     1      28.075   1.136  53.286  1.00  0.00     0.074 A 
HETATM   24 CL1  UNL     1      29.439   1.154  54.392  1.00  0.00    -0.081 Cl
HETATM   25  C14 UNL     1      27.595   2.298  52.725  1.00  0.00     0.056 A 
ENDBRANCH  16  18
ENDBRANCH  11  16
BRANCH   1  26
HETATM   26  C2  UNL     1      22.137   5.737  50.527  1.00  0.00     0.089 C 
HETATM   27  C1  UNL     1      21.671   7.137  50.969  1.00  0.00     0.021 C 
ENDBRANCH   1  26
TORSDOF 4
ENDMDL
MODEL 8
REMARK VINA RESULT:      -7.0      6.169      8.194
REMARK  4 active torsions:
REMARK  status: ('A' for Active; 'I' for Inactive)
REMARK    1  A    between atoms: C2_2  and  N1_3 
REMARK    2  A    between atoms: N2_8  and  C6_9 
REMARK    3  A    between atoms: C8_13  and  N5_14 
REMARK    4  A    between atoms: N5_14  and  C9_15 
ROOT
HETATM    1  N1  UNL     1      30.195   9.870  48.030  1.00  0.00    -0.264 NA
HETATM    2  C3  UNL     1      30.760   8.934  48.516  1.00  0.00     0.121 A 
HETATM    3  C4  UNL     1      31.237   8.107  48.948  1.00  0.00     0.038 A 
HETATM    4  C5  UNL     1      31.790   7.098  49.482  1.00  0.00     0.231 A 
HETATM    5  O1  UNL     1      32.531   6.267  49.854  1.00  0.00    -0.283 OA
HETATM    6  N2  UNL     1      30.386   7.728  49.399  1.00  0.00     0.000 N 
HETATM    7  C6  UNL     1      29.506   8.843  48.864  1.00  0.00     0.144 A 
HETATM    8  N3  UNL     1      28.897   9.411  50.035  1.00  0.00    -0.357 N 
HETATM    9  C7  UNL     1      27.546   9.333  50.460  1.00  0.00     0.207 A 
HETATM   10  N4  UNL     1      26.694   8.678  49.720  1.00  0.00    -0.226 NA
HETATM   11  C8  UNL     1      27.175   8.065  48.506  1.00  0.00     0.135 A 
HETATM   12  C15 UNL     1      28.451   8.128  48.098  1.00  0.00     0.008 A 
HETATM   13  C16 UNL     1      28.688   7.422  46.808  1.00  0.00     0.052 C 
HETATM   14  H6  UNL     1      29.714   7.045  50.035  1.00  0.00     0.000 HD
HETATM   15  H7  UNL     1      29.565   9.946  50.626  1.00  0.00     0.162 HD
ENDROOT
BRANCH  11  16
HETATM   16  N5  UNL     1      26.110   7.380  47.831  1.00  0.00    -0.341 N 
HETATM   17  H9  UNL     1      25.552   7.565  46.965  1.00  0.00     0.167 HD
BRANCH  16  18
HETATM   18  C9  UNL     1      25.691   6.162  48.475  1.00  0.00     0.035 A 
HETATM   19  C10 UNL     1      26.661   5.219  48.848  1.00  0.00     0.032 A 
HETATM   20  C11 UNL     1      26.415   3.993  49.470  1.00  0.00     0.046 A 
HETATM   21  C12 UNL     1      25.071   3.754  49.711  1.00  0.00     0.138 A 
HETATM   22  F1  UNL     1      24.807   2.567  50.311  1.00  0.00    -0.204 F 
HETATM   23  C13 UNL     1      24.037   4.602  49.389  1.00  0.00     0.074 A 
HETATM   24 CL1  UNL     1      22.354   4.242  49.733  1.00  0.00    -0.081 Cl
HETATM   25  C14 UNL     1      24.405   5.779  48.775  1.00  0.00     0.056 A 
ENDBRANCH  16  18
ENDBRANCH  11  16
BRANCH   1  26
HETATM   26  C2  UNL     1      29.088  10.740  47.711  1.00  0.00     0.089 C 
HETATM   27  C1  UNL     1      29.716  11.950  46.996  1.00  0.00     0.021 C 
ENDBRANCH   1  26
TORSDOF 4
ENDMDL
MODEL 9
REMARK VINA RESULT:      -7.0      3.788      6.272
REMARK  4 active torsions:
REMARK  status: ('A' for Active; 'I' for Inactive)
REMARK    1  A    between atoms: C2_2  and  N1_3 
REMARK    2  A    between atoms: N2_8  and  C6_9 
REMARK    3  A    between atoms: C8_13  and  N5_14 
REMARK    4  A    between atoms: N5_14  and  C9_15 
ROOT
HETATM    1  N1  UNL     1      22.769   0.858  53.280  1.00  0.00    -0.264 NA
HETATM    2  C3  UNL     1      23.903   0.586  53.013  1.00  0.00     0.121 A 
HETATM    3  C4  UNL     1      24.895   0.361  52.764  1.00  0.00     0.038 A 
HETATM    4  C5  UNL     1      26.095   0.104  52.440  1.00  0.00     0.231 A 
HETATM    5  O1  UNL     1      27.198  -0.291  52.371  1.00  0.00    -0.283 OA
HETATM    6  N2  UNL     1      24.917   0.945  51.910  1.00  0.00     0.000 N 
HETATM    7  C6  UNL     1      23.482   1.405  52.090  1.00  0.00     0.144 A 
HETATM    8  N3  UNL     1      22.835   1.050  50.857  1.00  0.00    -0.357 N 
HETATM    9  C7  UNL     1      22.369   1.900  49.821  1.00  0.00     0.207 A 
HETATM   10  N4  UNL     1      22.511   3.189  49.958  1.00  0.00    -0.226 NA
HETATM   11  C8  UNL     1      23.138   3.682  51.160  1.00  0.00     0.135 A 
HETATM   12  C15 UNL     1      23.587   2.887  52.143  1.00  0.00     0.008 A 
HETATM   13  C16 UNL     1      24.184   3.643  53.280  1.00  0.00     0.052 C 
HETATM   14  H6  UNL     1      25.308   1.431  50.944  1.00  0.00     0.000 HD
HETATM   15  H7  UNL     1      22.707   0.024  50.742  1.00  0.00     0.162 HD
ENDROOT
BRANCH  11  16
HETATM   16  N5  UNL     1      23.222   5.115  51.134  1.00  0.00    -0.341 N 
HETATM   17  H9  UNL     1      22.746   5.887  51.657  1.00  0.00     0.167 HD
BRANCH  16  18
HETATM   18  C9  UNL     1      24.162   5.633  50.175  1.00  0.00     0.035 A 
HETATM   19  C10 UNL     1      23.834   6.791  49.454  1.00  0.00     0.032 A 
HETATM   20  C11 UNL     1      24.632   7.408  48.488  1.00  0.00     0.046 A 
HETATM   21  C12 UNL     1      25.842   6.766  48.276  1.00  0.00     0.138 A 
HETATM   22  F1  UNL     1      26.633   7.344  47.338  1.00  0.00    -0.204 F 
HETATM   23  C13 UNL     1      26.268   5.628  48.922  1.00  0.00     0.074 A 
HETATM   24 CL1  UNL     1      27.820   4.869  48.612  1.00  0.00    -0.081 Cl
HETATM   25  C14 UNL     1      25.392   5.109  49.850  1.00  0.00     0.056 A 
ENDBRANCH  16  18
ENDBRANCH  11  16
BRANCH   1  26
HETATM   26  C2  UNL     1      21.478   1.489  53.130  1.00  0.00     0.089 C 
HETATM   27  C1  UNL     1      20.472   0.507  53.757  1.00  0.00     0.021 C 
ENDBRANCH   1  26
TORSDOF 4
ENDMDL
