MODEL 1
REMARK VINA RESULT:      -9.1      0.000      0.000
REMARK  3 active torsions:
REMARK  status: ('A' for Active; 'I' for Inactive)
REMARK    1  A    between atoms: C7_8  and  N2_9 
REMARK    2  A    between atoms: N2_9  and  C8_10 
REMARK    3  A    between atoms: C13_16  and  O1_17 
ROOT
HETATM    1  C1  UNL     1      16.836   0.654  50.947  1.00  0.00     0.018 C 
HETATM    2  C2  UNL     1      18.119  -0.133  51.059  1.00  0.00     0.030 A 
HETATM    3  C3  UNL     1      19.318   0.637  50.686  1.00  0.00    -0.007 A 
HETATM    4  C4  UNL     1      20.209   0.696  51.664  1.00  0.00    -0.010 A 
HETATM    5  C5  UNL     1      21.484   1.411  51.523  1.00  0.00     0.161 C 
HETATM    6  N1  UNL     1      22.577   0.852  52.245  1.00  0.00    -0.379 N 
HETATM    7  C6  UNL     1      22.637   0.054  53.393  1.00  0.00     0.129 A 
HETATM    8  C7  UNL     1      23.954  -0.257  53.722  1.00  0.00     0.160 A 
HETATM    9  N3  UNL     1      24.254  -1.016  54.791  1.00  0.00    -0.222 NA
HETATM   10  C14 UNL     1      23.251  -1.484  55.557  1.00  0.00     0.238 A 
HETATM   11  N4  UNL     1      21.950  -1.206  55.272  1.00  0.00    -0.215 NA
HETATM   12  C15 UNL     1      21.657  -0.441  54.194  1.00  0.00     0.202 A 
HETATM   13  O2  UNL     1      20.288  -0.213  53.988  1.00  0.00    -0.290 OA
HETATM   14  C16 UNL     1      19.606  -0.064  52.763  1.00  0.00     0.082 A 
HETATM   15  C17 UNL     1      18.414  -0.548  52.448  1.00  0.00     0.019 A 
HETATM   16  H8  UNL     1      23.535   1.078  51.840  1.00  0.00     0.160 HD
ENDROOT
BRANCH   8  17
HETATM   17  N2  UNL     1      25.063   0.190  52.986  1.00  0.00    -0.337 N 
HETATM   18  H9  UNL     1      25.028   0.149  51.931  1.00  0.00     0.167 HD
BRANCH  17  19
HETATM   19  C8  UNL     1      26.357   0.738  53.193  1.00  0.00     0.068 A 
HETATM   20  C9  UNL     1      26.759   2.045  53.281  1.00  0.00     0.032 A 
HETATM   21  C10 UNL     1      28.096   2.305  53.482  1.00  0.00     0.004 A 
HETATM   22  C11 UNL     1      29.054   1.316  53.602  1.00  0.00     0.022 A 
HETATM   23  C12 UNL     1      28.646   0.004  53.513  1.00  0.00     0.046 A 
HETATM   24 BR1  UNL     1      29.986  -1.337  53.680  1.00  0.00    -0.048 Br
HETATM   25  C13 UNL     1      27.299  -0.289  53.309  1.00  0.00     0.109 A 
BRANCH  25  26
HETATM   26  O1  UNL     1      27.039  -1.664  53.241  1.00  0.00    -0.357 OA
HETATM   27  H13 UNL     1      26.050  -1.917  53.323  1.00  0.00     0.217 HD
ENDBRANCH  25  26
ENDBRANCH  17  19
ENDBRANCH   8  17
TORSDOF 3
ENDMDL
MODEL 2
REMARK VINA RESULT:      -8.6      5.148      7.257
REMARK  3 active torsions:
REMARK  status: ('A' for Active; 'I' for Inactive)
REMARK    1  A    between atoms: C7_8  and  N2_9 
REMARK    2  A    between atoms: N2_9  and  C8_10 
REMARK    3  A    between atoms: C13_16  and  O1_17 
ROOT
HETATM    1  C1  UNL     1      27.174  -2.002  52.691  1.00  0.00     0.018 C 
HETATM    2  C2  UNL     1      26.656  -0.696  53.245  1.00  0.00     0.030 A 
HETATM    3  C3  UNL     1      27.186   0.490  52.550  1.00  0.00    -0.007 A 
HETATM    4  C4  UNL     1      26.229   1.250  52.040  1.00  0.00    -0.010 A 
HETATM    5  C5  UNL     1      26.517   2.487  51.303  1.00  0.00     0.161 C 
HETATM    6  N1  UNL     1      25.541   3.516  51.438  1.00  0.00    -0.379 N 
HETATM    7  C6  UNL     1      24.175   3.484  51.741  1.00  0.00     0.129 A 
HETATM    8  C7  UNL     1      23.636   4.768  51.769  1.00  0.00     0.160 A 
HETATM    9  N3  UNL     1      22.337   4.981  52.041  1.00  0.00    -0.222 NA
HETATM   10  C14 UNL     1      21.542   3.923  52.290  1.00  0.00     0.238 A 
HETATM   11  N4  UNL     1      22.027   2.652  52.273  1.00  0.00    -0.215 NA
HETATM   12  C15 UNL     1      23.337   2.446  51.999  1.00  0.00     0.202 A 
HETATM   13  O2  UNL     1      23.737   1.101  52.005  1.00  0.00    -0.290 OA
HETATM   14  C16 UNL     1      24.981   0.565  52.394  1.00  0.00     0.082 A 
HETATM   15  C17 UNL     1      25.193  -0.548  53.080  1.00  0.00     0.019 A 
HETATM   16  H8  UNL     1      25.914   4.501  51.282  1.00  0.00     0.160 HD
ENDROOT
BRANCH   8  17
HETATM   17  N2  UNL     1      24.384   5.929  51.518  1.00  0.00    -0.337 N 
HETATM   18  H9  UNL     1      25.138   6.211  52.202  1.00  0.00     0.167 HD
BRANCH  17  19
HETATM   19  C8  UNL     1      24.490   6.968  50.556  1.00  0.00     0.068 A 
HETATM   20  C9  UNL     1      23.655   8.025  50.301  1.00  0.00     0.032 A 
HETATM   21  C10 UNL     1      23.996   8.897  49.291  1.00  0.00     0.004 A 
HETATM   22  C11 UNL     1      25.136   8.764  48.522  1.00  0.00     0.022 A 
HETATM   23  C12 UNL     1      25.972   7.700  48.781  1.00  0.00     0.046 A 
HETATM   24 BR1  UNL     1      27.534   7.540  47.706  1.00  0.00    -0.048 Br
HETATM   25  C13 UNL     1      25.653   6.801  49.797  1.00  0.00     0.109 A 
BRANCH  25  26
HETATM   26  O1  UNL     1      26.596   5.776  49.941  1.00  0.00    -0.357 OA
HETATM   27  H13 UNL     1      26.483   4.995  49.289  1.00  0.00     0.217 HD
ENDBRANCH  25  26
ENDBRANCH  17  19
ENDBRANCH   8  17
TORSDOF 3
ENDMDL
MODEL 3
REMARK VINA RESULT:      -8.4      4.256      7.494
REMARK  3 active torsions:
REMARK  status: ('A' for Active; 'I' for Inactive)
REMARK    1  A    between atoms: C7_8  and  N2_9 
REMARK    2  A    between atoms: N2_9  and  C8_10 
REMARK    3  A    between atoms: C13_16  and  O1_17 
ROOT
HETATM    1  C1  UNL     1      30.010  -1.211  53.646  1.00  0.00     0.018 C 
HETATM    2  C2  UNL     1      28.872  -0.349  54.135  1.00  0.00     0.030 A 
HETATM    3  C3  UNL     1      28.839   0.989  53.520  1.00  0.00    -0.007 A 
HETATM    4  C4  UNL     1      27.696   1.234  52.897  1.00  0.00    -0.010 A 
HETATM    5  C5  UNL     1      27.433   2.504  52.208  1.00  0.00     0.161 C 
HETATM    6  N1  UNL     1      26.075   2.934  52.223  1.00  0.00    -0.379 N 
HETATM    7  C6  UNL     1      24.869   2.236  52.350  1.00  0.00     0.129 A 
HETATM    8  C7  UNL     1      23.780   3.103  52.316  1.00  0.00     0.160 A 
HETATM    9  N3  UNL     1      22.517   2.654  52.421  1.00  0.00    -0.222 NA
HETATM   10  C14 UNL     1      22.307   1.331  52.562  1.00  0.00     0.238 A 
HETATM   11  N4  UNL     1      23.341   0.448  52.600  1.00  0.00    -0.215 NA
HETATM   12  C15 UNL     1      24.610   0.909  52.494  1.00  0.00     0.202 A 
HETATM   13  O2  UNL     1      25.603  -0.081  52.544  1.00  0.00    -0.290 OA
HETATM   14  C16 UNL     1      26.901   0.016  53.085  1.00  0.00     0.082 A 
HETATM   15  C17 UNL     1      27.545  -0.904  53.787  1.00  0.00     0.019 A 
HETATM   16  H8  UNL     1      25.943   3.985  52.121  1.00  0.00     0.160 HD
ENDROOT
BRANCH   8  17
HETATM   17  N2  UNL     1      23.900   4.493  52.169  1.00  0.00    -0.337 N 
HETATM   18  H9  UNL     1      24.432   5.042  52.898  1.00  0.00     0.167 HD
BRANCH  17  19
HETATM   19  C8  UNL     1      23.513   5.531  51.278  1.00  0.00     0.068 A 
HETATM   20  C9  UNL     1      22.321   6.195  51.161  1.00  0.00     0.032 A 
HETATM   21  C10 UNL     1      22.209   7.170  50.195  1.00  0.00     0.004 A 
HETATM   22  C11 UNL     1      23.237   7.515  49.338  1.00  0.00     0.022 A 
HETATM   23  C12 UNL     1      24.434   6.844  49.460  1.00  0.00     0.046 A 
HETATM   24 BR1  UNL     1      25.832   7.338  48.266  1.00  0.00    -0.048 Br
HETATM   25  C13 UNL     1      24.576   5.853  50.428  1.00  0.00     0.109 A 
BRANCH  25  26
HETATM   26  O1  UNL     1      25.847   5.263  50.430  1.00  0.00    -0.357 OA
HETATM   27  H13 UNL     1      26.547   5.756  50.993  1.00  0.00     0.217 HD
ENDBRANCH  25  26
ENDBRANCH  17  19
ENDBRANCH   8  17
TORSDOF 3
ENDMDL
MODEL 4
REMARK VINA RESULT:      -8.2      3.081      6.950
REMARK  3 active torsions:
REMARK  status: ('A' for Active; 'I' for Inactive)
REMARK    1  A    between atoms: C7_8  and  N2_9 
REMARK    2  A    between atoms: N2_9  and  C8_10 
REMARK    3  A    between atoms: C13_16  and  O1_17 
ROOT
HETATM    1  C1  UNL     1      30.181   0.150  53.824  1.00  0.00     0.018 C 
HETATM    2  C2  UNL     1      28.854   0.778  54.172  1.00  0.00     0.030 A 
HETATM    3  C3  UNL     1      28.096   1.244  52.998  1.00  0.00    -0.007 A 
HETATM    4  C4  UNL     1      26.900   0.684  52.910  1.00  0.00    -0.010 A 
HETATM    5  C5  UNL     1      25.965   0.995  51.821  1.00  0.00     0.161 C 
HETATM    6  N1  UNL     1      24.585   0.947  52.172  1.00  0.00    -0.379 N 
HETATM    7  C6  UNL     1      23.892   0.255  53.172  1.00  0.00     0.129 A 
HETATM    8  C7  UNL     1      22.529   0.537  53.127  1.00  0.00     0.160 A 
HETATM    9  N3  UNL     1      21.665  -0.016  53.996  1.00  0.00    -0.222 NA
HETATM   10  C14 UNL     1      22.136  -0.864  54.930  1.00  0.00     0.238 A 
HETATM   11  N4  UNL     1      23.460  -1.167  55.011  1.00  0.00    -0.215 NA
HETATM   12  C15 UNL     1      24.323  -0.605  54.132  1.00  0.00     0.202 A 
HETATM   13  O2  UNL     1      25.664  -0.982  54.299  1.00  0.00    -0.290 OA
HETATM   14  C16 UNL     1      26.821  -0.209  54.070  1.00  0.00     0.082 A 
HETATM   15  C17 UNL     1      27.920  -0.178  54.808  1.00  0.00     0.019 A 
HETATM   16  H8  UNL     1      23.953   1.551  51.565  1.00  0.00     0.160 HD
ENDROOT
BRANCH   8  17
HETATM   17  N2  UNL     1      21.947   1.402  52.187  1.00  0.00    -0.337 N 
HETATM   18  H9  UNL     1      21.310   2.174  52.526  1.00  0.00     0.167 HD
BRANCH  17  19
HETATM   19  C8  UNL     1      21.918   1.624  50.784  1.00  0.00     0.068 A 
HETATM   20  C9  UNL     1      21.397   0.854  49.779  1.00  0.00     0.032 A 
HETATM   21  C10 UNL     1      21.510   1.307  48.483  1.00  0.00     0.004 A 
HETATM   22  C11 UNL     1      22.121   2.500  48.144  1.00  0.00     0.022 A 
HETATM   23  C12 UNL     1      22.643   3.271  49.159  1.00  0.00     0.046 A 
HETATM   24 BR1  UNL     1      23.480   4.907  48.663  1.00  0.00    -0.048 Br
HETATM   25  C13 UNL     1      22.544   2.838  50.479  1.00  0.00     0.109 A 
BRANCH  25  26
HETATM   26  O1  UNL     1      23.119   3.727  51.395  1.00  0.00    -0.357 OA
HETATM   27  H13 UNL     1      22.447   4.256  51.958  1.00  0.00     0.217 HD
ENDBRANCH  25  26
ENDBRANCH  17  19
ENDBRANCH   8  17
TORSDOF 3
ENDMDL
MODEL 5
REMARK VINA RESULT:      -8.2      8.176     10.251
REMARK  3 active torsions:
REMARK  status: ('A' for Active; 'I' for Inactive)
REMARK    1  A    between atoms: C7_8  and  N2_9 
REMARK    2  A    between atoms: N2_9  and  C8_10 
REMARK    3  A    between atoms: C13_16  and  O1_17 
ROOT
HETATM    1  C1  UNL     1      23.321   4.162  48.620  1.00  0.00     0.018 C 
HETATM    2  C2  UNL     1      24.367   4.942  49.380  1.00  0.00     0.030 A 
HETATM    3  C3  UNL     1      25.712   4.347  49.310  1.00  0.00    -0.007 A 
HETATM    4  C4  UNL     1      26.611   5.180  48.807  1.00  0.00    -0.010 A 
HETATM    5  C5  UNL     1      28.021   4.807  48.641  1.00  0.00     0.161 C 
HETATM    6  N1  UNL     1      28.954   5.872  48.795  1.00  0.00    -0.379 N 
HETATM    7  C6  UNL     1      28.836   7.257  48.633  1.00  0.00     0.129 A 
HETATM    8  C7  UNL     1      30.040   7.901  48.911  1.00  0.00     0.160 A 
HETATM    9  N3  UNL     1      30.162   9.237  48.822  1.00  0.00    -0.222 NA
HETATM   10  C14 UNL     1      29.090   9.965  48.454  1.00  0.00     0.238 A 
HETATM   11  N4  UNL     1      27.895   9.377  48.174  1.00  0.00    -0.215 NA
HETATM   12  C15 UNL     1      27.781   8.031  48.266  1.00  0.00     0.202 A 
HETATM   13  O2  UNL     1      26.510   7.525  47.957  1.00  0.00    -0.290 OA
HETATM   14  C16 UNL     1      25.860   6.405  48.514  1.00  0.00     0.082 A 
HETATM   15  C17 UNL     1      24.578   6.299  48.829  1.00  0.00     0.019 A 
HETATM   16  H8  UNL     1      29.929   5.566  49.092  1.00  0.00     0.160 HD
ENDROOT
BRANCH   8  17
HETATM   17  N2  UNL     1      31.208   7.226  49.297  1.00  0.00    -0.337 N 
HETATM   18  H9  UNL     1      31.190   6.623  50.163  1.00  0.00     0.167 HD
BRANCH  17  19
HETATM   19  C8  UNL     1      32.554   7.055  48.877  1.00  0.00     0.068 A 
HETATM   20  C9  UNL     1      33.540   7.983  48.669  1.00  0.00     0.032 A 
HETATM   21  C10 UNL     1      34.776   7.542  48.250  1.00  0.00     0.004 A 
HETATM   22  C11 UNL     1      35.074   6.210  48.030  1.00  0.00     0.022 A 
HETATM   23  C12 UNL     1      34.080   5.280  48.240  1.00  0.00     0.046 A 
HETATM   24 BR1  UNL     1      34.517   3.455  47.928  1.00  0.00    -0.048 Br
HETATM   25  C13 UNL     1      32.820   5.698  48.663  1.00  0.00     0.109 A 
BRANCH  25  26
HETATM   26  O1  UNL     1      31.918   4.640  48.834  1.00  0.00    -0.357 OA
HETATM   27  H13 UNL     1      32.132   4.017  49.617  1.00  0.00     0.217 HD
ENDBRANCH  25  26
ENDBRANCH  17  19
ENDBRANCH   8  17
TORSDOF 3
ENDMDL
MODEL 6
REMARK VINA RESULT:      -8.1      3.117      7.713
REMARK  3 active torsions:
REMARK  status: ('A' for Active; 'I' for Inactive)
REMARK    1  A    between atoms: C7_8  and  N2_9 
REMARK    2  A    between atoms: N2_9  and  C8_10 
REMARK    3  A    between atoms: C13_16  and  O1_17 
ROOT
HETATM    1  C1  UNL     1      28.367  -1.253  53.179  1.00  0.00     0.018 C 
HETATM    2  C2  UNL     1      27.127  -0.929  52.382  1.00  0.00     0.030 A 
HETATM    3  C3  UNL     1      25.873  -1.207  53.103  1.00  0.00    -0.007 A 
HETATM    4  C4  UNL     1      25.105  -0.135  53.221  1.00  0.00    -0.010 A 
HETATM    5  C5  UNL     1      23.805  -0.171  53.902  1.00  0.00     0.161 C 
HETATM    6  N1  UNL     1      22.821   0.718  53.381  1.00  0.00    -0.379 N 
HETATM    7  C6  UNL     1      22.920   1.920  52.670  1.00  0.00     0.129 A 
HETATM    8  C7  UNL     1      21.660   2.429  52.364  1.00  0.00     0.160 A 
HETATM    9  N3  UNL     1      21.511   3.578  51.683  1.00  0.00    -0.222 NA
HETATM   10  C14 UNL     1      22.610   4.249  51.290  1.00  0.00     0.238 A 
HETATM   11  N4  UNL     1      23.860   3.787  51.566  1.00  0.00    -0.215 NA
HETATM   12  C15 UNL     1      24.002   2.629  52.253  1.00  0.00     0.202 A 
HETATM   13  O2  UNL     1      25.329   2.241  52.487  1.00  0.00    -0.290 OA
HETATM   14  C16 UNL     1      25.855   0.935  52.555  1.00  0.00     0.082 A 
HETATM   15  C17 UNL     1      27.012   0.513  52.067  1.00  0.00     0.019 A 
HETATM   16  H8  UNL     1      21.816   0.418  53.560  1.00  0.00     0.160 HD
ENDROOT
BRANCH   8  17
HETATM   17  N2  UNL     1      20.460   1.803  52.736  1.00  0.00    -0.337 N 
HETATM   18  H9  UNL     1      20.141   1.862  53.741  1.00  0.00     0.167 HD
BRANCH  17  19
HETATM   19  C8  UNL     1      19.412   1.034  52.164  1.00  0.00     0.068 A 
HETATM   20  C9  UNL     1      18.667   1.256  51.036  1.00  0.00     0.032 A 
HETATM   21  C10 UNL     1      17.693   0.341  50.705  1.00  0.00     0.004 A 
HETATM   22  C11 UNL     1      17.428  -0.793  51.451  1.00  0.00     0.022 A 
HETATM   23  C12 UNL     1      18.180  -1.012  52.585  1.00  0.00     0.046 A 
HETATM   24 BR1  UNL     1      17.793  -2.579  53.593  1.00  0.00    -0.048 Br
HETATM   25  C13 UNL     1      19.171  -0.102  52.944  1.00  0.00     0.109 A 
BRANCH  25  26
HETATM   26  O1  UNL     1      19.848  -0.461  54.117  1.00  0.00    -0.357 OA
HETATM   27  H13 UNL     1      20.780  -0.859  53.968  1.00  0.00     0.217 HD
ENDBRANCH  25  26
ENDBRANCH  17  19
ENDBRANCH   8  17
TORSDOF 3
ENDMDL
MODEL 7
REMARK VINA RESULT:      -8.1      3.449      8.038
REMARK  3 active torsions:
REMARK  status: ('A' for Active; 'I' for Inactive)
REMARK    1  A    between atoms: C7_8  and  N2_9 
REMARK    2  A    between atoms: N2_9  and  C8_10 
REMARK    3  A    between atoms: C13_16  and  O1_17 
ROOT
HETATM    1  C1  UNL     1      29.411   0.227  54.334  1.00  0.00     0.018 C 
HETATM    2  C2  UNL     1      28.412   0.525  53.241  1.00  0.00     0.030 A 
HETATM    3  C3  UNL     1      27.263  -0.397  53.225  1.00  0.00    -0.007 A 
HETATM    4  C4  UNL     1      26.105   0.232  53.352  1.00  0.00    -0.010 A 
HETATM    5  C5  UNL     1      24.821  -0.480  53.363  1.00  0.00     0.161 C 
HETATM    6  N1  UNL     1      23.725   0.233  52.798  1.00  0.00    -0.379 N 
HETATM    7  C6  UNL     1      23.476   1.600  52.635  1.00  0.00     0.129 A 
HETATM    8  C7  UNL     1      22.250   1.817  52.010  1.00  0.00     0.160 A 
HETATM    9  N3  UNL     1      21.801   3.058  51.749  1.00  0.00    -0.222 NA
HETATM   10  C14 UNL     1      22.560   4.112  52.104  1.00  0.00     0.238 A 
HETATM   11  N4  UNL     1      23.764   3.946  52.717  1.00  0.00    -0.215 NA
HETATM   12  C15 UNL     1      24.209   2.693  52.976  1.00  0.00     0.202 A 
HETATM   13  O2  UNL     1      25.459   2.630  53.609  1.00  0.00    -0.290 OA
HETATM   14  C16 UNL     1      26.462   1.650  53.460  1.00  0.00     0.082 A 
HETATM   15  C17 UNL     1      27.770   1.848  53.401  1.00  0.00     0.019 A 
HETATM   16  H8  UNL     1      22.942  -0.384  52.424  1.00  0.00     0.160 HD
ENDROOT
BRANCH   8  17
HETATM   17  N2  UNL     1      21.391   0.783  51.609  1.00  0.00    -0.337 N 
HETATM   18  H9  UNL     1      21.652   0.195  50.772  1.00  0.00     0.167 HD
BRANCH  17  19
HETATM   19  C8  UNL     1      20.156   0.188  51.982  1.00  0.00     0.068 A 
HETATM   20  C9  UNL     1      19.808  -0.484  53.124  1.00  0.00     0.032 A 
HETATM   21  C10 UNL     1      18.524  -0.971  53.230  1.00  0.00     0.004 A 
HETATM   22  C11 UNL     1      17.567  -0.817  52.245  1.00  0.00     0.022 A 
HETATM   23  C12 UNL     1      17.921  -0.141  51.098  1.00  0.00     0.046 A 
HETATM   24 BR1  UNL     1      16.585   0.055  49.758  1.00  0.00    -0.048 Br
HETATM   25  C13 UNL     1      19.213   0.363  50.963  1.00  0.00     0.109 A 
BRANCH  25  26
HETATM   26  O1  UNL     1      19.422   1.025  49.746  1.00  0.00    -0.357 OA
HETATM   27  H13 UNL     1      20.304   0.795  49.280  1.00  0.00     0.217 HD
ENDBRANCH  25  26
ENDBRANCH  17  19
ENDBRANCH   8  17
TORSDOF 3
ENDMDL
MODEL 8
REMARK VINA RESULT:      -8.1      4.596      5.644
REMARK  3 active torsions:
REMARK  status: ('A' for Active; 'I' for Inactive)
REMARK    1  A    between atoms: C7_8  and  N2_9 
REMARK    2  A    between atoms: N2_9  and  C8_10 
REMARK    3  A    between atoms: C13_16  and  O1_17 
ROOT
HETATM    1  C1  UNL     1      19.619  -0.580  53.435  1.00  0.00     0.018 C 
HETATM    2  C2  UNL     1      20.897  -0.591  52.632  1.00  0.00     0.030 A 
HETATM    3  C3  UNL     1      20.971   0.484  51.628  1.00  0.00    -0.007 A 
HETATM    4  C4  UNL     1      22.027   1.265  51.796  1.00  0.00    -0.010 A 
HETATM    5  C5  UNL     1      22.310   2.405  50.915  1.00  0.00     0.161 C 
HETATM    6  N1  UNL     1      23.692   2.690  50.713  1.00  0.00    -0.379 N 
HETATM    7  C6  UNL     1      24.828   2.431  51.488  1.00  0.00     0.129 A 
HETATM    8  C7  UNL     1      25.981   2.899  50.862  1.00  0.00     0.160 A 
HETATM    9  N3  UNL     1      27.195   2.760  51.424  1.00  0.00    -0.222 NA
HETATM   10  C14 UNL     1      27.291   2.152  52.621  1.00  0.00     0.238 A 
HETATM   11  N4  UNL     1      26.191   1.679  53.268  1.00  0.00    -0.215 NA
HETATM   12  C15 UNL     1      24.972   1.824  52.695  1.00  0.00     0.202 A 
HETATM   13  O2  UNL     1      23.905   1.304  53.442  1.00  0.00    -0.290 OA
HETATM   14  C16 UNL     1      22.717   0.712  52.966  1.00  0.00     0.082 A 
HETATM   15  C17 UNL     1      22.096  -0.346  53.465  1.00  0.00     0.019 A 
HETATM   16  H8  UNL     1      23.911   3.194  49.802  1.00  0.00     0.160 HD
ENDROOT
BRANCH   8  17
HETATM   17  N2  UNL     1      25.978   3.548  49.618  1.00  0.00    -0.337 N 
HETATM   18  H9  UNL     1      26.069   2.971  48.738  1.00  0.00     0.167 HD
BRANCH  17  19
HETATM   19  C8  UNL     1      25.884   4.857  49.073  1.00  0.00     0.068 A 
HETATM   20  C9  UNL     1      24.781   5.612  48.772  1.00  0.00     0.032 A 
HETATM   21  C10 UNL     1      24.974   6.867  48.240  1.00  0.00     0.004 A 
HETATM   22  C11 UNL     1      26.223   7.407  47.995  1.00  0.00     0.022 A 
HETATM   23  C12 UNL     1      27.329   6.644  48.299  1.00  0.00     0.046 A 
HETATM   24 BR1  UNL     1      29.035   7.411  47.950  1.00  0.00    -0.048 Br
HETATM   25  C13 UNL     1      27.164   5.370  48.838  1.00  0.00     0.109 A 
BRANCH  25  26
HETATM   26  O1  UNL     1      28.378   4.720  49.094  1.00  0.00    -0.357 OA
HETATM   27  H13 UNL     1      29.049   5.265  49.643  1.00  0.00     0.217 HD
ENDBRANCH  25  26
ENDBRANCH  17  19
ENDBRANCH   8  17
TORSDOF 3
ENDMDL
MODEL 9
REMARK VINA RESULT:      -7.9      4.788      7.853
REMARK  3 active torsions:
REMARK  status: ('A' for Active; 'I' for Inactive)
REMARK    1  A    between atoms: C7_8  and  N2_9 
REMARK    2  A    between atoms: N2_9  and  C8_10 
REMARK    3  A    between atoms: C13_16  and  O1_17 
ROOT
HETATM    1  C1  UNL     1      29.331   7.439  48.036  1.00  0.00     0.018 C 
HETATM    2  C2  UNL     1      27.975   6.805  47.836  1.00  0.00     0.030 A 
HETATM    3  C3  UNL     1      27.903   5.409  48.301  1.00  0.00    -0.007 A 
HETATM    4  C4  UNL     1      26.963   5.227  49.217  1.00  0.00    -0.010 A 
HETATM    5  C5  UNL     1      26.706   3.917  49.827  1.00  0.00     0.161 C 
HETATM    6  N1  UNL     1      25.349   3.669  50.186  1.00  0.00    -0.379 N 
HETATM    7  C6  UNL     1      24.287   4.525  50.500  1.00  0.00     0.129 A 
HETATM    8  C7  UNL     1      23.128   3.807  50.781  1.00  0.00     0.160 A 
HETATM    9  N3  UNL     1      21.978   4.423  51.108  1.00  0.00    -0.222 NA
HETATM   10  C14 UNL     1      21.955   5.768  51.165  1.00  0.00     0.238 A 
HETATM   11  N4  UNL     1      23.064   6.509  50.899  1.00  0.00    -0.215 NA
HETATM   12  C15 UNL     1      24.218   5.881  50.569  1.00  0.00     0.202 A 
HETATM   13  O2  UNL     1      25.302   6.734  50.314  1.00  0.00    -0.290 OA
HETATM   14  C16 UNL     1      26.357   6.550  49.397  1.00  0.00     0.082 A 
HETATM   15  C17 UNL     1      26.913   7.470  48.624  1.00  0.00     0.019 A 
HETATM   16  H8  UNL     1      25.083   2.639  50.222  1.00  0.00     0.160 HD
ENDROOT
BRANCH   8  17
HETATM   17  N2  UNL     1      23.058   2.405  50.751  1.00  0.00    -0.337 N 
HETATM   18  H9  UNL     1      23.254   1.901  49.844  1.00  0.00     0.167 HD
BRANCH  17  19
HETATM   19  C8  UNL     1      22.785   1.311  51.615  1.00  0.00     0.068 A 
HETATM   20  C9  UNL     1      21.619   0.628  51.835  1.00  0.00     0.032 A 
HETATM   21  C10 UNL     1      21.629  -0.406  52.744  1.00  0.00     0.004 A 
HETATM   22  C11 UNL     1      22.755  -0.792  53.446  1.00  0.00     0.022 A 
HETATM   23  C12 UNL     1      23.926  -0.102  53.222  1.00  0.00     0.046 A 
HETATM   24 BR1  UNL     1      25.461  -0.654  54.203  1.00  0.00    -0.048 Br
HETATM   25  C13 UNL     1      23.946   0.949  52.308  1.00  0.00     0.109 A 
BRANCH  25  26
HETATM   26  O1  UNL     1      25.205   1.551  52.187  1.00  0.00    -0.357 OA
HETATM   27  H13 UNL     1      25.282   2.472  52.627  1.00  0.00     0.217 HD
ENDBRANCH  25  26
ENDBRANCH  17  19
ENDBRANCH   8  17
TORSDOF 3
ENDMDL
