MODEL 1
REMARK VINA RESULT:      -7.8      0.000      0.000
REMARK  5 active torsions:
REMARK  status: ('A' for Active; 'I' for Inactive)
REMARK    1  A    between atoms: C3_3  and  C4_5 
REMARK    2  A    between atoms: C13_17  and  N4_18 
REMARK    3  A    between atoms: N4_18  and  C14_19 
REMARK    4  A    between atoms: C14_19  and  O1_21 
REMARK    5  A    between atoms: O1_21  and  C16_22 
ROOT
HETATM    1  C4  UNL     1      23.905   1.566  52.105  1.00  0.00    -0.013 C 
HETATM    2  C5  UNL     1      24.409   2.733  52.423  1.00  0.00     0.030 C 
HETATM    3  C6  UNL     1      25.380   2.997  53.481  1.00  0.00     0.118 C 
HETATM    4  N1  UNL     1      26.288   2.212  54.008  1.00  0.00    -0.259 NA
HETATM    5  C7  UNL     1      26.518   0.843  53.615  1.00  0.00     0.088 A 
HETATM    6  C8  UNL     1      27.821   0.481  53.873  1.00  0.00     0.091 A 
HETATM    7  C9  UNL     1      28.736   1.414  54.453  1.00  0.00     0.103 C 
HETATM    8  N2  UNL     1      29.483   2.173  54.936  1.00  0.00    -0.191 NA
HETATM    9  C10 UNL     1      28.218  -0.801  53.557  1.00  0.00     0.141 A 
HETATM   10  N3  UNL     1      27.321  -1.658  53.007  1.00  0.00    -0.271 NA
HETATM   11  C11 UNL     1      26.072  -1.259  52.777  1.00  0.00     0.128 A 
HETATM   12  C12 UNL     1      25.541   0.008  53.049  1.00  0.00     0.017 A 
HETATM   13  C13 UNL     1      24.139   0.198  52.686  1.00  0.00     0.151 C 
ENDROOT
BRANCH  13  14
HETATM   14  N4  UNL     1      23.186  -0.004  53.688  1.00  0.00    -0.385 N 
HETATM   15  H10 UNL     1      22.439   0.714  53.773  1.00  0.00     0.156 HD
BRANCH  14  16
HETATM   16  C14 UNL     1      22.896  -1.266  54.220  1.00  0.00     0.212 C 
HETATM   17  C15 UNL     1      23.362  -1.426  55.621  1.00  0.00     0.063 C 
BRANCH  16  18
HETATM   18  O1  UNL     1      21.520  -1.472  54.078  1.00  0.00    -0.368 OA
BRANCH  18  19
HETATM   19  C16 UNL     1      20.804  -0.287  54.155  1.00  0.00     0.166 C 
HETATM   20  C17 UNL     1      19.537  -0.455  53.358  1.00  0.00     0.033 C 
ENDBRANCH  18  19
ENDBRANCH  16  18
ENDBRANCH  14  16
ENDBRANCH  13  14
BRANCH   1  21
HETATM   21  C3  UNL     1      22.953   1.595  51.003  1.00  0.00     0.015 C 
HETATM   22  C2  UNL     1      21.904   0.801  50.879  1.00  0.00    -0.011 C 
HETATM   23  C1  UNL     1      21.026   0.954  49.694  1.00  0.00     0.037 C 
HETATM   24 BR1  UNL     1      23.167   2.856  49.572  1.00  0.00    -0.051 Br
ENDBRANCH   1  21
TORSDOF 5
ENDMDL
MODEL 2
REMARK VINA RESULT:      -7.3      3.584      5.643
REMARK  5 active torsions:
REMARK  status: ('A' for Active; 'I' for Inactive)
REMARK    1  A    between atoms: C3_3  and  C4_5 
REMARK    2  A    between atoms: C13_17  and  N4_18 
REMARK    3  A    between atoms: N4_18  and  C14_19 
REMARK    4  A    between atoms: C14_19  and  O1_21 
REMARK    5  A    between atoms: O1_21  and  C16_22 
ROOT
HETATM    1  C4  UNL     1      23.241   2.861  51.823  1.00  0.00    -0.013 C 
HETATM    2  C5  UNL     1      22.469   3.916  51.729  1.00  0.00     0.030 C 
HETATM    3  C6  UNL     1      22.910   5.300  51.576  1.00  0.00     0.118 C 
HETATM    4  N1  UNL     1      24.009   5.782  51.050  1.00  0.00    -0.259 NA
HETATM    5  C7  UNL     1      25.067   4.983  50.483  1.00  0.00     0.088 A 
HETATM    6  C8  UNL     1      25.755   5.701  49.530  1.00  0.00     0.091 A 
HETATM    7  C9  UNL     1      25.387   7.049  49.226  1.00  0.00     0.103 C 
HETATM    8  N2  UNL     1      25.091   8.154  48.983  1.00  0.00    -0.191 NA
HETATM    9  C10 UNL     1      26.805   5.088  48.881  1.00  0.00     0.141 A 
HETATM   10  N3  UNL     1      27.125   3.808  49.196  1.00  0.00    -0.271 NA
HETATM   11  C11 UNL     1      26.428   3.155  50.125  1.00  0.00     0.128 A 
HETATM   12  C12 UNL     1      25.345   3.658  50.856  1.00  0.00     0.017 A 
HETATM   13  C13 UNL     1      24.740   2.731  51.808  1.00  0.00     0.151 C 
ENDROOT
BRANCH  13  14
HETATM   14  N4  UNL     1      25.182   2.796  53.133  1.00  0.00    -0.385 N 
HETATM   15  H10 UNL     1      24.624   3.385  53.782  1.00  0.00     0.156 HD
BRANCH  14  16
HETATM   16  C14 UNL     1      25.970   1.800  53.723  1.00  0.00     0.212 C 
HETATM   17  C15 UNL     1      26.207   0.641  52.825  1.00  0.00     0.063 C 
BRANCH  16  18
HETATM   18  O1  UNL     1      27.156   2.406  54.152  1.00  0.00    -0.368 OA
BRANCH  18  19
HETATM   19  C16 UNL     1      28.241   2.042  53.370  1.00  0.00     0.166 C 
HETATM   20  C17 UNL     1      29.321   1.524  54.284  1.00  0.00     0.033 C 
ENDBRANCH  18  19
ENDBRANCH  16  18
ENDBRANCH  14  16
ENDBRANCH  13  14
BRANCH   1  21
HETATM   21  C3  UNL     1      22.529   1.599  51.968  1.00  0.00     0.015 C 
HETATM   22  C2  UNL     1      22.455   0.888  53.079  1.00  0.00    -0.011 C 
HETATM   23  C1  UNL     1      21.690  -0.382  53.068  1.00  0.00     0.037 C 
HETATM   24 BR1  UNL     1      21.599   0.834  50.473  1.00  0.00    -0.051 Br
ENDBRANCH   1  21
TORSDOF 5
ENDMDL
MODEL 3
REMARK VINA RESULT:      -7.3      2.962      6.412
REMARK  5 active torsions:
REMARK  status: ('A' for Active; 'I' for Inactive)
REMARK    1  A    between atoms: C3_3  and  C4_5 
REMARK    2  A    between atoms: C13_17  and  N4_18 
REMARK    3  A    between atoms: N4_18  and  C14_19 
REMARK    4  A    between atoms: C14_19  and  O1_21 
REMARK    5  A    between atoms: O1_21  and  C16_22 
ROOT
HETATM    1  C4  UNL     1      23.896  -0.147  53.627  1.00  0.00    -0.013 C 
HETATM    2  C5  UNL     1      23.241  -0.835  54.530  1.00  0.00     0.030 C 
HETATM    3  C6  UNL     1      21.829  -0.690  54.871  1.00  0.00     0.118 C 
HETATM    4  N1  UNL     1      20.824  -0.266  54.145  1.00  0.00    -0.259 NA
HETATM    5  C7  UNL     1      20.930   0.171  52.774  1.00  0.00     0.088 A 
HETATM    6  C8  UNL     1      19.731  -0.007  52.119  1.00  0.00     0.091 A 
HETATM    7  C9  UNL     1      18.601  -0.558  52.802  1.00  0.00     0.103 C 
HETATM    8  N2  UNL     1      17.675  -1.000  53.362  1.00  0.00    -0.191 NA
HETATM    9  C10 UNL     1      19.650   0.357  50.793  1.00  0.00     0.141 A 
HETATM   10  N3  UNL     1      20.743   0.876  50.178  1.00  0.00    -0.271 NA
HETATM   11  C11 UNL     1      21.880   1.029  50.855  1.00  0.00     0.128 A 
HETATM   12  C12 UNL     1      22.096   0.700  52.200  1.00  0.00     0.017 A 
HETATM   13  C13 UNL     1      23.444   0.951  52.703  1.00  0.00     0.151 C 
ENDROOT
BRANCH  13  14
HETATM   14  N4  UNL     1      23.667   2.168  53.353  1.00  0.00    -0.385 N 
HETATM   15  H10 UNL     1      23.545   2.175  54.385  1.00  0.00     0.156 HD
BRANCH  14  16
HETATM   16  C14 UNL     1      24.473   3.180  52.818  1.00  0.00     0.212 C 
HETATM   17  C15 UNL     1      25.063   2.818  51.504  1.00  0.00     0.063 C 
BRANCH  16  18
HETATM   18  O1  UNL     1      23.700   4.345  52.764  1.00  0.00    -0.368 OA
BRANCH  18  19
HETATM   19  C16 UNL     1      23.164   4.558  51.503  1.00  0.00     0.166 C 
HETATM   20  C17 UNL     1      21.668   4.669  51.646  1.00  0.00     0.033 C 
ENDBRANCH  18  19
ENDBRANCH  16  18
ENDBRANCH  14  16
ENDBRANCH  13  14
BRANCH   1  21
HETATM   21  C3  UNL     1      25.302  -0.502  53.494  1.00  0.00     0.015 C 
HETATM   22  C2  UNL     1      25.802  -1.309  52.574  1.00  0.00    -0.011 C 
HETATM   23  C1  UNL     1      27.260  -1.574  52.570  1.00  0.00     0.037 C 
HETATM   24 BR1  UNL     1      26.601   0.211  54.714  1.00  0.00    -0.051 Br
ENDBRANCH   1  21
TORSDOF 5
ENDMDL
MODEL 4
REMARK VINA RESULT:      -7.1      2.808      4.726
REMARK  5 active torsions:
REMARK  status: ('A' for Active; 'I' for Inactive)
REMARK    1  A    between atoms: C3_3  and  C4_5 
REMARK    2  A    between atoms: C13_17  and  N4_18 
REMARK    3  A    between atoms: N4_18  and  C14_19 
REMARK    4  A    between atoms: C14_19  and  O1_21 
REMARK    5  A    between atoms: O1_21  and  C16_22 
ROOT
HETATM    1  C4  UNL     1      24.460  -0.012  53.087  1.00  0.00    -0.013 C 
HETATM    2  C5  UNL     1      24.867  -1.257  53.133  1.00  0.00     0.030 C 
HETATM    3  C6  UNL     1      26.205  -1.743  52.806  1.00  0.00     0.118 C 
HETATM    4  N1  UNL     1      27.361  -1.130  52.861  1.00  0.00    -0.259 NA
HETATM    5  C7  UNL     1      27.547   0.237  53.283  1.00  0.00     0.088 A 
HETATM    6  C8  UNL     1      28.814   0.416  53.791  1.00  0.00     0.091 A 
HETATM    7  C9  UNL     1      29.739  -0.673  53.845  1.00  0.00     0.103 C 
HETATM    8  N2  UNL     1      30.499  -1.561  53.881  1.00  0.00    -0.191 NA
HETATM    9  C10 UNL     1      29.166   1.669  54.245  1.00  0.00     0.141 A 
HETATM   10  N3  UNL     1      28.261   2.678  54.179  1.00  0.00    -0.271 NA
HETATM   11  C11 UNL     1      27.047   2.454  53.679  1.00  0.00     0.128 A 
HETATM   12  C12 UNL     1      26.564   1.235  53.186  1.00  0.00     0.017 A 
HETATM   13  C13 UNL     1      25.185   1.250  52.706  1.00  0.00     0.151 C 
ENDROOT
BRANCH  13  14
HETATM   14  N4  UNL     1      24.987   1.453  51.337  1.00  0.00    -0.385 N 
HETATM   15  H10 UNL     1      24.600   0.653  50.798  1.00  0.00     0.156 HD
BRANCH  14  16
HETATM   16  C14 UNL     1      24.812   2.723  50.773  1.00  0.00     0.212 C 
HETATM   17  C15 UNL     1      24.238   3.706  51.727  1.00  0.00     0.063 C 
BRANCH  16  18
HETATM   18  O1  UNL     1      26.048   3.124  50.256  1.00  0.00    -0.368 OA
BRANCH  18  19
HETATM   19  C16 UNL     1      26.052   4.462  49.891  1.00  0.00     0.166 C 
HETATM   20  C17 UNL     1      27.172   4.674  48.907  1.00  0.00     0.033 C 
ENDBRANCH  18  19
ENDBRANCH  16  18
ENDBRANCH  14  16
ENDBRANCH  13  14
BRANCH   1  21
HETATM   21  C3  UNL     1      23.068   0.187  53.468  1.00  0.00     0.015 C 
HETATM   22  C2  UNL     1      22.259   1.097  52.954  1.00  0.00    -0.011 C 
HETATM   23  C1  UNL     1      20.864   1.175  53.449  1.00  0.00     0.037 C 
HETATM   24 BR1  UNL     1      22.266  -0.917  54.817  1.00  0.00    -0.051 Br
ENDBRANCH   1  21
TORSDOF 5
ENDMDL
MODEL 5
REMARK VINA RESULT:      -7.1      2.785      4.004
REMARK  5 active torsions:
REMARK  status: ('A' for Active; 'I' for Inactive)
REMARK    1  A    between atoms: C3_3  and  C4_5 
REMARK    2  A    between atoms: C13_17  and  N4_18 
REMARK    3  A    between atoms: N4_18  and  C14_19 
REMARK    4  A    between atoms: C14_19  and  O1_21 
REMARK    5  A    between atoms: O1_21  and  C16_22 
ROOT
HETATM    1  C4  UNL     1      24.263   3.124  50.090  1.00  0.00    -0.013 C 
HETATM    2  C5  UNL     1      25.547   3.149  49.825  1.00  0.00     0.030 C 
HETATM    3  C6  UNL     1      26.628   2.847  50.758  1.00  0.00     0.118 C 
HETATM    4  N1  UNL     1      26.636   2.080  51.821  1.00  0.00    -0.259 NA
HETATM    5  C7  UNL     1      25.498   1.338  52.306  1.00  0.00     0.088 A 
HETATM    6  C8  UNL     1      25.912   0.231  53.014  1.00  0.00     0.091 A 
HETATM    7  C9  UNL     1      27.305  -0.047  53.185  1.00  0.00     0.103 C 
HETATM    8  N2  UNL     1      28.443  -0.270  53.332  1.00  0.00    -0.191 NA
HETATM    9  C10 UNL     1      24.952  -0.598  53.552  1.00  0.00     0.141 A 
HETATM   10  N3  UNL     1      23.640  -0.302  53.370  1.00  0.00    -0.271 NA
HETATM   11  C11 UNL     1      23.290   0.781  52.677  1.00  0.00     0.128 A 
HETATM   12  C12 UNL     1      24.161   1.701  52.080  1.00  0.00     0.017 A 
HETATM   13  C13 UNL     1      23.523   2.799  51.359  1.00  0.00     0.151 C 
ENDROOT
BRANCH  13  14
HETATM   14  N4  UNL     1      23.334   3.997  52.054  1.00  0.00    -0.385 N 
HETATM   15  H10 UNL     1      24.142   4.649  52.089  1.00  0.00     0.156 HD
BRANCH  14  16
HETATM   16  C14 UNL     1      22.071   4.564  52.265  1.00  0.00     0.212 C 
HETATM   17  C15 UNL     1      21.863   5.818  51.498  1.00  0.00     0.063 C 
BRANCH  16  18
HETATM   18  O1  UNL     1      21.118   3.582  51.970  1.00  0.00    -0.368 OA
BRANCH  18  19
HETATM   19  C16 UNL     1      20.086   4.075  51.187  1.00  0.00     0.166 C 
HETATM   20  C17 UNL     1      19.489   2.923  50.422  1.00  0.00     0.033 C 
ENDBRANCH  18  19
ENDBRANCH  16  18
ENDBRANCH  14  16
ENDBRANCH  13  14
BRANCH   1  21
HETATM   21  C3  UNL     1      23.404   3.470  48.965  1.00  0.00     0.015 C 
HETATM   22  C2  UNL     1      23.273   4.680  48.450  1.00  0.00    -0.011 C 
HETATM   23  C1  UNL     1      22.356   4.874  47.302  1.00  0.00     0.037 C 
HETATM   24 BR1  UNL     1      22.342   2.122  48.106  1.00  0.00    -0.051 Br
ENDBRANCH   1  21
TORSDOF 5
ENDMDL
MODEL 6
REMARK VINA RESULT:      -6.9      3.340      5.513
REMARK  5 active torsions:
REMARK  status: ('A' for Active; 'I' for Inactive)
REMARK    1  A    between atoms: C3_3  and  C4_5 
REMARK    2  A    between atoms: C13_17  and  N4_18 
REMARK    3  A    between atoms: N4_18  and  C14_19 
REMARK    4  A    between atoms: C14_19  and  O1_21 
REMARK    5  A    between atoms: O1_21  and  C16_22 
ROOT
HETATM    1  C4  UNL     1      25.679   1.851  51.784  1.00  0.00    -0.013 C 
HETATM    2  C5  UNL     1      26.608   2.094  50.892  1.00  0.00     0.030 C 
HETATM    3  C6  UNL     1      26.475   2.948  49.714  1.00  0.00     0.118 C 
HETATM    4  N1  UNL     1      25.689   3.975  49.502  1.00  0.00    -0.259 NA
HETATM    5  C7  UNL     1      24.740   4.494  50.456  1.00  0.00     0.088 A 
HETATM    6  C8  UNL     1      24.510   5.832  50.226  1.00  0.00     0.091 A 
HETATM    7  C9  UNL     1      25.175   6.514  49.160  1.00  0.00     0.103 C 
HETATM    8  N2  UNL     1      25.712   7.070  48.283  1.00  0.00    -0.191 NA
HETATM    9  C10 UNL     1      23.625   6.494  51.050  1.00  0.00     0.141 A 
HETATM   10  N3  UNL     1      23.013   5.814  52.052  1.00  0.00    -0.271 NA
HETATM   11  C11 UNL     1      23.269   4.519  52.233  1.00  0.00     0.128 A 
HETATM   12  C12 UNL     1      24.142   3.731  51.472  1.00  0.00     0.017 A 
HETATM   13  C13 UNL     1      24.259   2.336  51.887  1.00  0.00     0.151 C 
ENDROOT
BRANCH  13  14
HETATM   14  N4  UNL     1      23.447   1.404  51.233  1.00  0.00    -0.385 N 
HETATM   15  H10 UNL     1      23.880   0.878  50.448  1.00  0.00     0.156 HD
BRANCH  14  16
HETATM   16  C14 UNL     1      22.332   0.811  51.837  1.00  0.00     0.212 C 
HETATM   17  C15 UNL     1      21.271   0.447  50.863  1.00  0.00     0.063 C 
BRANCH  16  18
HETATM   18  O1  UNL     1      22.790  -0.285  52.575  1.00  0.00    -0.368 OA
BRANCH  18  19
HETATM   19  C16 UNL     1      22.530  -0.147  53.930  1.00  0.00     0.166 C 
HETATM   20  C17 UNL     1      21.478  -1.156  54.309  1.00  0.00     0.033 C 
ENDBRANCH  18  19
ENDBRANCH  16  18
ENDBRANCH  14  16
ENDBRANCH  13  14
BRANCH   1  21
HETATM   21  C3  UNL     1      26.089   0.959  52.860  1.00  0.00     0.015 C 
HETATM   22  C2  UNL     1      26.111   1.272  54.144  1.00  0.00    -0.011 C 
HETATM   23  C1  UNL     1      26.556   0.251  55.122  1.00  0.00     0.037 C 
HETATM   24 BR1  UNL     1      26.660  -0.831  52.469  1.00  0.00    -0.051 Br
ENDBRANCH   1  21
TORSDOF 5
ENDMDL
MODEL 7
REMARK VINA RESULT:      -6.8      4.668      6.133
REMARK  5 active torsions:
REMARK  status: ('A' for Active; 'I' for Inactive)
REMARK    1  A    between atoms: C3_3  and  C4_5 
REMARK    2  A    between atoms: C13_17  and  N4_18 
REMARK    3  A    between atoms: N4_18  and  C14_19 
REMARK    4  A    between atoms: C14_19  and  O1_21 
REMARK    5  A    between atoms: O1_21  and  C16_22 
ROOT
HETATM    1  C4  UNL     1      23.693   4.646  50.002  1.00  0.00    -0.013 C 
HETATM    2  C5  UNL     1      23.122   5.768  50.367  1.00  0.00     0.030 C 
HETATM    3  C6  UNL     1      23.801   6.960  50.869  1.00  0.00     0.118 C 
HETATM    4  N1  UNL     1      25.019   7.392  50.652  1.00  0.00    -0.259 NA
HETATM    5  C7  UNL     1      25.990   6.724  49.820  1.00  0.00     0.088 A 
HETATM    6  C8  UNL     1      26.896   7.631  49.317  1.00  0.00     0.091 A 
HETATM    7  C9  UNL     1      26.794   9.021  49.640  1.00  0.00     0.103 C 
HETATM    8  N2  UNL     1      26.717  10.155  49.911  1.00  0.00    -0.191 NA
HETATM    9  C10 UNL     1      27.900   7.165  48.496  1.00  0.00     0.141 A 
HETATM   10  N3  UNL     1      27.965   5.840  48.211  1.00  0.00    -0.271 NA
HETATM   11  C11 UNL     1      27.064   5.003  48.723  1.00  0.00     0.128 A 
HETATM   12  C12 UNL     1      25.999   5.344  49.567  1.00  0.00     0.017 A 
HETATM   13  C13 UNL     1      25.140   4.237  49.979  1.00  0.00     0.151 C 
ENDROOT
BRANCH  13  14
HETATM   14  N4  UNL     1      25.425   3.628  51.204  1.00  0.00    -0.385 N 
HETATM   15  H10 UNL     1      24.915   3.990  52.035  1.00  0.00     0.156 HD
BRANCH  14  16
HETATM   16  C14 UNL     1      25.937   2.329  51.309  1.00  0.00     0.212 C 
HETATM   17  C15 UNL     1      27.063   2.225  52.272  1.00  0.00     0.063 C 
BRANCH  16  18
HETATM   18  O1  UNL     1      24.868   1.484  51.628  1.00  0.00    -0.368 OA
BRANCH  18  19
HETATM   19  C16 UNL     1      24.231   1.869  52.798  1.00  0.00     0.166 C 
HETATM   20  C17 UNL     1      22.793   1.430  52.712  1.00  0.00     0.033 C 
ENDBRANCH  18  19
ENDBRANCH  16  18
ENDBRANCH  14  16
ENDBRANCH  13  14
BRANCH   1  21
HETATM   21  C3  UNL     1      22.770   3.619  49.539  1.00  0.00     0.015 C 
HETATM   22  C2  UNL     1      23.068   2.654  48.687  1.00  0.00    -0.011 C 
HETATM   23  C1  UNL     1      22.015   1.679  48.311  1.00  0.00     0.037 C 
HETATM   24 BR1  UNL     1      20.957   3.591  50.166  1.00  0.00    -0.051 Br
ENDBRANCH   1  21
TORSDOF 5
ENDMDL
MODEL 8
REMARK VINA RESULT:      -6.7      3.458      5.837
REMARK  5 active torsions:
REMARK  status: ('A' for Active; 'I' for Inactive)
REMARK    1  A    between atoms: C3_3  and  C4_5 
REMARK    2  A    between atoms: C13_17  and  N4_18 
REMARK    3  A    between atoms: N4_18  and  C14_19 
REMARK    4  A    between atoms: C14_19  and  O1_21 
REMARK    5  A    between atoms: O1_21  and  C16_22 
ROOT
HETATM    1  C4  UNL     1      23.705   1.553  52.309  1.00  0.00    -0.013 C 
HETATM    2  C5  UNL     1      24.973   1.884  52.297  1.00  0.00     0.030 C 
HETATM    3  C6  UNL     1      25.599   2.880  51.432  1.00  0.00     0.118 C 
HETATM    4  N1  UNL     1      25.087   3.943  50.861  1.00  0.00    -0.259 NA
HETATM    5  C7  UNL     1      23.712   4.360  50.988  1.00  0.00     0.088 A 
HETATM    6  C8  UNL     1      23.604   5.722  50.809  1.00  0.00     0.091 A 
HETATM    7  C9  UNL     1      24.762   6.516  50.540  1.00  0.00     0.103 C 
HETATM    8  N2  UNL     1      25.707   7.165  50.311  1.00  0.00    -0.191 NA
HETATM    9  C10 UNL     1      22.354   6.296  50.897  1.00  0.00     0.141 A 
HETATM   10  N3  UNL     1      21.278   5.509  51.155  1.00  0.00    -0.271 NA
HETATM   11  C11 UNL     1      21.435   4.197  51.320  1.00  0.00     0.128 A 
HETATM   12  C12 UNL     1      22.643   3.491  51.256  1.00  0.00     0.017 A 
HETATM   13  C13 UNL     1      22.547   2.052  51.490  1.00  0.00     0.151 C 
ENDROOT
BRANCH  13  14
HETATM   14  N4  UNL     1      22.438   1.228  50.366  1.00  0.00    -0.385 N 
HETATM   15  H10 UNL     1      23.236   0.590  50.177  1.00  0.00     0.156 HD
BRANCH  14  16
HETATM   16  C14 UNL     1      21.208   0.865  49.804  1.00  0.00     0.212 C 
HETATM   17  C15 UNL     1      20.113   0.793  50.804  1.00  0.00     0.063 C 
BRANCH  16  18
HETATM   18  O1  UNL     1      20.940   1.767  48.768  1.00  0.00    -0.368 OA
BRANCH  18  19
HETATM   19  C16 UNL     1      22.020   1.910  47.910  1.00  0.00     0.166 C 
HETATM   20  C17 UNL     1      22.123   3.364  47.529  1.00  0.00     0.033 C 
ENDBRANCH  18  19
ENDBRANCH  16  18
ENDBRANCH  14  16
ENDBRANCH  13  14
BRANCH   1  21
HETATM   21  C3  UNL     1      23.356   0.525  53.280  1.00  0.00     0.015 C 
HETATM   22  C2  UNL     1      22.138   0.287  53.734  1.00  0.00    -0.011 C 
HETATM   23  C1  UNL     1      21.942  -0.798  54.725  1.00  0.00     0.037 C 
HETATM   24 BR1  UNL     1      24.712  -0.620  54.010  1.00  0.00    -0.051 Br
ENDBRANCH   1  21
TORSDOF 5
ENDMDL
MODEL 9
REMARK VINA RESULT:      -6.7      7.149      9.759
REMARK  5 active torsions:
REMARK  status: ('A' for Active; 'I' for Inactive)
REMARK    1  A    between atoms: C3_3  and  C4_5 
REMARK    2  A    between atoms: C13_17  and  N4_18 
REMARK    3  A    between atoms: N4_18  and  C14_19 
REMARK    4  A    between atoms: C14_19  and  O1_21 
REMARK    5  A    between atoms: O1_21  and  C16_22 
ROOT
HETATM    1  C4  UNL     1      27.671   6.225  48.365  1.00  0.00    -0.013 C 
HETATM    2  C5  UNL     1      27.810   4.939  48.580  1.00  0.00     0.030 C 
HETATM    3  C6  UNL     1      26.875   4.076  49.296  1.00  0.00     0.118 C 
HETATM    4  N1  UNL     1      25.580   4.189  49.462  1.00  0.00    -0.259 NA
HETATM    5  C7  UNL     1      24.776   5.263  48.934  1.00  0.00     0.088 A 
HETATM    6  C8  UNL     1      23.476   4.845  48.748  1.00  0.00     0.091 A 
HETATM    7  C9  UNL     1      23.088   3.507  49.069  1.00  0.00     0.103 C 
HETATM    8  N2  UNL     1      22.768   2.415  49.339  1.00  0.00    -0.191 NA
HETATM    9  C10 UNL     1      22.565   5.748  48.246  1.00  0.00     0.141 A 
HETATM   10  N3  UNL     1      22.970   7.010  47.952  1.00  0.00    -0.271 NA
HETATM   11  C11 UNL     1      24.239   7.365  48.150  1.00  0.00     0.128 A 
HETATM   12  C12 UNL     1      25.261   6.550  48.652  1.00  0.00     0.017 A 
HETATM   13  C13 UNL     1      26.575   7.178  48.758  1.00  0.00     0.151 C 
ENDROOT
BRANCH  13  14
HETATM   14  N4  UNL     1      26.921   7.731  49.994  1.00  0.00    -0.385 N 
HETATM   15  H10 UNL     1      27.365   7.093  50.684  1.00  0.00     0.156 HD
BRANCH  14  16
HETATM   16  C14 UNL     1      27.157   9.100  50.177  1.00  0.00     0.212 C 
HETATM   17  C15 UNL     1      28.506   9.521  49.723  1.00  0.00     0.063 C 
BRANCH  16  18
HETATM   18  O1  UNL     1      26.125   9.790  49.531  1.00  0.00    -0.368 OA
BRANCH  18  19
HETATM   19  C16 UNL     1      26.609  10.731  48.634  1.00  0.00     0.166 C 
HETATM   20  C17 UNL     1      25.719  10.717  47.419  1.00  0.00     0.033 C 
ENDBRANCH  18  19
ENDBRANCH  16  18
ENDBRANCH  14  16
ENDBRANCH  13  14
BRANCH   1  21
HETATM   21  C3  UNL     1      28.762   6.837  47.620  1.00  0.00     0.015 C 
HETATM   22  C2  UNL     1      30.045   6.573  47.791  1.00  0.00    -0.011 C 
HETATM   23  C1  UNL     1      31.040   7.283  46.952  1.00  0.00     0.037 C 
HETATM   24 BR1  UNL     1      28.394   8.144  46.263  1.00  0.00    -0.051 Br
ENDBRANCH   1  21
TORSDOF 5
ENDMDL
