MODEL 1
REMARK VINA RESULT:      -7.9      0.000      0.000
REMARK  8 active torsions:
REMARK  status: ('A' for Active; 'I' for Inactive)
REMARK    1  A    between atoms: O1_2  and  C2_3 
REMARK    2  A    between atoms: C6_9  and  N3_10 
REMARK    3  A    between atoms: N3_10  and  C7_11 
REMARK    4  A    between atoms: C14_19  and  O2_20 
REMARK    5  A    between atoms: O2_20  and  C15_21 
REMARK    6  A    between atoms: C15_21  and  C16_22 
REMARK    7  A    between atoms: C16_22  and  C17_23 
REMARK    8  A    between atoms: C17_23  and  N5_24 
ROOT
HETATM    1  C2  UNL     1      19.856  -0.056  52.238  1.00  0.00     0.103 A 
HETATM    2  C3  UNL     1      20.100  -0.744  53.400  1.00  0.00     0.072 A 
HETATM    3  C4  UNL     1      21.389  -0.819  53.882  1.00  0.00     0.075 A 
HETATM    4  N1  UNL     1      21.681  -1.490  55.032  1.00  0.00    -0.241 NA
HETATM    5  C5  UNL     1      22.947  -1.562  55.503  1.00  0.00     0.236 A 
HETATM    6  N2  UNL     1      23.999  -0.974  54.867  1.00  0.00    -0.224 NA
HETATM    7  C6  UNL     1      23.739  -0.304  53.730  1.00  0.00     0.142 A 
HETATM    8  C12 UNL     1      22.461  -0.211  53.222  1.00  0.00     0.042 A 
HETATM    9  C13 UNL     1      22.224   0.484  52.051  1.00  0.00     0.057 A 
HETATM   10  C14 UNL     1      20.919   0.542  51.590  1.00  0.00     0.103 A 
ENDROOT
BRANCH  10  11
HETATM   11  O2  UNL     1      20.612   1.220  50.426  1.00  0.00    -0.348 OA
BRANCH  11  12
HETATM   12  C15 UNL     1      21.179   0.961  49.175  1.00  0.00     0.177 C 
BRANCH  12  13
HETATM   13  C16 UNL     1      22.036   2.115  48.676  1.00  0.00     0.057 C 
BRANCH  13  14
HETATM   14  C17 UNL     1      21.714   3.317  49.520  1.00  0.00     0.278 C 
BRANCH  14  15
HETATM   15  N5  UNL     1      22.852   3.838  50.219  1.00  0.00     0.126 N 
HETATM   16  C18 UNL     1      23.956   2.917  50.250  1.00  0.00     0.302 C 
HETATM   17  C19 UNL     1      25.026   3.333  51.235  1.00  0.00     0.198 C 
HETATM   18  O3  UNL     1      24.411   3.349  52.489  1.00  0.00    -0.385 OA
HETATM   19  C20 UNL     1      23.548   4.420  52.511  1.00  0.00     0.237 C 
HETATM   20  C21 UNL     1      22.466   4.360  51.481  1.00  0.00     0.428 C 
HETATM   21  F1  UNL     1      21.373   3.690  51.996  1.00  0.00    -0.214 F 
ENDBRANCH  14  15
ENDBRANCH  13  14
ENDBRANCH  12  13
ENDBRANCH  11  12
ENDBRANCH  10  11
BRANCH   1  22
HETATM   22  O1  UNL     1      18.558   0.026  51.742  1.00  0.00    -0.353 OA
HETATM   23  C1  UNL     1      17.568  -0.772  52.365  1.00  0.00     0.210 C 
ENDBRANCH   1  22
BRANCH   7  24
HETATM   24  N3  UNL     1      24.855   0.292  53.096  1.00  0.00    -0.340 N 
HETATM   25  H6  UNL     1      24.944   1.103  52.458  1.00  0.00     0.167 HD
BRANCH  24  26
HETATM   26  C7  UNL     1      26.150  -0.236  53.303  1.00  0.00     0.032 A 
HETATM   27  C8  UNL     1      26.871   0.424  54.192  1.00  0.00     0.022 A 
HETATM   28  C9  UNL     1      28.254   0.131  54.633  1.00  0.00     0.148 A 
HETATM   29  N4  UNL     1      28.721  -1.036  53.917  1.00  0.00    -0.395 N 
HETATM   30  C10 UNL     1      27.996  -1.784  52.953  1.00  0.00     0.085 A 
HETATM   31  H10 UNL     1      29.708  -1.310  54.179  1.00  0.00     0.159 HD
HETATM   32  C11 UNL     1      26.768  -1.392  52.669  1.00  0.00     0.046 A 
ENDBRANCH  24  26
ENDBRANCH   7  24
TORSDOF 8
ENDMDL
MODEL 2
REMARK VINA RESULT:      -7.8      1.501      1.908
REMARK  8 active torsions:
REMARK  status: ('A' for Active; 'I' for Inactive)
REMARK    1  A    between atoms: O1_2  and  C2_3 
REMARK    2  A    between atoms: C6_9  and  N3_10 
REMARK    3  A    between atoms: N3_10  and  C7_11 
REMARK    4  A    between atoms: C14_19  and  O2_20 
REMARK    5  A    between atoms: O2_20  and  C15_21 
REMARK    6  A    between atoms: C15_21  and  C16_22 
REMARK    7  A    between atoms: C16_22  and  C17_23 
REMARK    8  A    between atoms: C17_23  and  N5_24 
ROOT
HETATM    1  C2  UNL     1      20.582  -0.498  53.256  1.00  0.00     0.103 A 
HETATM    2  C3  UNL     1      21.136  -0.917  54.441  1.00  0.00     0.072 A 
HETATM    3  C4  UNL     1      22.506  -0.922  54.581  1.00  0.00     0.075 A 
HETATM    4  N1  UNL     1      23.103  -1.329  55.738  1.00  0.00    -0.241 NA
HETATM    5  C5  UNL     1      24.449  -1.332  55.872  1.00  0.00     0.236 A 
HETATM    6  N2  UNL     1      25.285  -0.934  54.873  1.00  0.00    -0.224 NA
HETATM    7  C6  UNL     1      24.723  -0.526  53.721  1.00  0.00     0.142 A 
HETATM    8  C12 UNL     1      23.356  -0.510  53.549  1.00  0.00     0.042 A 
HETATM    9  C13 UNL     1      22.808  -0.087  52.354  1.00  0.00     0.057 A 
HETATM   10  C14 UNL     1      21.427  -0.092  52.241  1.00  0.00     0.103 A 
ENDROOT
BRANCH  10  11
HETATM   11  O2  UNL     1      20.812   0.319  51.073  1.00  0.00    -0.348 OA
BRANCH  11  12
HETATM   12  C15 UNL     1      20.908   1.601  50.528  1.00  0.00     0.177 C 
BRANCH  12  13
HETATM   13  C16 UNL     1      21.849   1.656  49.333  1.00  0.00     0.057 C 
BRANCH  13  14
HETATM   14  C17 UNL     1      22.989   2.567  49.696  1.00  0.00     0.278 C 
BRANCH  14  15
HETATM   15  N5  UNL     1      22.625   3.576  50.648  1.00  0.00     0.126 N 
HETATM   16  C18 UNL     1      22.541   4.888  50.064  1.00  0.00     0.302 C 
HETATM   17  C19 UNL     1      22.464   5.979  51.110  1.00  0.00     0.198 C 
HETATM   18  O3  UNL     1      23.642   5.886  51.853  1.00  0.00    -0.385 OA
HETATM   19  C20 UNL     1      23.564   4.739  52.609  1.00  0.00     0.237 C 
HETATM   20  C21 UNL     1      23.437   3.483  51.808  1.00  0.00     0.428 C 
HETATM   21  F1  UNL     1      24.696   2.994  51.511  1.00  0.00    -0.214 F 
ENDBRANCH  14  15
ENDBRANCH  13  14
ENDBRANCH  12  13
ENDBRANCH  11  12
ENDBRANCH  10  11
BRANCH   1  22
HETATM   22  O1  UNL     1      19.199  -0.489  53.104  1.00  0.00    -0.353 OA
HETATM   23  C1  UNL     1      18.493  -1.659  53.473  1.00  0.00     0.210 C 
ENDBRANCH   1  22
BRANCH   7  24
HETATM   24  N3  UNL     1      25.623  -0.121  52.706  1.00  0.00    -0.340 N 
HETATM   25  H6  UNL     1      25.557  -0.129  51.673  1.00  0.00     0.167 HD
BRANCH  24  26
HETATM   26  C7  UNL     1      26.884   0.417  53.053  1.00  0.00     0.032 A 
HETATM   27  C8  UNL     1      27.857  -0.474  53.110  1.00  0.00     0.022 A 
HETATM   28  C9  UNL     1      29.282  -0.238  53.441  1.00  0.00     0.148 A 
HETATM   29  N4  UNL     1      29.458   1.174  53.705  1.00  0.00    -0.395 N 
HETATM   30  C10 UNL     1      28.454   2.174  53.661  1.00  0.00     0.085 A 
HETATM   31  H10 UNL     1      30.456   1.423  53.951  1.00  0.00     0.159 HD
HETATM   32  C11 UNL     1      27.227   1.801  53.348  1.00  0.00     0.046 A 
ENDBRANCH  24  26
ENDBRANCH   7  24
TORSDOF 8
ENDMDL
MODEL 3
REMARK VINA RESULT:      -7.5      2.275      6.911
REMARK  8 active torsions:
REMARK  status: ('A' for Active; 'I' for Inactive)
REMARK    1  A    between atoms: O1_2  and  C2_3 
REMARK    2  A    between atoms: C6_9  and  N3_10 
REMARK    3  A    between atoms: N3_10  and  C7_11 
REMARK    4  A    between atoms: C14_19  and  O2_20 
REMARK    5  A    between atoms: O2_20  and  C15_21 
REMARK    6  A    between atoms: C15_21  and  C16_22 
REMARK    7  A    between atoms: C16_22  and  C17_23 
REMARK    8  A    between atoms: C17_23  and  N5_24 
ROOT
HETATM    1  C2  UNL     1      25.867  -0.281  52.836  1.00  0.00     0.103 A 
HETATM    2  C3  UNL     1      26.668   0.633  52.197  1.00  0.00     0.072 A 
HETATM    3  C4  UNL     1      26.098   1.750  51.628  1.00  0.00     0.075 A 
HETATM    4  N1  UNL     1      26.852   2.686  50.984  1.00  0.00    -0.241 NA
HETATM    5  C5  UNL     1      26.288   3.782  50.426  1.00  0.00     0.236 A 
HETATM    6  N2  UNL     1      24.947   4.019  50.472  1.00  0.00    -0.224 NA
HETATM    7  C6  UNL     1      24.179   3.112  51.103  1.00  0.00     0.142 A 
HETATM    8  C12 UNL     1      24.720   1.984  51.682  1.00  0.00     0.042 A 
HETATM    9  C13 UNL     1      23.906   1.070  52.323  1.00  0.00     0.057 A 
HETATM   10  C14 UNL     1      24.507  -0.043  52.886  1.00  0.00     0.103 A 
ENDROOT
BRANCH  10  11
HETATM   11  O2  UNL     1      23.752  -0.997  53.542  1.00  0.00    -0.348 OA
BRANCH  11  12
HETATM   12  C15 UNL     1      23.298  -0.891  54.859  1.00  0.00     0.177 C 
BRANCH  12  13
HETATM   13  C16 UNL     1      21.853  -0.422  54.939  1.00  0.00     0.057 C 
BRANCH  13  14
HETATM   14  C17 UNL     1      21.058  -1.232  53.952  1.00  0.00     0.278 C 
BRANCH  14  15
HETATM   15  N5  UNL     1      19.811  -0.621  53.593  1.00  0.00     0.126 N 
HETATM   16  C18 UNL     1      18.735  -1.569  53.493  1.00  0.00     0.302 C 
HETATM   17  C19 UNL     1      17.511  -0.983  52.824  1.00  0.00     0.198 C 
HETATM   18  O3  UNL     1      17.914  -0.614  51.539  1.00  0.00    -0.385 OA
HETATM   19  C20 UNL     1      18.741   0.478  51.663  1.00  0.00     0.237 C 
HETATM   20  C21 UNL     1      19.977   0.225  52.465  1.00  0.00     0.428 C 
HETATM   21  F1  UNL     1      20.985  -0.227  51.634  1.00  0.00    -0.214 F 
ENDBRANCH  14  15
ENDBRANCH  13  14
ENDBRANCH  12  13
ENDBRANCH  11  12
ENDBRANCH  10  11
BRANCH   1  22
HETATM   22  O1  UNL     1      26.433  -1.412  53.414  1.00  0.00    -0.353 OA
HETATM   23  C1  UNL     1      27.120  -2.309  52.561  1.00  0.00     0.210 C 
ENDBRANCH   1  22
BRANCH   7  24
HETATM   24  N3  UNL     1      22.792   3.391  51.130  1.00  0.00    -0.340 N 
HETATM   25  H6  UNL     1      22.202   3.929  51.789  1.00  0.00     0.167 HD
BRANCH  24  26
HETATM   26  C7  UNL     1      21.951   2.891  50.109  1.00  0.00     0.032 A 
HETATM   27  C8  UNL     1      20.697   3.300  50.189  1.00  0.00     0.022 A 
HETATM   28  C9  UNL     1      19.575   2.962  49.283  1.00  0.00     0.148 A 
HETATM   29  N4  UNL     1      20.076   2.080  48.251  1.00  0.00    -0.395 N 
HETATM   30  C10 UNL     1      21.406   1.608  48.114  1.00  0.00     0.085 A 
HETATM   31  H10 UNL     1      19.328   1.792  47.560  1.00  0.00     0.159 HD
HETATM   32  C11 UNL     1      22.294   2.003  49.007  1.00  0.00     0.046 A 
ENDBRANCH  24  26
ENDBRANCH   7  24
TORSDOF 8
ENDMDL
MODEL 4
REMARK VINA RESULT:      -7.5      2.432      6.065
REMARK  8 active torsions:
REMARK  status: ('A' for Active; 'I' for Inactive)
REMARK    1  A    between atoms: O1_2  and  C2_3 
REMARK    2  A    between atoms: C6_9  and  N3_10 
REMARK    3  A    between atoms: N3_10  and  C7_11 
REMARK    4  A    between atoms: C14_19  and  O2_20 
REMARK    5  A    between atoms: O2_20  and  C15_21 
REMARK    6  A    between atoms: C15_21  and  C16_22 
REMARK    7  A    between atoms: C16_22  and  C17_23 
REMARK    8  A    between atoms: C17_23  and  N5_24 
ROOT
HETATM    1  C2  UNL     1      21.419   0.372  51.733  1.00  0.00     0.103 A 
HETATM    2  C3  UNL     1      20.838   0.738  50.544  1.00  0.00     0.072 A 
HETATM    3  C4  UNL     1      21.506   1.602  49.704  1.00  0.00     0.075 A 
HETATM    4  N1  UNL     1      20.970   1.994  48.513  1.00  0.00    -0.241 NA
HETATM    5  C5  UNL     1      21.629   2.842  47.690  1.00  0.00     0.236 A 
HETATM    6  N2  UNL     1      22.855   3.352  47.995  1.00  0.00    -0.224 NA
HETATM    7  C6  UNL     1      23.408   2.982  49.164  1.00  0.00     0.142 A 
HETATM    8  C12 UNL     1      22.765   2.119  50.026  1.00  0.00     0.042 A 
HETATM    9  C13 UNL     1      23.357   1.757  51.220  1.00  0.00     0.057 A 
HETATM   10  C14 UNL     1      22.662   0.887  52.045  1.00  0.00     0.103 A 
ENDROOT
BRANCH  10  11
HETATM   11  O2  UNL     1      23.196   0.482  53.254  1.00  0.00    -0.348 OA
BRANCH  11  12
HETATM   12  C15 UNL     1      23.880  -0.717  53.464  1.00  0.00     0.177 C 
BRANCH  12  13
HETATM   13  C16 UNL     1      25.325  -0.496  53.889  1.00  0.00     0.057 C 
BRANCH  13  14
HETATM   14  C17 UNL     1      26.121  -0.197  52.649  1.00  0.00     0.278 C 
BRANCH  14  15
HETATM   15  N5  UNL     1      27.428   0.323  52.928  1.00  0.00     0.126 N 
HETATM   16  C18 UNL     1      27.906  -0.045  54.233  1.00  0.00     0.302 C 
HETATM   17  C19 UNL     1      29.129   0.747  54.642  1.00  0.00     0.198 C 
HETATM   18  O3  UNL     1      28.733   2.085  54.663  1.00  0.00    -0.385 OA
HETATM   19  C20 UNL     1      28.542   2.480  53.359  1.00  0.00     0.237 C 
HETATM   20  C21 UNL     1      27.486   1.710  52.633  1.00  0.00     0.428 C 
HETATM   21  F1  UNL     1      26.259   2.321  52.815  1.00  0.00    -0.214 F 
ENDBRANCH  14  15
ENDBRANCH  13  14
ENDBRANCH  12  13
ENDBRANCH  11  12
ENDBRANCH  10  11
BRANCH   1  22
HETATM   22  O1  UNL     1      20.753  -0.500  52.589  1.00  0.00    -0.353 OA
HETATM   23  C1  UNL     1      19.811   0.057  53.487  1.00  0.00     0.210 C 
ENDBRANCH   1  22
BRANCH   7  24
HETATM   24  N3  UNL     1      24.680   3.532  49.447  1.00  0.00    -0.340 N 
HETATM   25  H6  UNL     1      25.639   3.148  49.368  1.00  0.00     0.167 HD
BRANCH  24  26
HETATM   26  C7  UNL     1      24.785   4.855  49.934  1.00  0.00     0.032 A 
HETATM   27  C8  UNL     1      25.727   5.576  49.351  1.00  0.00     0.022 A 
HETATM   28  C9  UNL     1      26.090   6.985  49.628  1.00  0.00     0.148 A 
HETATM   29  N4  UNL     1      25.223   7.479  50.677  1.00  0.00    -0.395 N 
HETATM   30  C10 UNL     1      24.199   6.754  51.339  1.00  0.00     0.085 A 
HETATM   31  H10 UNL     1      25.423   8.486  50.933  1.00  0.00     0.159 HD
HETATM   32  C11 UNL     1      23.998   5.501  50.975  1.00  0.00     0.046 A 
ENDBRANCH  24  26
ENDBRANCH   7  24
TORSDOF 8
ENDMDL
MODEL 5
REMARK VINA RESULT:      -7.4      2.953      5.755
REMARK  8 active torsions:
REMARK  status: ('A' for Active; 'I' for Inactive)
REMARK    1  A    between atoms: O1_2  and  C2_3 
REMARK    2  A    between atoms: C6_9  and  N3_10 
REMARK    3  A    between atoms: N3_10  and  C7_11 
REMARK    4  A    between atoms: C14_19  and  O2_20 
REMARK    5  A    between atoms: O2_20  and  C15_21 
REMARK    6  A    between atoms: C15_21  and  C16_22 
REMARK    7  A    between atoms: C16_22  and  C17_23 
REMARK    8  A    between atoms: C17_23  and  N5_24 
ROOT
HETATM    1  C2  UNL     1      26.333  -0.209  53.130  1.00  0.00     0.103 A 
HETATM    2  C3  UNL     1      25.434  -0.868  53.931  1.00  0.00     0.072 A 
HETATM    3  C4  UNL     1      24.119  -0.459  53.947  1.00  0.00     0.075 A 
HETATM    4  N1  UNL     1      23.189  -1.082  54.726  1.00  0.00    -0.241 NA
HETATM    5  C5  UNL     1      21.898  -0.678  54.740  1.00  0.00     0.236 A 
HETATM    6  N2  UNL     1      21.449   0.364  53.986  1.00  0.00    -0.224 NA
HETATM    7  C6  UNL     1      22.345   0.997  53.207  1.00  0.00     0.142 A 
HETATM    8  C12 UNL     1      23.668   0.612  53.169  1.00  0.00     0.042 A 
HETATM    9  C13 UNL     1      24.566   1.281  52.359  1.00  0.00     0.057 A 
HETATM   10  C14 UNL     1      25.882   0.848  52.363  1.00  0.00     0.103 A 
ENDROOT
BRANCH  10  11
HETATM   11  O2  UNL     1      26.832   1.471  51.577  1.00  0.00    -0.348 OA
BRANCH  11  12
HETATM   12  C15 UNL     1      26.770   2.801  51.150  1.00  0.00     0.177 C 
BRANCH  12  13
HETATM   13  C16 UNL     1      26.522   2.920  49.654  1.00  0.00     0.057 C 
BRANCH  13  14
HETATM   14  C17 UNL     1      25.230   3.666  49.466  1.00  0.00     0.278 C 
BRANCH  14  15
HETATM   15  N5  UNL     1      25.074   4.763  50.376  1.00  0.00     0.126 N 
HETATM   16  C18 UNL     1      23.727   4.896  50.862  1.00  0.00     0.302 C 
HETATM   17  C19 UNL     1      23.497   6.216  51.565  1.00  0.00     0.198 C 
HETATM   18  O3  UNL     1      23.738   7.209  50.613  1.00  0.00    -0.385 OA
HETATM   19  C20 UNL     1      25.092   7.229  50.372  1.00  0.00     0.237 C 
HETATM   20  C21 UNL     1      25.640   5.946  49.833  1.00  0.00     0.428 C 
HETATM   21  F1  UNL     1      25.569   5.956  48.452  1.00  0.00    -0.214 F 
ENDBRANCH  14  15
ENDBRANCH  13  14
ENDBRANCH  12  13
ENDBRANCH  11  12
ENDBRANCH  10  11
BRANCH   1  22
HETATM   22  O1  UNL     1      27.664  -0.614  53.105  1.00  0.00    -0.353 OA
HETATM   23  C1  UNL     1      28.490  -0.213  54.182  1.00  0.00     0.210 C 
ENDBRANCH   1  22
BRANCH   7  24
HETATM   24  N3  UNL     1      21.844   2.074  52.439  1.00  0.00    -0.340 N 
HETATM   25  H6  UNL     1      21.812   3.095  52.608  1.00  0.00     0.167 HD
BRANCH  24  26
HETATM   26  C7  UNL     1      21.251   1.828  51.179  1.00  0.00     0.032 A 
HETATM   27  C8  UNL     1      19.936   1.950  51.164  1.00  0.00     0.022 A 
HETATM   28  C9  UNL     1      19.022   1.761  50.013  1.00  0.00     0.148 A 
HETATM   29  N4  UNL     1      19.817   1.408  48.857  1.00  0.00    -0.395 N 
HETATM   30  C10 UNL     1      21.227   1.261  48.812  1.00  0.00     0.085 A 
HETATM   31  H10 UNL     1      19.232   1.255  47.989  1.00  0.00     0.159 HD
HETATM   32  C11 UNL     1      21.902   1.466  49.928  1.00  0.00     0.046 A 
ENDBRANCH  24  26
ENDBRANCH   7  24
TORSDOF 8
ENDMDL
MODEL 6
REMARK VINA RESULT:      -7.3      2.822      5.638
REMARK  8 active torsions:
REMARK  status: ('A' for Active; 'I' for Inactive)
REMARK    1  A    between atoms: O1_2  and  C2_3 
REMARK    2  A    between atoms: C6_9  and  N3_10 
REMARK    3  A    between atoms: N3_10  and  C7_11 
REMARK    4  A    between atoms: C14_19  and  O2_20 
REMARK    5  A    between atoms: O2_20  and  C15_21 
REMARK    6  A    between atoms: C15_21  and  C16_22 
REMARK    7  A    between atoms: C16_22  and  C17_23 
REMARK    8  A    between atoms: C17_23  and  N5_24 
ROOT
HETATM    1  C2  UNL     1      26.574   0.372  53.505  1.00  0.00     0.103 A 
HETATM    2  C3  UNL     1      25.854  -0.288  54.470  1.00  0.00     0.072 A 
HETATM    3  C4  UNL     1      24.511  -0.520  54.270  1.00  0.00     0.075 A 
HETATM    4  N1  UNL     1      23.755  -1.172  55.199  1.00  0.00    -0.241 NA
HETATM    5  C5  UNL     1      22.437  -1.399  54.999  1.00  0.00     0.236 A 
HETATM    6  N2  UNL     1      21.787  -0.998  53.871  1.00  0.00    -0.224 NA
HETATM    7  C6  UNL     1      22.510  -0.353  52.937  1.00  0.00     0.142 A 
HETATM    8  C12 UNL     1      23.855  -0.105  53.108  1.00  0.00     0.042 A 
HETATM    9  C13 UNL     1      24.571   0.560  52.131  1.00  0.00     0.057 A 
HETATM   10  C14 UNL     1      25.919   0.781  52.359  1.00  0.00     0.103 A 
ENDROOT
BRANCH  10  11
HETATM   11  O2  UNL     1      26.695   1.439  51.424  1.00  0.00    -0.348 OA
BRANCH  11  12
HETATM   12  C15 UNL     1      26.643   2.812  51.166  1.00  0.00     0.177 C 
BRANCH  12  13
HETATM   13  C16 UNL     1      26.453   3.118  49.688  1.00  0.00     0.057 C 
BRANCH  13  14
HETATM   14  C17 UNL     1      25.060   3.656  49.511  1.00  0.00     0.278 C 
BRANCH  14  15
HETATM   15  N5  UNL     1      25.026   5.073  49.292  1.00  0.00     0.126 N 
HETATM   16  C18 UNL     1      26.333   5.635  49.082  1.00  0.00     0.302 C 
HETATM   17  C19 UNL     1      26.328   7.147  49.158  1.00  0.00     0.198 C 
HETATM   18  O3  UNL     1      25.896   7.466  50.447  1.00  0.00    -0.385 OA
HETATM   19  C20 UNL     1      24.558   7.157  50.523  1.00  0.00     0.237 C 
HETATM   20  C21 UNL     1      24.246   5.714  50.290  1.00  0.00     0.428 C 
HETATM   21  F1  UNL     1      24.294   5.030  51.490  1.00  0.00    -0.214 F 
ENDBRANCH  14  15
ENDBRANCH  13  14
ENDBRANCH  12  13
ENDBRANCH  11  12
ENDBRANCH  10  11
BRANCH   1  22
HETATM   22  O1  UNL     1      27.931   0.613  53.697  1.00  0.00    -0.353 OA
HETATM   23  C1  UNL     1      28.527   0.097  54.873  1.00  0.00     0.210 C 
ENDBRANCH   1  22
BRANCH   7  24
HETATM   24  N3  UNL     1      21.802   0.050  51.779  1.00  0.00    -0.340 N 
HETATM   25  H6  UNL     1      21.486  -0.467  50.940  1.00  0.00     0.167 HD
BRANCH  24  26
HETATM   26  C7  UNL     1      21.395   1.397  51.634  1.00  0.00     0.032 A 
HETATM   27  C8  UNL     1      21.737   1.946  50.482  1.00  0.00     0.022 A 
HETATM   28  C9  UNL     1      21.464   3.327  50.022  1.00  0.00     0.148 A 
HETATM   29  N4  UNL     1      20.733   4.016  51.064  1.00  0.00    -0.395 N 
HETATM   30  C10 UNL     1      20.340   3.481  52.317  1.00  0.00     0.085 A 
HETATM   31  H10 UNL     1      20.500   5.016  50.808  1.00  0.00     0.159 HD
HETATM   32  C11 UNL     1      20.661   2.227  52.578  1.00  0.00     0.046 A 
ENDBRANCH  24  26
ENDBRANCH   7  24
TORSDOF 8
ENDMDL
MODEL 7
REMARK VINA RESULT:      -7.3      2.870      3.468
REMARK  8 active torsions:
REMARK  status: ('A' for Active; 'I' for Inactive)
REMARK    1  A    between atoms: O1_2  and  C2_3 
REMARK    2  A    between atoms: C6_9  and  N3_10 
REMARK    3  A    between atoms: N3_10  and  C7_11 
REMARK    4  A    between atoms: C14_19  and  O2_20 
REMARK    5  A    between atoms: O2_20  and  C15_21 
REMARK    6  A    between atoms: C15_21  and  C16_22 
REMARK    7  A    between atoms: C16_22  and  C17_23 
REMARK    8  A    between atoms: C17_23  and  N5_24 
ROOT
HETATM    1  C2  UNL     1      21.663   1.551  52.116  1.00  0.00     0.103 A 
HETATM    2  C3  UNL     1      21.556   0.804  53.263  1.00  0.00     0.072 A 
HETATM    3  C4  UNL     1      22.659   0.125  53.731  1.00  0.00     0.075 A 
HETATM    4  N1  UNL     1      22.602  -0.630  54.865  1.00  0.00    -0.241 NA
HETATM    5  C5  UNL     1      23.687  -1.296  55.323  1.00  0.00     0.236 A 
HETATM    6  N2  UNL     1      24.892  -1.255  54.688  1.00  0.00    -0.224 NA
HETATM    7  C6  UNL     1      24.977  -0.517  53.567  1.00  0.00     0.142 A 
HETATM    8  C12 UNL     1      23.892   0.174  53.073  1.00  0.00     0.042 A 
HETATM    9  C13 UNL     1      24.009   0.924  51.918  1.00  0.00     0.057 A 
HETATM   10  C14 UNL     1      22.883   1.596  51.470  1.00  0.00     0.103 A 
ENDROOT
BRANCH  10  11
HETATM   11  O2  UNL     1      22.930   2.364  50.322  1.00  0.00    -0.348 OA
BRANCH  11  12
HETATM   12  C15 UNL     1      23.517   3.629  50.230  1.00  0.00     0.177 C 
BRANCH  12  13
HETATM   13  C16 UNL     1      24.527   3.719  49.095  1.00  0.00     0.057 C 
BRANCH  13  14
HETATM   14  C17 UNL     1      25.791   4.307  49.659  1.00  0.00     0.278 C 
BRANCH  14  15
HETATM   15  N5  UNL     1      26.401   5.273  48.791  1.00  0.00     0.126 N 
HETATM   16  C18 UNL     1      27.820   5.081  48.656  1.00  0.00     0.302 C 
HETATM   17  C19 UNL     1      28.500   6.264  48.002  1.00  0.00     0.198 C 
HETATM   18  O3  UNL     1      28.265   7.356  48.839  1.00  0.00    -0.385 OA
HETATM   19  C20 UNL     1      26.932   7.679  48.732  1.00  0.00     0.237 C 
HETATM   20  C21 UNL     1      26.000   6.586  49.147  1.00  0.00     0.428 C 
HETATM   21  F1  UNL     1      25.738   6.690  50.501  1.00  0.00    -0.214 F 
ENDBRANCH  14  15
ENDBRANCH  13  14
ENDBRANCH  12  13
ENDBRANCH  11  12
ENDBRANCH  10  11
BRANCH   1  22
HETATM   22  O1  UNL     1      20.555   2.242  51.634  1.00  0.00    -0.353 OA
HETATM   23  C1  UNL     1      20.302   3.527  52.170  1.00  0.00     0.210 C 
ENDBRANCH   1  22
BRANCH   7  24
HETATM   24  N3  UNL     1      26.243  -0.499  52.934  1.00  0.00    -0.340 N 
HETATM   25  H6  UNL     1      26.646  -1.063  52.166  1.00  0.00     0.167 HD
BRANCH  24  26
HETATM   26  C7  UNL     1      27.226   0.429  53.349  1.00  0.00     0.032 A 
HETATM   27  C8  UNL     1      28.072  -0.041  54.249  1.00  0.00     0.022 A 
HETATM   28  C9  UNL     1      29.207   0.669  54.882  1.00  0.00     0.148 A 
HETATM   29  N4  UNL     1      29.258   2.012  54.346  1.00  0.00    -0.395 N 
HETATM   30  C10 UNL     1      28.380   2.572  53.383  1.00  0.00     0.085 A 
HETATM   31  H10 UNL     1      30.048   2.586  54.753  1.00  0.00     0.159 HD
HETATM   32  C11 UNL     1      27.413   1.805  52.912  1.00  0.00     0.046 A 
ENDBRANCH  24  26
ENDBRANCH   7  24
TORSDOF 8
ENDMDL
MODEL 8
REMARK VINA RESULT:      -7.2      3.952      4.933
REMARK  8 active torsions:
REMARK  status: ('A' for Active; 'I' for Inactive)
REMARK    1  A    between atoms: O1_2  and  C2_3 
REMARK    2  A    between atoms: C6_9  and  N3_10 
REMARK    3  A    between atoms: N3_10  and  C7_11 
REMARK    4  A    between atoms: C14_19  and  O2_20 
REMARK    5  A    between atoms: O2_20  and  C15_21 
REMARK    6  A    between atoms: C15_21  and  C16_22 
REMARK    7  A    between atoms: C16_22  and  C17_23 
REMARK    8  A    between atoms: C17_23  and  N5_24 
ROOT
HETATM    1  C2  UNL     1      22.240   3.975  51.540  1.00  0.00     0.103 A 
HETATM    2  C3  UNL     1      21.738   2.930  52.276  1.00  0.00     0.072 A 
HETATM    3  C4  UNL     1      22.554   1.860  52.573  1.00  0.00     0.075 A 
HETATM    4  N1  UNL     1      22.102   0.800  53.301  1.00  0.00    -0.241 NA
HETATM    5  C5  UNL     1      22.905  -0.249  53.591  1.00  0.00     0.236 A 
HETATM    6  N2  UNL     1      24.203  -0.312  53.180  1.00  0.00    -0.224 NA
HETATM    7  C6  UNL     1      24.676   0.721  52.460  1.00  0.00     0.142 A 
HETATM    8  C12 UNL     1      23.885   1.805  52.147  1.00  0.00     0.042 A 
HETATM    9  C13 UNL     1      24.398   2.852  51.405  1.00  0.00     0.057 A 
HETATM   10  C14 UNL     1      23.555   3.915  51.122  1.00  0.00     0.103 A 
ENDROOT
BRANCH  10  11
HETATM   11  O2  UNL     1      24.004   4.994  50.385  1.00  0.00    -0.348 OA
BRANCH  11  12
HETATM   12  C15 UNL     1      24.528   4.918  49.092  1.00  0.00     0.177 C 
BRANCH  12  13
HETATM   13  C16 UNL     1      26.015   5.238  49.049  1.00  0.00     0.057 C 
BRANCH  13  14
HETATM   14  C17 UNL     1      26.164   6.627  48.493  1.00  0.00     0.278 C 
BRANCH  14  15
HETATM   15  N5  UNL     1      27.205   7.382  49.128  1.00  0.00     0.126 N 
HETATM   16  C18 UNL     1      26.792   8.713  49.480  1.00  0.00     0.302 C 
HETATM   17  C19 UNL     1      27.961   9.596  49.860  1.00  0.00     0.198 C 
HETATM   18  O3  UNL     1      28.782   9.657  48.733  1.00  0.00    -0.385 OA
HETATM   19  C20 UNL     1      29.373   8.424  48.585  1.00  0.00     0.237 C 
HETATM   20  C21 UNL     1      28.407   7.301  48.378  1.00  0.00     0.428 C 
HETATM   21  F1  UNL     1      28.155   7.149  47.027  1.00  0.00    -0.214 F 
ENDBRANCH  14  15
ENDBRANCH  13  14
ENDBRANCH  12  13
ENDBRANCH  11  12
ENDBRANCH  10  11
BRANCH   1  22
HETATM   22  O1  UNL     1      21.425   5.060  51.235  1.00  0.00    -0.353 OA
HETATM   23  C1  UNL     1      20.449   4.882  50.225  1.00  0.00     0.210 C 
ENDBRANCH   1  22
BRANCH   7  24
HETATM   24  N3  UNL     1      26.026   0.620  52.050  1.00  0.00    -0.340 N 
HETATM   25  H6  UNL     1      26.463   0.425  51.131  1.00  0.00     0.167 HD
BRANCH  24  26
HETATM   26  C7  UNL     1      27.066   0.805  52.990  1.00  0.00     0.032 A 
HETATM   27  C8  UNL     1      27.676   1.974  52.903  1.00  0.00     0.022 A 
HETATM   28  C9  UNL     1      28.795   2.475  53.734  1.00  0.00     0.148 A 
HETATM   29  N4  UNL     1      29.137   1.452  54.698  1.00  0.00    -0.395 N 
HETATM   30  C10 UNL     1      28.521   0.182  54.839  1.00  0.00     0.085 A 
HETATM   31  H10 UNL     1      29.934   1.737  55.333  1.00  0.00     0.159 HD
HETATM   32  C11 UNL     1      27.531  -0.116  54.017  1.00  0.00     0.046 A 
ENDBRANCH  24  26
ENDBRANCH   7  24
TORSDOF 8
ENDMDL
MODEL 9
REMARK VINA RESULT:      -7.1      5.872      8.140
REMARK  8 active torsions:
REMARK  status: ('A' for Active; 'I' for Inactive)
REMARK    1  A    between atoms: O1_2  and  C2_3 
REMARK    2  A    between atoms: C6_9  and  N3_10 
REMARK    3  A    between atoms: N3_10  and  C7_11 
REMARK    4  A    between atoms: C14_19  and  O2_20 
REMARK    5  A    between atoms: O2_20  and  C15_21 
REMARK    6  A    between atoms: C15_21  and  C16_22 
REMARK    7  A    between atoms: C16_22  and  C17_23 
REMARK    8  A    between atoms: C17_23  and  N5_24 
ROOT
HETATM    1  C2  UNL     1      26.030   5.810  48.844  1.00  0.00     0.103 A 
HETATM    2  C3  UNL     1      24.886   5.659  49.588  1.00  0.00     0.072 A 
HETATM    3  C4  UNL     1      24.751   4.556  50.402  1.00  0.00     0.075 A 
HETATM    4  N1  UNL     1      23.635   4.362  51.160  1.00  0.00    -0.241 NA
HETATM    5  C5  UNL     1      23.506   3.278  51.960  1.00  0.00     0.236 A 
HETATM    6  N2  UNL     1      24.472   2.323  52.058  1.00  0.00    -0.224 NA
HETATM    7  C6  UNL     1      25.585   2.489  51.322  1.00  0.00     0.142 A 
HETATM    8  C12 UNL     1      25.749   3.581  50.497  1.00  0.00     0.042 A 
HETATM    9  C13 UNL     1      26.904   3.725  49.752  1.00  0.00     0.057 A 
HETATM   10  C14 UNL     1      27.012   4.843  48.942  1.00  0.00     0.103 A 
ENDROOT
BRANCH  10  11
HETATM   11  O2  UNL     1      28.140   5.050  48.170  1.00  0.00    -0.348 OA
BRANCH  11  12
HETATM   12  C15 UNL     1      28.941   6.194  48.215  1.00  0.00     0.177 C 
BRANCH  12  13
HETATM   13  C16 UNL     1      30.367   5.887  48.648  1.00  0.00     0.057 C 
BRANCH  13  14
HETATM   14  C17 UNL     1      30.963   4.960  47.625  1.00  0.00     0.278 C 
BRANCH  14  15
HETATM   15  N5  UNL     1      32.253   4.459  48.000  1.00  0.00     0.126 N 
HETATM   16  C18 UNL     1      33.231   5.502  48.155  1.00  0.00     0.302 C 
HETATM   17  C19 UNL     1      34.641   4.960  48.245  1.00  0.00     0.198 C 
HETATM   18  O3  UNL     1      34.875   4.292  47.041  1.00  0.00    -0.385 OA
HETATM   19  C20 UNL     1      34.112   3.148  47.050  1.00  0.00     0.237 C 
HETATM   20  C21 UNL     1      32.640   3.391  47.150  1.00  0.00     0.428 C 
HETATM   21  F1  UNL     1      32.106   3.530  45.882  1.00  0.00    -0.214 F 
ENDBRANCH  14  15
ENDBRANCH  13  14
ENDBRANCH  12  13
ENDBRANCH  11  12
ENDBRANCH  10  11
BRANCH   1  22
HETATM   22  O1  UNL     1      26.176   6.920  48.018  1.00  0.00    -0.353 OA
HETATM   23  C1  UNL     1      25.000   7.603  47.626  1.00  0.00     0.210 C 
ENDBRANCH   1  22
BRANCH   7  24
HETATM   24  N3  UNL     1      26.566   1.476  51.449  1.00  0.00    -0.340 N 
HETATM   25  H6  UNL     1      26.858   0.706  50.821  1.00  0.00     0.167 HD
BRANCH  24  26
HETATM   26  C7  UNL     1      27.363   1.407  52.615  1.00  0.00     0.032 A 
HETATM   27  C8  UNL     1      27.176   0.316  53.337  1.00  0.00     0.022 A 
HETATM   28  C9  UNL     1      27.848  -0.058  54.602  1.00  0.00     0.148 A 
HETATM   29  N4  UNL     1      28.780   0.993  54.948  1.00  0.00    -0.395 N 
HETATM   30  C10 UNL     1      29.023   2.184  54.216  1.00  0.00     0.085 A 
HETATM   31  H10 UNL     1      29.303   0.798  55.847  1.00  0.00     0.159 HD
HETATM   32  C11 UNL     1      28.340   2.370  53.102  1.00  0.00     0.046 A 
ENDBRANCH  24  26
ENDBRANCH   7  24
TORSDOF 8
ENDMDL
