MODEL 1
REMARK VINA RESULT:      -8.5      0.000      0.000
REMARK  4 active torsions:
REMARK  status: ('A' for Active; 'I' for Inactive)
REMARK    1  A    between atoms: C2_2  and  C3_3 
REMARK    2  A    between atoms: C2_2  and  N1_10 
REMARK    3  A    between atoms: C3_3  and  C4_4 
REMARK    4  A    between atoms: N1_10  and  C10_11 
ROOT
HETATM    1  N1  UNL     1      26.505   2.745  51.574  1.00  0.00    -0.388 N 
HETATM    2  H16 UNL     1      26.071   3.342  52.350  1.00  0.00     0.159 HD
ENDROOT
BRANCH   1   3
HETATM    3  C2  UNL     1      25.711   3.525  50.739  1.00  0.00     0.081 C 
HETATM    4  C1  UNL     1      26.551   4.110  49.573  1.00  0.00     0.032 C 
BRANCH   3   5
HETATM    5  C3  UNL     1      24.511   2.792  50.128  1.00  0.00     0.058 C 
BRANCH   5   6
HETATM    6  C4  UNL     1      23.592   2.238  51.147  1.00  0.00    -0.082 C 
HETATM    7  C5  UNL     1      22.680   1.327  50.732  1.00  0.00    -0.024 C 
HETATM    8  C6  UNL     1      21.594   0.537  51.400  1.00  0.00     0.027 C 
HETATM    9  C7  UNL     1      21.589   0.805  52.895  1.00  0.00     0.004 C 
HETATM   10  C8  UNL     1      23.053   1.084  53.246  1.00  0.00     0.005 C 
HETATM   11  C9  UNL     1      23.396   2.424  52.605  1.00  0.00     0.034 C 
ENDBRANCH   5   6
ENDBRANCH   3   5
ENDBRANCH   1   3
BRANCH   1  12
HETATM   12  C10 UNL     1      27.328   1.938  52.453  1.00  0.00     0.022 A 
HETATM   13  C11 UNL     1      28.327   2.372  53.352  1.00  0.00     0.025 A 
HETATM   14  C12 UNL     1      28.972   1.399  54.077  1.00  0.00    -0.000 A 
HETATM   15  C13 UNL     1      28.515   0.076  53.794  1.00  0.00     0.000 A 
HETATM   16  C14 UNL     1      27.323  -0.317  52.704  1.00  0.00     0.094 A 
HETATM   17  C15 UNL     1      26.563   0.932  51.840  1.00  0.00     0.072 A 
HETATM   18  C18 UNL     1      26.846  -2.000  52.443  1.00  0.00     0.178 A 
HETATM   19  C17 UNL     1      26.733  -1.013  52.223  1.00  0.00     0.019 A 
HETATM   20  C16 UNL     1      26.651  -0.175  52.051  1.00  0.00    -0.026 A 
HETATM   21  O1  UNL     1      27.577  -2.630  53.210  1.00  0.00    -0.291 OA
ENDBRANCH   1  12
TORSDOF 4
ENDMDL
MODEL 2
REMARK VINA RESULT:      -8.3      1.113      1.710
REMARK  4 active torsions:
REMARK  status: ('A' for Active; 'I' for Inactive)
REMARK    1  A    between atoms: C2_2  and  C3_3 
REMARK    2  A    between atoms: C2_2  and  N1_10 
REMARK    3  A    between atoms: C3_3  and  C4_4 
REMARK    4  A    between atoms: N1_10  and  C10_11 
ROOT
HETATM    1  N1  UNL     1      25.826   1.997  52.496  1.00  0.00    -0.388 N 
HETATM    2  H16 UNL     1      25.563   2.490  53.409  1.00  0.00     0.159 HD
ENDROOT
BRANCH   1   3
HETATM    3  C2  UNL     1      24.634   2.546  52.034  1.00  0.00     0.081 C 
HETATM    4  C1  UNL     1      24.904   3.566  50.897  1.00  0.00     0.032 C 
BRANCH   3   5
HETATM    5  C3  UNL     1      23.616   1.525  51.514  1.00  0.00     0.058 C 
BRANCH   5   6
HETATM    6  C4  UNL     1      22.938   0.781  52.599  1.00  0.00    -0.082 C 
HETATM    7  C5  UNL     1      21.664   1.135  52.894  1.00  0.00    -0.024 C 
HETATM    8  C6  UNL     1      20.638   0.667  53.883  1.00  0.00     0.027 C 
HETATM    9  C7  UNL     1      21.168  -0.516  54.674  1.00  0.00     0.004 C 
HETATM   10  C8  UNL     1      22.103  -1.245  53.707  1.00  0.00     0.005 C 
HETATM   11  C9  UNL     1      23.307  -0.332  53.508  1.00  0.00     0.034 C 
ENDBRANCH   5   6
ENDBRANCH   3   5
ENDBRANCH   1   3
BRANCH   1  12
HETATM   12  C10 UNL     1      27.065   1.429  52.987  1.00  0.00     0.022 A 
HETATM   13  C11 UNL     1      28.165   2.103  53.561  1.00  0.00     0.025 A 
HETATM   14  C12 UNL     1      29.234   1.330  53.947  1.00  0.00    -0.000 A 
HETATM   15  C13 UNL     1      29.051  -0.065  53.696  1.00  0.00     0.000 A 
HETATM   16  C14 UNL     1      27.701  -0.750  53.008  1.00  0.00     0.094 A 
HETATM   17  C15 UNL     1      26.415   0.261  52.553  1.00  0.00     0.072 A 
HETATM   18  C18 UNL     1      27.597  -2.496  52.750  1.00  0.00     0.178 A 
HETATM   19  C17 UNL     1      27.178  -1.572  52.674  1.00  0.00     0.019 A 
HETATM   20  C16 UNL     1      26.839  -0.784  52.617  1.00  0.00    -0.026 A 
HETATM   21  O1  UNL     1      28.672  -2.917  53.181  1.00  0.00    -0.291 OA
ENDBRANCH   1  12
TORSDOF 4
ENDMDL
MODEL 3
REMARK VINA RESULT:      -8.2      2.085      5.548
REMARK  4 active torsions:
REMARK  status: ('A' for Active; 'I' for Inactive)
REMARK    1  A    between atoms: C2_2  and  C3_3 
REMARK    2  A    between atoms: C2_2  and  N1_10 
REMARK    3  A    between atoms: C3_3  and  C4_4 
REMARK    4  A    between atoms: N1_10  and  C10_11 
ROOT
HETATM    1  N1  UNL     1      24.843   1.346  51.796  1.00  0.00    -0.388 N 
HETATM    2  H16 UNL     1      24.705   2.022  50.977  1.00  0.00     0.159 HD
ENDROOT
BRANCH   1   3
HETATM    3  C2  UNL     1      26.181   1.705  51.667  1.00  0.00     0.081 C 
HETATM    4  C1  UNL     1      26.328   2.965  50.775  1.00  0.00     0.032 C 
BRANCH   3   5
HETATM    5  C3  UNL     1      26.902   1.983  52.992  1.00  0.00     0.058 C 
BRANCH   5   6
HETATM    6  C4  UNL     1      27.890   0.939  53.342  1.00  0.00    -0.082 C 
HETATM    7  C5  UNL     1      27.642  -0.321  52.912  1.00  0.00    -0.024 C 
HETATM    8  C6  UNL     1      28.348  -1.640  53.034  1.00  0.00     0.027 C 
HETATM    9  C7  UNL     1      29.668  -1.466  53.764  1.00  0.00     0.004 C 
HETATM   10  C8  UNL     1      30.135  -0.055  53.396  1.00  0.00     0.005 C 
HETATM   11  C9  UNL     1      29.173   0.905  54.086  1.00  0.00     0.034 C 
ENDBRANCH   5   6
ENDBRANCH   3   5
ENDBRANCH   1   3
BRANCH   1  12
HETATM   12  C10 UNL     1      23.447   0.979  51.923  1.00  0.00     0.022 A 
HETATM   13  C11 UNL     1      22.365   1.378  51.108  1.00  0.00     0.025 A 
HETATM   14  C12 UNL     1      21.125   0.889  51.442  1.00  0.00    -0.000 A 
HETATM   15  C13 UNL     1      21.135   0.037  52.589  1.00  0.00     0.000 A 
HETATM   16  C14 UNL     1      22.482  -0.364  53.477  1.00  0.00     0.094 A 
HETATM   17  C15 UNL     1      23.986   0.273  53.011  1.00  0.00     0.072 A 
HETATM   18  C18 UNL     1      22.362  -1.432  54.881  1.00  0.00     0.178 A 
HETATM   19  C17 UNL     1      22.931  -0.861  54.261  1.00  0.00     0.019 A 
HETATM   20  C16 UNL     1      23.396  -0.374  53.726  1.00  0.00    -0.026 A 
HETATM   21  O1  UNL     1      21.162  -1.704  54.936  1.00  0.00    -0.291 OA
ENDBRANCH   1  12
TORSDOF 4
ENDMDL
MODEL 4
REMARK VINA RESULT:      -8.0      2.034      5.358
REMARK  4 active torsions:
REMARK  status: ('A' for Active; 'I' for Inactive)
REMARK    1  A    between atoms: C2_2  and  C3_3 
REMARK    2  A    between atoms: C2_2  and  N1_10 
REMARK    3  A    between atoms: C3_3  and  C4_4 
REMARK    4  A    between atoms: N1_10  and  C10_11 
ROOT
HETATM    1  N1  UNL     1      24.146   2.032  51.791  1.00  0.00    -0.388 N 
HETATM    2  H16 UNL     1      23.783   2.311  50.823  1.00  0.00     0.159 HD
ENDROOT
BRANCH   1   3
HETATM    3  C2  UNL     1      25.389   2.336  51.245  1.00  0.00     0.081 C 
HETATM    4  C1  UNL     1      25.337   3.683  50.477  1.00  0.00     0.032 C 
BRANCH   3   5
HETATM    5  C3  UNL     1      26.533   2.421  52.262  1.00  0.00     0.058 C 
BRANCH   5   6
HETATM    6  C4  UNL     1      27.200   1.121  52.492  1.00  0.00    -0.082 C 
HETATM    7  C5  UNL     1      28.311   1.120  53.267  1.00  0.00    -0.024 C 
HETATM    8  C6  UNL     1      29.268   0.068  53.744  1.00  0.00     0.027 C 
HETATM    9  C7  UNL     1      28.819  -1.305  53.277  1.00  0.00     0.004 C 
HETATM   10  C8  UNL     1      27.291  -1.220  53.226  1.00  0.00     0.005 C 
HETATM   11  C9  UNL     1      26.955  -0.281  52.074  1.00  0.00     0.034 C 
ENDBRANCH   5   6
ENDBRANCH   3   5
ENDBRANCH   1   3
BRANCH   1  12
HETATM   12  C10 UNL     1      22.846   1.718  52.351  1.00  0.00     0.022 A 
HETATM   13  C11 UNL     1      21.633   2.420  52.181  1.00  0.00     0.025 A 
HETATM   14  C12 UNL     1      20.530   1.915  52.827  1.00  0.00    -0.000 A 
HETATM   15  C13 UNL     1      20.799   0.733  53.582  1.00  0.00     0.000 A 
HETATM   16  C14 UNL     1      22.282  -0.009  53.709  1.00  0.00     0.094 A 
HETATM   17  C15 UNL     1      23.606   0.665  52.887  1.00  0.00     0.072 A 
HETATM   18  C18 UNL     1      22.487  -1.473  54.680  1.00  0.00     0.178 A 
HETATM   19  C17 UNL     1      22.887  -0.760  54.075  1.00  0.00     0.019 A 
HETATM   20  C16 UNL     1      23.207  -0.149  53.562  1.00  0.00    -0.026 A 
HETATM   21  O1  UNL     1      21.358  -1.685  55.126  1.00  0.00    -0.291 OA
ENDBRANCH   1  12
TORSDOF 4
ENDMDL
MODEL 5
REMARK VINA RESULT:      -7.9      1.177      3.616
REMARK  4 active torsions:
REMARK  status: ('A' for Active; 'I' for Inactive)
REMARK    1  A    between atoms: C2_2  and  C3_3 
REMARK    2  A    between atoms: C2_2  and  N1_10 
REMARK    3  A    between atoms: C3_3  and  C4_4 
REMARK    4  A    between atoms: N1_10  and  C10_11 
ROOT
HETATM    1  N1  UNL     1      25.577   1.583  52.195  1.00  0.00    -0.388 N 
HETATM    2  H16 UNL     1      25.087   0.651  52.388  1.00  0.00     0.159 HD
ENDROOT
BRANCH   1   3
HETATM    3  C2  UNL     1      24.360   1.928  51.615  1.00  0.00     0.081 C 
HETATM    4  C1  UNL     1      23.177   1.369  52.449  1.00  0.00     0.032 C 
BRANCH   3   5
HETATM    5  C3  UNL     1      24.136   3.435  51.440  1.00  0.00     0.058 C 
BRANCH   5   6
HETATM    6  C4  UNL     1      25.019   4.034  50.414  1.00  0.00    -0.082 C 
HETATM    7  C5  UNL     1      25.134   5.384  50.405  1.00  0.00    -0.024 C 
HETATM    8  C6  UNL     1      25.891   6.375  49.571  1.00  0.00     0.027 C 
HETATM    9  C7  UNL     1      26.761   5.656  48.556  1.00  0.00     0.004 C 
HETATM   10  C8  UNL     1      27.152   4.342  49.237  1.00  0.00     0.005 C 
HETATM   11  C9  UNL     1      25.876   3.511  49.322  1.00  0.00     0.034 C 
ENDBRANCH   5   6
ENDBRANCH   3   5
ENDBRANCH   1   3
BRANCH   1  12
HETATM   12  C10 UNL     1      26.841   1.214  52.800  1.00  0.00     0.022 A 
HETATM   13  C11 UNL     1      27.803   2.062  53.392  1.00  0.00     0.025 A 
HETATM   14  C12 UNL     1      28.931   1.460  53.897  1.00  0.00    -0.000 A 
HETATM   15  C13 UNL     1      28.945   0.041  53.735  1.00  0.00     0.000 A 
HETATM   16  C14 UNL     1      27.745  -0.856  53.014  1.00  0.00     0.094 A 
HETATM   17  C15 UNL     1      26.375  -0.053  52.410  1.00  0.00     0.072 A 
HETATM   18  C18 UNL     1      27.882  -2.614  52.873  1.00  0.00     0.178 A 
HETATM   19  C17 UNL     1      27.355  -1.760  52.706  1.00  0.00     0.019 A 
HETATM   20  C16 UNL     1      26.923  -1.028  52.574  1.00  0.00    -0.026 A 
HETATM   21  O1  UNL     1      28.968  -2.862  53.399  1.00  0.00    -0.291 OA
ENDBRANCH   1  12
TORSDOF 4
ENDMDL
MODEL 6
REMARK VINA RESULT:      -7.8      1.748      4.727
REMARK  4 active torsions:
REMARK  status: ('A' for Active; 'I' for Inactive)
REMARK    1  A    between atoms: C2_2  and  C3_3 
REMARK    2  A    between atoms: C2_2  and  N1_10 
REMARK    3  A    between atoms: C3_3  and  C4_4 
REMARK    4  A    between atoms: N1_10  and  C10_11 
ROOT
HETATM    1  N1  UNL     1      24.316   2.339  50.823  1.00  0.00    -0.388 N 
HETATM    2  H16 UNL     1      25.305   2.679  51.051  1.00  0.00     0.159 HD
ENDROOT
BRANCH   1   3
HETATM    3  C2  UNL     1      24.376   3.309  49.827  1.00  0.00     0.081 C 
HETATM    4  C1  UNL     1      23.092   3.282  48.958  1.00  0.00     0.032 C 
BRANCH   3   5
HETATM    5  C3  UNL     1      24.564   4.742  50.338  1.00  0.00     0.058 C 
BRANCH   5   6
HETATM    6  C4  UNL     1      25.709   5.435  49.706  1.00  0.00    -0.082 C 
HETATM    7  C5  UNL     1      26.695   4.664  49.191  1.00  0.00    -0.024 C 
HETATM    8  C6  UNL     1      27.992   4.934  48.487  1.00  0.00     0.027 C 
HETATM    9  C7  UNL     1      28.172   6.426  48.267  1.00  0.00     0.004 C 
HETATM   10  C8  UNL     1      26.752   6.970  48.098  1.00  0.00     0.005 C 
HETATM   11  C9  UNL     1      26.084   6.850  49.463  1.00  0.00     0.034 C 
ENDBRANCH   5   6
ENDBRANCH   3   5
ENDBRANCH   1   3
BRANCH   1  12
HETATM   12  C10 UNL     1      24.263   1.332  51.864  1.00  0.00     0.022 A 
HETATM   13  C11 UNL     1      23.137   0.892  52.594  1.00  0.00     0.025 A 
HETATM   14  C12 UNL     1      23.353  -0.082  53.539  1.00  0.00    -0.000 A 
HETATM   15  C13 UNL     1      24.717  -0.500  53.630  1.00  0.00     0.000 A 
HETATM   16  C14 UNL     1      25.968   0.095  52.711  1.00  0.00     0.094 A 
HETATM   17  C15 UNL     1      25.635   1.299  51.559  1.00  0.00     0.072 A 
HETATM   18  C18 UNL     1      27.617  -0.506  52.920  1.00  0.00     0.178 A 
HETATM   19  C17 UNL     1      26.964   0.113  52.446  1.00  0.00     0.019 A 
HETATM   20  C16 UNL     1      26.398   0.629  52.056  1.00  0.00    -0.026 A 
HETATM   21  O1  UNL     1      27.507  -1.349  53.812  1.00  0.00    -0.291 OA
ENDBRANCH   1  12
TORSDOF 4
ENDMDL
MODEL 7
REMARK VINA RESULT:      -7.7      1.727      2.844
REMARK  4 active torsions:
REMARK  status: ('A' for Active; 'I' for Inactive)
REMARK    1  A    between atoms: C2_2  and  C3_3 
REMARK    2  A    between atoms: C2_2  and  N1_10 
REMARK    3  A    between atoms: C3_3  and  C4_4 
REMARK    4  A    between atoms: N1_10  and  C10_11 
ROOT
HETATM    1  N1  UNL     1      25.918   2.324  52.078  1.00  0.00    -0.388 N 
HETATM    2  H16 UNL     1      26.421   2.509  51.151  1.00  0.00     0.159 HD
ENDROOT
BRANCH   1   3
HETATM    3  C2  UNL     1      24.853   2.965  51.453  1.00  0.00     0.081 C 
HETATM    4  C1  UNL     1      23.974   3.708  52.493  1.00  0.00     0.032 C 
BRANCH   3   5
HETATM    5  C3  UNL     1      25.257   3.977  50.375  1.00  0.00     0.058 C 
BRANCH   5   6
HETATM    6  C4  UNL     1      24.237   4.128  49.313  1.00  0.00    -0.082 C 
HETATM    7  C5  UNL     1      23.579   3.012  48.920  1.00  0.00    -0.024 C 
HETATM    8  C6  UNL     1      22.508   2.714  47.913  1.00  0.00     0.027 C 
HETATM    9  C7  UNL     1      22.039   3.995  47.246  1.00  0.00     0.004 C 
HETATM   10  C8  UNL     1      22.202   5.076  48.318  1.00  0.00     0.005 C 
HETATM   11  C9  UNL     1      23.703   5.258  48.515  1.00  0.00     0.034 C 
ENDBRANCH   5   6
ENDBRANCH   3   5
ENDBRANCH   1   3
BRANCH   1  12
HETATM   12  C10 UNL     1      27.033   1.658  52.720  1.00  0.00     0.022 A 
HETATM   13  C11 UNL     1      28.105   2.243  53.430  1.00  0.00     0.025 A 
HETATM   14  C12 UNL     1      29.047   1.385  53.946  1.00  0.00    -0.000 A 
HETATM   15  C13 UNL     1      28.780   0.009  53.673  1.00  0.00     0.000 A 
HETATM   16  C14 UNL     1      27.475  -0.566  52.819  1.00  0.00     0.094 A 
HETATM   17  C15 UNL     1      26.345   0.545  52.207  1.00  0.00     0.072 A 
HETATM   18  C18 UNL     1      27.256  -2.300  52.547  1.00  0.00     0.178 A 
HETATM   19  C17 UNL     1      26.929  -1.345  52.420  1.00  0.00     0.019 A 
HETATM   20  C16 UNL     1      26.668  -0.532  52.322  1.00  0.00    -0.026 A 
HETATM   21  O1  UNL     1      28.229  -2.806  53.110  1.00  0.00    -0.291 OA
ENDBRANCH   1  12
TORSDOF 4
ENDMDL
MODEL 8
REMARK VINA RESULT:      -7.5      2.508      5.485
REMARK  4 active torsions:
REMARK  status: ('A' for Active; 'I' for Inactive)
REMARK    1  A    between atoms: C2_2  and  C3_3 
REMARK    2  A    between atoms: C2_2  and  N1_10 
REMARK    3  A    between atoms: C3_3  and  C4_4 
REMARK    4  A    between atoms: N1_10  and  C10_11 
ROOT
HETATM    1  N1  UNL     1      23.753   1.509  51.922  1.00  0.00    -0.388 N 
HETATM    2  H16 UNL     1      24.716   1.042  51.947  1.00  0.00     0.159 HD
ENDROOT
BRANCH   1   3
HETATM    3  C2  UNL     1      24.386   2.421  51.083  1.00  0.00     0.081 C 
HETATM    4  C1  UNL     1      24.176   3.871  51.592  1.00  0.00     0.032 C 
BRANCH   3   5
HETATM    5  C3  UNL     1      25.893   2.199  50.914  1.00  0.00     0.058 C 
BRANCH   5   6
HETATM    6  C4  UNL     1      26.522   1.575  52.100  1.00  0.00    -0.082 C 
HETATM    7  C5  UNL     1      26.849   0.264  52.013  1.00  0.00    -0.024 C 
HETATM    8  C6  UNL     1      27.480  -0.733  52.939  1.00  0.00     0.027 C 
HETATM    9  C7  UNL     1      27.883  -0.062  54.240  1.00  0.00     0.004 C 
HETATM   10  C8  UNL     1      28.235   1.375  53.847  1.00  0.00     0.005 C 
HETATM   11  C9  UNL     1      26.922   2.040  53.450  1.00  0.00     0.034 C 
ENDBRANCH   5   6
ENDBRANCH   3   5
ENDBRANCH   1   3
BRANCH   1  12
HETATM   12  C10 UNL     1      23.103   0.553  52.797  1.00  0.00     0.022 A 
HETATM   13  C11 UNL     1      23.682  -0.211  53.834  1.00  0.00     0.025 A 
HETATM   14  C12 UNL     1      22.845  -1.056  54.522  1.00  0.00    -0.000 A 
HETATM   15  C13 UNL     1      21.492  -1.021  54.063  1.00  0.00     0.000 A 
HETATM   16  C14 UNL     1      20.923  -0.073  52.822  1.00  0.00     0.094 A 
HETATM   17  C15 UNL     1      22.009   0.950  52.011  1.00  0.00     0.072 A 
HETATM   18  C18 UNL     1      19.220  -0.121  52.347  1.00  0.00     0.178 A 
HETATM   19  C17 UNL     1      20.156   0.255  52.215  1.00  0.00     0.019 A 
HETATM   20  C16 UNL     1      20.953   0.562  52.119  1.00  0.00    -0.026 A 
HETATM   21  O1  UNL     1      18.727  -0.946  53.119  1.00  0.00    -0.291 OA
ENDBRANCH   1  12
TORSDOF 4
ENDMDL
MODEL 9
REMARK VINA RESULT:      -7.4      2.185      3.343
REMARK  4 active torsions:
REMARK  status: ('A' for Active; 'I' for Inactive)
REMARK    1  A    between atoms: C2_2  and  C3_3 
REMARK    2  A    between atoms: C2_2  and  N1_10 
REMARK    3  A    between atoms: C3_3  and  C4_4 
REMARK    4  A    between atoms: N1_10  and  C10_11 
ROOT
HETATM    1  N1  UNL     1      24.280   1.912  51.346  1.00  0.00    -0.388 N 
HETATM    2  H16 UNL     1      23.905   1.204  50.635  1.00  0.00     0.159 HD
ENDROOT
BRANCH   1   3
HETATM    3  C2  UNL     1      23.796   2.849  50.439  1.00  0.00     0.081 C 
HETATM    4  C1  UNL     1      24.932   3.346  49.506  1.00  0.00     0.032 C 
BRANCH   3   5
HETATM    5  C3  UNL     1      22.647   2.352  49.553  1.00  0.00     0.058 C 
BRANCH   5   6
HETATM    6  C4  UNL     1      21.372   2.207  50.289  1.00  0.00    -0.082 C 
HETATM    7  C5  UNL     1      20.764   0.997  50.247  1.00  0.00    -0.024 C 
HETATM    8  C6  UNL     1      19.504   0.425  50.826  1.00  0.00     0.027 C 
HETATM    9  C7  UNL     1      18.811   1.454  51.702  1.00  0.00     0.004 C 
HETATM   10  C8  UNL     1      19.947   2.297  52.286  1.00  0.00     0.005 C 
HETATM   11  C9  UNL     1      20.527   3.095  51.124  1.00  0.00     0.034 C 
ENDBRANCH   5   6
ENDBRANCH   3   5
ENDBRANCH   1   3
BRANCH   1  12
HETATM   12  C10 UNL     1      24.781   0.927  52.284  1.00  0.00     0.022 A 
HETATM   13  C11 UNL     1      26.113   0.496  52.465  1.00  0.00     0.025 A 
HETATM   14  C12 UNL     1      26.329  -0.460  53.428  1.00  0.00    -0.000 A 
HETATM   15  C13 UNL     1      25.140  -0.872  54.103  1.00  0.00     0.000 A 
HETATM   16  C14 UNL     1      23.612  -0.290  53.801  1.00  0.00     0.094 A 
HETATM   17  C15 UNL     1      23.412   0.892  52.599  1.00  0.00     0.072 A 
HETATM   18  C18 UNL     1      22.216  -0.884  54.709  1.00  0.00     0.178 A 
HETATM   19  C17 UNL     1      22.599  -0.274  53.990  1.00  0.00     0.019 A 
HETATM   20  C16 UNL     1      22.940   0.234  53.387  1.00  0.00    -0.026 A 
HETATM   21  O1  UNL     1      22.703  -1.712  55.481  1.00  0.00    -0.291 OA
ENDBRANCH   1  12
TORSDOF 4
ENDMDL
