MODEL 1
REMARK VINA RESULT:      -9.0      0.000      0.000
REMARK  5 active torsions:
REMARK  status: ('A' for Active; 'I' for Inactive)
REMARK    1  A    between atoms: O1_2  and  C2_3 
REMARK    2  A    between atoms: C10_13  and  C11_14 
REMARK    3  A    between atoms: C12_15  and  C13_16 
REMARK    4  A    between atoms: C13_16  and  C14_17 
REMARK    5  A    between atoms: C15_18  and  N2_19 
ROOT
HETATM    1  C2  UNL     1      18.488  -0.111  51.795  1.00  0.00     0.070 A 
HETATM    2  C3  UNL     1      19.508   0.591  51.192  1.00  0.00     0.038 A 
HETATM    3  C4  UNL     1      20.757   0.550  51.750  1.00  0.00     0.017 A 
HETATM    4  C5  UNL     1      21.078  -0.150  52.891  1.00  0.00     0.006 A 
HETATM    5  C6  UNL     1      20.026  -0.831  53.452  1.00  0.00     0.049 A 
HETATM    6  C7  UNL     1      18.764  -0.816  52.924  1.00  0.00     0.067 A 
HETATM    7  N1  UNL     1      20.604  -1.454  54.583  1.00  0.00    -0.322 N 
HETATM    8  C8  UNL     1      21.983  -1.172  54.728  1.00  0.00     0.257 A 
HETATM    9  O2  UNL     1      22.727  -1.618  55.670  1.00  0.00    -0.267 OA
HETATM   10  C9  UNL     1      22.339  -0.291  53.600  1.00  0.00     0.044 A 
HETATM   11  C10 UNL     1      23.536   0.176  53.404  1.00  0.00     0.018 C 
HETATM   12  H7  UNL     1      20.084  -2.072  55.265  1.00  0.00     0.169 HD
ENDROOT
BRANCH  11  13
HETATM   13  C11 UNL     1      24.148   1.034  52.413  1.00  0.00    -0.003 C 
HETATM   14  C12 UNL     1      25.261   1.749  52.672  1.00  0.00    -0.022 C 
BRANCH  14  15
HETATM   15  C13 UNL     1      26.177   1.954  53.832  1.00  0.00     0.063 C 
BRANCH  15  16
HETATM   16  C14 UNL     1      27.186   0.868  53.963  1.00  0.00    -0.054 C 
HETATM   17  C15 UNL     1      28.479   1.154  53.958  1.00  0.00     0.005 C 
HETATM   18  C16 UNL     1      29.417   0.001  54.094  1.00  0.00     0.057 C 
HETATM   19  C17 UNL     1      29.017  -1.032  53.096  1.00  0.00     0.006 C 
HETATM   20  C18 UNL     1      27.555  -1.339  53.081  1.00  0.00     0.005 C 
HETATM   21  C19 UNL     1      26.753  -0.546  54.100  1.00  0.00     0.036 C 
BRANCH  17  22
HETATM   22  N2  UNL     1      28.981   2.482  53.831  1.00  0.00    -0.402 N 
HETATM   23  H13 UNL     1      29.593   2.477  52.962  1.00  0.00     0.156 HD
HETATM   24  H14 UNL     1      29.051   3.469  54.166  1.00  0.00     0.156 HD
ENDBRANCH  17  22
ENDBRANCH  15  16
ENDBRANCH  14  15
ENDBRANCH  11  13
BRANCH   1  25
HETATM   25  O1  UNL     1      17.219  -0.069  51.227  1.00  0.00    -0.356 OA
HETATM   26  C1  UNL     1      16.187  -0.880  51.698  1.00  0.00     0.210 C 
ENDBRANCH   1  25
TORSDOF 5
ENDMDL
MODEL 2
REMARK VINA RESULT:      -8.8      3.206      6.722
REMARK  5 active torsions:
REMARK  status: ('A' for Active; 'I' for Inactive)
REMARK    1  A    between atoms: O1_2  and  C2_3 
REMARK    2  A    between atoms: C10_13  and  C11_14 
REMARK    3  A    between atoms: C12_15  and  C13_16 
REMARK    4  A    between atoms: C13_16  and  C14_17 
REMARK    5  A    between atoms: C15_18  and  N2_19 
ROOT
HETATM    1  C2  UNL     1      27.627   0.446  53.339  1.00  0.00     0.070 A 
HETATM    2  C3  UNL     1      26.791   0.773  52.294  1.00  0.00     0.038 A 
HETATM    3  C4  UNL     1      25.463   0.457  52.388  1.00  0.00     0.017 A 
HETATM    4  C5  UNL     1      24.887  -0.176  53.466  1.00  0.00     0.006 A 
HETATM    5  C6  UNL     1      25.763  -0.480  54.478  1.00  0.00     0.049 A 
HETATM    6  C7  UNL     1      27.096  -0.181  54.423  1.00  0.00     0.067 A 
HETATM    7  N1  UNL     1      24.943  -1.109  55.445  1.00  0.00    -0.322 N 
HETATM    8  C8  UNL     1      23.587  -1.197  55.049  1.00  0.00     0.257 A 
HETATM    9  O2  UNL     1      22.653  -1.722  55.749  1.00  0.00    -0.267 OA
HETATM   10  C9  UNL     1      23.512  -0.575  53.714  1.00  0.00     0.044 A 
HETATM   11  C10 UNL     1      22.410  -0.474  53.030  1.00  0.00     0.018 C 
HETATM   12  H7  UNL     1      25.281  -1.483  56.373  1.00  0.00     0.169 HD
ENDROOT
BRANCH  11  13
HETATM   13  C11 UNL     1      22.057   0.071  51.738  1.00  0.00    -0.003 C 
HETATM   14  C12 UNL     1      22.154   1.386  51.462  1.00  0.00    -0.022 C 
BRANCH  14  15
HETATM   15  C13 UNL     1      22.574   2.622  52.188  1.00  0.00     0.063 C 
BRANCH  15  16
HETATM   16  C14 UNL     1      23.417   3.518  51.353  1.00  0.00    -0.054 C 
HETATM   17  C15 UNL     1      23.496   4.811  51.629  1.00  0.00     0.005 C 
HETATM   18  C16 UNL     1      24.366   5.632  50.737  1.00  0.00     0.057 C 
HETATM   19  C17 UNL     1      23.985   5.331  49.327  1.00  0.00     0.006 C 
HETATM   20  C18 UNL     1      23.871   3.875  49.018  1.00  0.00     0.005 C 
HETATM   21  C19 UNL     1      24.179   2.972  50.201  1.00  0.00     0.036 C 
BRANCH  17  22
HETATM   22  N2  UNL     1      22.798   5.417  52.715  1.00  0.00    -0.402 N 
HETATM   23  H13 UNL     1      22.740   6.452  52.478  1.00  0.00     0.156 HD
HETATM   24  H14 UNL     1      22.310   5.357  53.636  1.00  0.00     0.156 HD
ENDBRANCH  17  22
ENDBRANCH  15  16
ENDBRANCH  14  15
ENDBRANCH  11  13
BRANCH   1  25
HETATM   25  O1  UNL     1      28.977   0.767  53.243  1.00  0.00    -0.356 OA
HETATM   26  C1  UNL     1      29.968  -0.174  53.523  1.00  0.00     0.210 C 
ENDBRANCH   1  25
TORSDOF 5
ENDMDL
MODEL 3
REMARK VINA RESULT:      -8.6      4.579      6.989
REMARK  5 active torsions:
REMARK  status: ('A' for Active; 'I' for Inactive)
REMARK    1  A    between atoms: O1_2  and  C2_3 
REMARK    2  A    between atoms: C10_13  and  C11_14 
REMARK    3  A    between atoms: C12_15  and  C13_16 
REMARK    4  A    between atoms: C13_16  and  C14_17 
REMARK    5  A    between atoms: C15_18  and  N2_19 
ROOT
HETATM    1  C2  UNL     1      27.019   5.074  48.894  1.00  0.00     0.070 A 
HETATM    2  C3  UNL     1      26.932   3.753  49.274  1.00  0.00     0.038 A 
HETATM    3  C4  UNL     1      25.815   3.333  49.945  1.00  0.00     0.017 A 
HETATM    4  C5  UNL     1      24.754   4.144  50.277  1.00  0.00     0.006 A 
HETATM    5  C6  UNL     1      24.892   5.449  49.877  1.00  0.00     0.049 A 
HETATM    6  C7  UNL     1      25.991   5.909  49.204  1.00  0.00     0.067 A 
HETATM    7  N1  UNL     1      23.698   6.060  50.326  1.00  0.00    -0.322 N 
HETATM    8  C8  UNL     1      22.832   5.161  50.993  1.00  0.00     0.257 A 
HETATM    9  O2  UNL     1      21.695   5.471  51.490  1.00  0.00    -0.267 OA
HETATM   10  C9  UNL     1      23.515   3.853  50.978  1.00  0.00     0.044 A 
HETATM   11  C10 UNL     1      23.013   2.775  51.505  1.00  0.00     0.018 C 
HETATM   12  H7  UNL     1      23.452   7.078  50.193  1.00  0.00     0.169 HD
ENDROOT
BRANCH  11  13
HETATM   13  C11 UNL     1      23.449   1.402  51.632  1.00  0.00    -0.003 C 
HETATM   14  C12 UNL     1      24.338   1.015  52.568  1.00  0.00    -0.022 C 
BRANCH  14  15
HETATM   15  C13 UNL     1      25.118   1.666  53.663  1.00  0.00     0.063 C 
BRANCH  15  16
HETATM   16  C14 UNL     1      26.556   1.289  53.643  1.00  0.00    -0.054 C 
HETATM   17  C15 UNL     1      27.006   0.329  54.437  1.00  0.00     0.005 C 
HETATM   18  C16 UNL     1      28.464   0.019  54.348  1.00  0.00     0.057 C 
HETATM   19  C17 UNL     1      29.210   1.305  54.462  1.00  0.00     0.006 C 
HETATM   20  C18 UNL     1      28.690   2.398  53.587  1.00  0.00     0.005 C 
HETATM   21  C19 UNL     1      27.502   1.985  52.734  1.00  0.00     0.036 C 
BRANCH  17  22
HETATM   22  N2  UNL     1      26.169  -0.391  55.339  1.00  0.00    -0.402 N 
HETATM   23  H13 UNL     1      25.543  -0.997  54.730  1.00  0.00     0.156 HD
HETATM   24  H14 UNL     1      25.858  -0.625  56.308  1.00  0.00     0.156 HD
ENDBRANCH  17  22
ENDBRANCH  15  16
ENDBRANCH  14  15
ENDBRANCH  11  13
BRANCH   1  25
HETATM   25  O1  UNL     1      28.154   5.501  48.212  1.00  0.00    -0.356 OA
HETATM   26  C1  UNL     1      28.335   6.842  47.873  1.00  0.00     0.210 C 
ENDBRANCH   1  25
TORSDOF 5
ENDMDL
MODEL 4
REMARK VINA RESULT:      -8.6      2.460      4.068
REMARK  5 active torsions:
REMARK  status: ('A' for Active; 'I' for Inactive)
REMARK    1  A    between atoms: O1_2  and  C2_3 
REMARK    2  A    between atoms: C10_13  and  C11_14 
REMARK    3  A    between atoms: C12_15  and  C13_16 
REMARK    4  A    between atoms: C13_16  and  C14_17 
REMARK    5  A    between atoms: C15_18  and  N2_19 
ROOT
HETATM    1  C2  UNL     1      19.520   0.269  51.632  1.00  0.00     0.070 A 
HETATM    2  C3  UNL     1      20.709   0.669  51.063  1.00  0.00     0.038 A 
HETATM    3  C4  UNL     1      21.877   0.424  51.735  1.00  0.00     0.017 A 
HETATM    4  C5  UNL     1      21.955  -0.200  52.959  1.00  0.00     0.006 A 
HETATM    5  C6  UNL     1      20.743  -0.577  53.481  1.00  0.00     0.049 A 
HETATM    6  C7  UNL     1      19.555  -0.351  52.841  1.00  0.00     0.067 A 
HETATM    7  N1  UNL     1      21.089  -1.182  54.712  1.00  0.00    -0.322 N 
HETATM    8  C8  UNL     1      22.482  -1.185  54.957  1.00  0.00     0.257 A 
HETATM    9  O2  UNL     1      23.042  -1.674  55.999  1.00  0.00    -0.267 OA
HETATM   10  C9  UNL     1      23.101  -0.528  53.790  1.00  0.00     0.044 A 
HETATM   11  C10 UNL     1      24.383  -0.350  53.663  1.00  0.00     0.018 C 
HETATM   12  H7  UNL     1      20.399  -1.597  55.397  1.00  0.00     0.169 HD
ENDROOT
BRANCH  11  13
HETATM   13  C11 UNL     1      25.237   0.244  52.658  1.00  0.00    -0.003 C 
HETATM   14  C12 UNL     1      25.242   1.570  52.414  1.00  0.00    -0.022 C 
BRANCH  14  15
HETATM   15  C13 UNL     1      24.535   2.775  52.938  1.00  0.00     0.063 C 
BRANCH  15  16
HETATM   16  C14 UNL     1      24.092   3.695  51.855  1.00  0.00    -0.054 C 
HETATM   17  C15 UNL     1      23.756   4.944  52.136  1.00  0.00     0.005 C 
HETATM   18  C16 UNL     1      23.324   5.794  50.986  1.00  0.00     0.057 C 
HETATM   19  C17 UNL     1      22.287   5.038  50.227  1.00  0.00     0.006 C 
HETATM   20  C18 UNL     1      22.652   3.621  49.930  1.00  0.00     0.005 C 
HETATM   21  C19 UNL     1      24.024   3.221  50.450  1.00  0.00     0.036 C 
BRANCH  17  22
HETATM   22  N2  UNL     1      23.793   5.482  53.456  1.00  0.00    -0.402 N 
HETATM   23  H13 UNL     1      22.850   5.248  53.889  1.00  0.00     0.156 HD
HETATM   24  H14 UNL     1      24.285   5.995  54.221  1.00  0.00     0.156 HD
ENDBRANCH  17  22
ENDBRANCH  15  16
ENDBRANCH  14  15
ENDBRANCH  11  13
BRANCH   1  25
HETATM   25  O1  UNL     1      18.334   0.518  50.950  1.00  0.00    -0.356 OA
HETATM   26  C1  UNL     1      17.219  -0.305  51.109  1.00  0.00     0.210 C 
ENDBRANCH   1  25
TORSDOF 5
ENDMDL
MODEL 5
REMARK VINA RESULT:      -8.6      3.236      5.275
REMARK  5 active torsions:
REMARK  status: ('A' for Active; 'I' for Inactive)
REMARK    1  A    between atoms: O1_2  and  C2_3 
REMARK    2  A    between atoms: C10_13  and  C11_14 
REMARK    3  A    between atoms: C12_15  and  C13_16 
REMARK    4  A    between atoms: C13_16  and  C14_17 
REMARK    5  A    between atoms: C15_18  and  N2_19 
ROOT
HETATM    1  C2  UNL     1      25.088   3.697  50.010  1.00  0.00     0.070 A 
HETATM    2  C3  UNL     1      25.618   3.198  51.180  1.00  0.00     0.038 A 
HETATM    3  C4  UNL     1      24.923   2.237  51.862  1.00  0.00     0.017 A 
HETATM    4  C5  UNL     1      23.711   1.721  51.462  1.00  0.00     0.006 A 
HETATM    5  C6  UNL     1      23.228   2.251  50.293  1.00  0.00     0.049 A 
HETATM    6  C7  UNL     1      23.892   3.213  49.581  1.00  0.00     0.067 A 
HETATM    7  N1  UNL     1      22.002   1.571  50.104  1.00  0.00    -0.322 N 
HETATM    8  C8  UNL     1      21.722   0.637  51.130  1.00  0.00     0.257 A 
HETATM    9  O2  UNL     1      20.678  -0.100  51.186  1.00  0.00    -0.267 OA
HETATM   10  C9  UNL     1      22.859   0.711  52.068  1.00  0.00     0.044 A 
HETATM   11  C10 UNL     1      22.950  -0.013  53.144  1.00  0.00     0.018 C 
HETATM   12  H7  UNL     1      21.343   1.724  49.292  1.00  0.00     0.169 HD
ENDROOT
BRANCH  11  13
HETATM   13  C11 UNL     1      23.920  -0.143  54.209  1.00  0.00    -0.003 C 
HETATM   14  C12 UNL     1      25.165  -0.611  53.992  1.00  0.00    -0.022 C 
BRANCH  14  15
HETATM   15  C13 UNL     1      25.953  -1.107  52.825  1.00  0.00     0.063 C 
BRANCH  15  16
HETATM   16  C14 UNL     1      27.396  -0.753  52.917  1.00  0.00    -0.054 C 
HETATM   17  C15 UNL     1      28.312  -1.704  53.006  1.00  0.00     0.005 C 
HETATM   18  C16 UNL     1      29.733  -1.255  53.094  1.00  0.00     0.057 C 
HETATM   19  C17 UNL     1      29.819  -0.222  54.166  1.00  0.00     0.006 C 
HETATM   20  C18 UNL     1      28.771   0.839  54.083  1.00  0.00     0.005 C 
HETATM   21  C19 UNL     1      27.820   0.670  52.909  1.00  0.00     0.036 C 
BRANCH  17  22
HETATM   22  N2  UNL     1      27.993  -3.094  53.020  1.00  0.00    -0.402 N 
HETATM   23  H13 UNL     1      28.566  -3.513  53.811  1.00  0.00     0.156 HD
HETATM   24  H14 UNL     1      27.473  -3.916  52.641  1.00  0.00     0.156 HD
ENDBRANCH  17  22
ENDBRANCH  15  16
ENDBRANCH  14  15
ENDBRANCH  11  13
BRANCH   1  25
HETATM   25  O1  UNL     1      25.795   4.674  49.317  1.00  0.00    -0.356 OA
HETATM   26  C1  UNL     1      27.139   4.501  48.987  1.00  0.00     0.210 C 
ENDBRANCH   1  25
TORSDOF 5
ENDMDL
MODEL 6
REMARK VINA RESULT:      -8.2      2.606      3.571
REMARK  5 active torsions:
REMARK  status: ('A' for Active; 'I' for Inactive)
REMARK    1  A    between atoms: O1_2  and  C2_3 
REMARK    2  A    between atoms: C10_13  and  C11_14 
REMARK    3  A    between atoms: C12_15  and  C13_16 
REMARK    4  A    between atoms: C13_16  and  C14_17 
REMARK    5  A    between atoms: C15_18  and  N2_19 
ROOT
HETATM    1  C2  UNL     1      21.432   0.067  53.101  1.00  0.00     0.070 A 
HETATM    2  C3  UNL     1      22.685  -0.161  52.576  1.00  0.00     0.038 A 
HETATM    3  C4  UNL     1      23.386   0.896  52.062  1.00  0.00     0.017 A 
HETATM    4  C5  UNL     1      22.926   2.193  52.026  1.00  0.00     0.006 A 
HETATM    5  C6  UNL     1      21.674   2.364  52.560  1.00  0.00     0.049 A 
HETATM    6  C7  UNL     1      20.941   1.334  53.084  1.00  0.00     0.067 A 
HETATM    7  N1  UNL     1      21.438   3.750  52.407  1.00  0.00    -0.322 N 
HETATM    8  C8  UNL     1      22.514   4.432  51.792  1.00  0.00     0.257 A 
HETATM    9  O2  UNL     1      22.541   5.688  51.544  1.00  0.00    -0.267 OA
HETATM   10  C9  UNL     1      23.541   3.409  51.520  1.00  0.00     0.044 A 
HETATM   11  C10 UNL     1      24.683   3.669  50.955  1.00  0.00     0.018 C 
HETATM   12  H7  UNL     1      20.559   4.252  52.710  1.00  0.00     0.169 HD
ENDROOT
BRANCH  11  13
HETATM   13  C11 UNL     1      25.839   2.886  50.579  1.00  0.00    -0.003 C 
HETATM   14  C12 UNL     1      26.664   2.339  51.494  1.00  0.00    -0.022 C 
BRANCH  14  15
HETATM   15  C13 UNL     1      26.759   2.293  52.983  1.00  0.00     0.063 C 
BRANCH  15  16
HETATM   16  C14 UNL     1      27.389   1.039  53.478  1.00  0.00    -0.054 C 
HETATM   17  C15 UNL     1      28.649   1.039  53.882  1.00  0.00     0.005 C 
HETATM   18  C16 UNL     1      29.196  -0.264  54.362  1.00  0.00     0.057 C 
HETATM   19  C17 UNL     1      28.886  -1.295  53.330  1.00  0.00     0.006 C 
HETATM   20  C18 UNL     1      27.471  -1.282  52.853  1.00  0.00     0.005 C 
HETATM   21  C19 UNL     1      26.609  -0.224  53.523  1.00  0.00     0.036 C 
BRANCH  17  22
HETATM   22  N2  UNL     1      29.469   2.206  53.873  1.00  0.00    -0.402 N 
HETATM   23  H13 UNL     1      30.207   2.046  54.621  1.00  0.00     0.156 HD
HETATM   24  H14 UNL     1      29.713   3.149  53.496  1.00  0.00     0.156 HD
ENDBRANCH  17  22
ENDBRANCH  15  16
ENDBRANCH  14  15
ENDBRANCH  11  13
BRANCH   1  25
HETATM   25  O1  UNL     1      20.720  -1.007  53.624  1.00  0.00    -0.356 OA
HETATM   26  C1  UNL     1      19.334  -1.093  53.490  1.00  0.00     0.210 C 
ENDBRANCH   1  25
TORSDOF 5
ENDMDL
MODEL 7
REMARK VINA RESULT:      -8.0      3.877      6.403
REMARK  5 active torsions:
REMARK  status: ('A' for Active; 'I' for Inactive)
REMARK    1  A    between atoms: O1_2  and  C2_3 
REMARK    2  A    between atoms: C10_13  and  C11_14 
REMARK    3  A    between atoms: C12_15  and  C13_16 
REMARK    4  A    between atoms: C13_16  and  C14_17 
REMARK    5  A    between atoms: C15_18  and  N2_19 
ROOT
HETATM    1  C2  UNL     1      22.641   0.723  52.587  1.00  0.00     0.070 A 
HETATM    2  C3  UNL     1      22.692   1.412  51.396  1.00  0.00     0.038 A 
HETATM    3  C4  UNL     1      23.877   1.978  51.012  1.00  0.00     0.017 A 
HETATM    4  C5  UNL     1      25.044   1.913  51.740  1.00  0.00     0.006 A 
HETATM    5  C6  UNL     1      24.938   1.217  52.918  1.00  0.00     0.049 A 
HETATM    6  C7  UNL     1      23.772   0.635  53.336  1.00  0.00     0.067 A 
HETATM    7  N1  UNL     1      26.241   1.293  53.463  1.00  0.00    -0.322 N 
HETATM    8  C8  UNL     1      27.142   2.020  52.649  1.00  0.00     0.257 A 
HETATM    9  O2  UNL     1      28.374   2.229  52.925  1.00  0.00    -0.267 OA
HETATM   10  C9  UNL     1      26.366   2.455  51.472  1.00  0.00     0.044 A 
HETATM   11  C10 UNL     1      26.869   3.154  50.499  1.00  0.00     0.018 C 
HETATM   12  H7  UNL     1      26.539   0.863  54.381  1.00  0.00     0.169 HD
ENDROOT
BRANCH  11  13
HETATM   13  C11 UNL     1      26.356   3.701  49.262  1.00  0.00    -0.003 C 
HETATM   14  C12 UNL     1      25.613   4.825  49.228  1.00  0.00    -0.022 C 
BRANCH  14  15
HETATM   15  C13 UNL     1      25.087   5.811  50.218  1.00  0.00     0.063 C 
BRANCH  15  16
HETATM   16  C14 UNL     1      23.608   5.742  50.364  1.00  0.00    -0.054 C 
HETATM   17  C15 UNL     1      23.064   5.517  51.550  1.00  0.00     0.005 C 
HETATM   18  C16 UNL     1      21.572   5.464  51.600  1.00  0.00     0.057 C 
HETATM   19  C17 UNL     1      21.114   4.531  50.532  1.00  0.00     0.006 C 
HETATM   20  C18 UNL     1      21.744   4.764  49.198  1.00  0.00     0.005 C 
HETATM   21  C19 UNL     1      22.728   5.923  49.181  1.00  0.00     0.036 C 
BRANCH  17  22
HETATM   22  N2  UNL     1      23.833   5.332  52.736  1.00  0.00    -0.402 N 
HETATM   23  H13 UNL     1      23.215   4.774  53.396  1.00  0.00     0.156 HD
HETATM   24  H14 UNL     1      24.708   5.470  53.289  1.00  0.00     0.156 HD
ENDBRANCH  17  22
ENDBRANCH  15  16
ENDBRANCH  14  15
ENDBRANCH  11  13
BRANCH   1  25
HETATM   25  O1  UNL     1      21.436   0.147  52.977  1.00  0.00    -0.356 OA
HETATM   26  C1  UNL     1      21.203  -0.221  54.302  1.00  0.00     0.210 C 
ENDBRANCH   1  25
TORSDOF 5
ENDMDL
MODEL 8
REMARK VINA RESULT:      -8.0      2.819      3.999
REMARK  5 active torsions:
REMARK  status: ('A' for Active; 'I' for Inactive)
REMARK    1  A    between atoms: O1_2  and  C2_3 
REMARK    2  A    between atoms: C10_13  and  C11_14 
REMARK    3  A    between atoms: C12_15  and  C13_16 
REMARK    4  A    between atoms: C13_16  and  C14_17 
REMARK    5  A    between atoms: C15_18  and  N2_19 
ROOT
HETATM    1  C2  UNL     1      20.950   0.053  52.593  1.00  0.00     0.070 A 
HETATM    2  C3  UNL     1      21.873   0.974  53.034  1.00  0.00     0.038 A 
HETATM    3  C4  UNL     1      22.523   1.750  52.113  1.00  0.00     0.017 A 
HETATM    4  C5  UNL     1      22.322   1.678  50.753  1.00  0.00     0.006 A 
HETATM    5  C6  UNL     1      21.393   0.745  50.367  1.00  0.00     0.049 A 
HETATM    6  C7  UNL     1      20.722  -0.049  51.256  1.00  0.00     0.067 A 
HETATM    7  N1  UNL     1      21.371   0.867  48.958  1.00  0.00    -0.322 N 
HETATM    8  C8  UNL     1      22.264   1.851  48.471  1.00  0.00     0.257 A 
HETATM    9  O2  UNL     1      22.427   2.148  47.237  1.00  0.00    -0.267 OA
HETATM   10  C9  UNL     1      22.926   2.422  49.660  1.00  0.00     0.044 A 
HETATM   11  C10 UNL     1      23.819   3.365  49.601  1.00  0.00     0.018 C 
HETATM   12  H7  UNL     1      20.762   0.296  48.310  1.00  0.00     0.169 HD
ENDROOT
BRANCH  11  13
HETATM   13  C11 UNL     1      24.607   4.089  50.575  1.00  0.00    -0.003 C 
HETATM   14  C12 UNL     1      25.776   3.615  51.047  1.00  0.00    -0.022 C 
BRANCH  14  15
HETATM   15  C13 UNL     1      26.621   2.401  50.842  1.00  0.00     0.063 C 
BRANCH  15  16
HETATM   16  C14 UNL     1      26.633   1.505  52.029  1.00  0.00    -0.054 C 
HETATM   17  C15 UNL     1      27.450   1.749  53.042  1.00  0.00     0.005 C 
HETATM   18  C16 UNL     1      27.393   0.796  54.190  1.00  0.00     0.057 C 
HETATM   19  C17 UNL     1      27.499  -0.586  53.639  1.00  0.00     0.006 C 
HETATM   20  C18 UNL     1      26.597  -0.858  52.481  1.00  0.00     0.005 C 
HETATM   21  C19 UNL     1      25.730   0.328  52.089  1.00  0.00     0.036 C 
BRANCH  17  22
HETATM   22  N2  UNL     1      28.349   2.855  53.067  1.00  0.00    -0.402 N 
HETATM   23  H13 UNL     1      28.491   3.133  52.051  1.00  0.00     0.156 HD
HETATM   24  H14 UNL     1      28.945   3.538  53.586  1.00  0.00     0.156 HD
ENDBRANCH  17  22
ENDBRANCH  15  16
ENDBRANCH  14  15
ENDBRANCH  11  13
BRANCH   1  25
HETATM   25  O1  UNL     1      20.289  -0.735  53.529  1.00  0.00    -0.356 OA
HETATM   26  C1  UNL     1      20.990  -1.577  54.392  1.00  0.00     0.210 C 
ENDBRANCH   1  25
TORSDOF 5
ENDMDL
MODEL 9
REMARK VINA RESULT:      -7.8      3.513      7.733
REMARK  5 active torsions:
REMARK  status: ('A' for Active; 'I' for Inactive)
REMARK    1  A    between atoms: O1_2  and  C2_3 
REMARK    2  A    between atoms: C10_13  and  C11_14 
REMARK    3  A    between atoms: C12_15  and  C13_16 
REMARK    4  A    between atoms: C13_16  and  C14_17 
REMARK    5  A    between atoms: C15_18  and  N2_19 
ROOT
HETATM    1  C2  UNL     1      27.477  -0.454  53.661  1.00  0.00     0.070 A 
HETATM    2  C3  UNL     1      26.415  -1.157  53.135  1.00  0.00     0.038 A 
HETATM    3  C4  UNL     1      25.264  -0.483  52.832  1.00  0.00     0.017 A 
HETATM    4  C5  UNL     1      25.080   0.869  53.016  1.00  0.00     0.006 A 
HETATM    5  C6  UNL     1      26.167   1.521  53.542  1.00  0.00     0.049 A 
HETATM    6  C7  UNL     1      27.336   0.884  53.858  1.00  0.00     0.067 A 
HETATM    7  N1  UNL     1      25.733   2.864  53.631  1.00  0.00    -0.322 N 
HETATM    8  C8  UNL     1      24.407   3.051  53.173  1.00  0.00     0.257 A 
HETATM    9  O2  UNL     1      23.789   4.172  53.152  1.00  0.00    -0.267 OA
HETATM   10  C9  UNL     1      23.933   1.720  52.748  1.00  0.00     0.044 A 
HETATM   11  C10 UNL     1      22.746   1.502  52.265  1.00  0.00     0.018 C 
HETATM   12  H7  UNL     1      26.316   3.666  53.998  1.00  0.00     0.169 HD
ENDROOT
BRANCH  11  13
HETATM   13  C11 UNL     1      22.037   0.336  51.784  1.00  0.00    -0.003 C 
HETATM   14  C12 UNL     1      21.075   0.418  50.844  1.00  0.00    -0.022 C 
BRANCH  14  15
HETATM   15  C13 UNL     1      20.430   1.497  50.040  1.00  0.00     0.063 C 
BRANCH  15  16
HETATM   16  C14 UNL     1      21.419   2.349  49.327  1.00  0.00    -0.054 C 
HETATM   17  C15 UNL     1      21.620   3.601  49.708  1.00  0.00     0.005 C 
HETATM   18  C16 UNL     1      22.632   4.380  48.934  1.00  0.00     0.057 C 
HETATM   19  C17 UNL     1      22.313   4.226  47.486  1.00  0.00     0.006 C 
HETATM   20  C18 UNL     1      22.062   2.818  47.057  1.00  0.00     0.005 C 
HETATM   21  C19 UNL     1      22.191   1.804  48.182  1.00  0.00     0.036 C 
BRANCH  17  22
HETATM   22  N2  UNL     1      20.923   4.204  50.796  1.00  0.00    -0.402 N 
HETATM   23  H13 UNL     1      21.664   4.429  51.524  1.00  0.00     0.156 HD
HETATM   24  H14 UNL     1      20.041   4.540  51.243  1.00  0.00     0.156 HD
ENDBRANCH  17  22
ENDBRANCH  15  16
ENDBRANCH  14  15
ENDBRANCH  11  13
BRANCH   1  25
HETATM   25  O1  UNL     1      28.647  -1.139  53.969  1.00  0.00    -0.356 OA
HETATM   26  C1  UNL     1      29.895  -0.659  53.571  1.00  0.00     0.210 C 
ENDBRANCH   1  25
TORSDOF 5
ENDMDL
