MODEL 1
REMARK VINA RESULT:      -7.5      0.000      0.000
REMARK  1 active torsions:
REMARK  status: ('A' for Active; 'I' for Inactive)
REMARK    1  A    between atoms: C4_5  and  N2_6 
ROOT
HETATM    1  C1  UNL     1      21.627  -1.399  53.929  1.00  0.00     0.177 C 
HETATM    2  N1  UNL     1      23.029  -1.227  54.252  1.00  0.00    -0.302 NA
HETATM    3  C2  UNL     1      23.566  -0.083  53.819  1.00  0.00     0.020 C 
HETATM    4  C3  UNL     1      23.269   1.185  53.078  1.00  0.00     0.094 C 
HETATM    5  C4  UNL     1      22.238   1.768  52.407  1.00  0.00    -0.003 C 
HETATM    6  C9  UNL     1      22.546   3.163  52.011  1.00  0.00     0.072 C 
HETATM    7  C10 UNL     1      23.786   3.720  52.709  1.00  0.00     0.128 C 
HETATM    8  N3  UNL     1      24.974   2.958  52.482  1.00  0.00    -0.359 N 
HETATM    9  C11 UNL     1      25.899   2.483  51.513  1.00  0.00     0.241 C 
HETATM   10  O2  UNL     1      25.063   3.168  50.867  1.00  0.00    -0.271 OA
HETATM   11  C12 UNL     1      27.091   1.612  51.829  1.00  0.00     0.277 C 
HETATM   12  O3  UNL     1      26.992   1.411  53.259  1.00  0.00    -0.353 OA
HETATM   13  C13 UNL     1      27.702   0.257  53.656  1.00  0.00     0.147 C 
HETATM   14  C14 UNL     1      27.044  -0.758  53.115  1.00  0.00    -0.006 C 
HETATM   15  C15 UNL     1      25.779  -0.518  52.854  1.00  0.00    -0.007 C 
HETATM   16  C16 UNL     1      25.054  -0.143  54.084  1.00  0.00     0.083 C 
HETATM   17  H17 UNL     1      25.345   2.605  53.416  1.00  0.00     0.162 HD
ENDROOT
BRANCH   5  18
HETATM   18  N2  UNL     1      20.849   1.683  51.928  1.00  0.00    -0.383 N 
HETATM   19  C5  UNL     1      19.861   2.674  52.309  1.00  0.00     0.148 C 
HETATM   20  C6  UNL     1      18.725   2.502  51.296  1.00  0.00     0.187 C 
HETATM   21  O1  UNL     1      18.188   1.240  51.306  1.00  0.00    -0.388 OA
HETATM   22  C7  UNL     1      19.074   0.206  51.459  1.00  0.00     0.187 C 
HETATM   23  C8  UNL     1      20.485   0.601  51.073  1.00  0.00     0.148 C 
ENDBRANCH   5  18
TORSDOF 1
ENDMDL
MODEL 2
REMARK VINA RESULT:      -7.4      1.889      5.927
REMARK  1 active torsions:
REMARK  status: ('A' for Active; 'I' for Inactive)
REMARK    1  A    between atoms: C4_5  and  N2_6 
ROOT
HETATM    1  C1  UNL     1      22.783  -0.893  53.428  1.00  0.00     0.177 C 
HETATM    2  N1  UNL     1      21.825  -0.089  52.694  1.00  0.00    -0.302 NA
HETATM    3  C2  UNL     1      22.356   0.936  52.021  1.00  0.00     0.020 C 
HETATM    4  C3  UNL     1      23.644   1.633  51.702  1.00  0.00     0.094 C 
HETATM    5  C4  UNL     1      24.963   1.558  52.027  1.00  0.00    -0.003 C 
HETATM    6  C9  UNL     1      25.791   2.485  51.219  1.00  0.00     0.072 C 
HETATM    7  C10 UNL     1      25.043   3.059  50.018  1.00  0.00     0.128 C 
HETATM    8  N3  UNL     1      23.850   3.769  50.359  1.00  0.00    -0.359 N 
HETATM    9  C11 UNL     1      23.300   4.876  51.061  1.00  0.00     0.241 C 
HETATM   10  O2  UNL     1      24.544   4.952  51.242  1.00  0.00    -0.271 OA
HETATM   11  C12 UNL     1      21.826   5.199  51.123  1.00  0.00     0.277 C 
HETATM   12  O3  UNL     1      21.215   4.132  50.358  1.00  0.00    -0.353 OA
HETATM   13  C13 UNL     1      19.855   3.979  50.705  1.00  0.00     0.147 C 
HETATM   14  C14 UNL     1      19.862   3.549  51.958  1.00  0.00    -0.006 C 
HETATM   15  C15 UNL     1      20.964   2.934  52.323  1.00  0.00    -0.007 C 
HETATM   16  C16 UNL     1      21.217   1.759  51.464  1.00  0.00     0.083 C 
HETATM   17  H17 UNL     1      23.017   3.297  49.891  1.00  0.00     0.162 HD
ENDROOT
BRANCH   5  18
HETATM   18  N2  UNL     1      26.026   0.893  52.797  1.00  0.00    -0.383 N 
HETATM   19  C5  UNL     1      26.711  -0.274  52.279  1.00  0.00     0.148 C 
HETATM   20  C6  UNL     1      27.986  -0.385  53.121  1.00  0.00     0.187 C 
HETATM   21  O1  UNL     1      27.730  -0.518  54.462  1.00  0.00    -0.388 OA
HETATM   22  C7  UNL     1      26.697   0.232  54.957  1.00  0.00     0.187 C 
HETATM   23  C8  UNL     1      26.379   1.422  54.075  1.00  0.00     0.148 C 
ENDBRANCH   5  18
TORSDOF 1
ENDMDL
MODEL 3
REMARK VINA RESULT:      -7.4      2.401      6.550
REMARK  1 active torsions:
REMARK  status: ('A' for Active; 'I' for Inactive)
REMARK    1  A    between atoms: C4_5  and  N2_6 
ROOT
HETATM    1  C1  UNL     1      26.786   3.240  50.316  1.00  0.00     0.177 C 
HETATM    2  N1  UNL     1      25.545   3.669  49.703  1.00  0.00    -0.302 NA
HETATM    3  C2  UNL     1      24.444   3.119  50.225  1.00  0.00     0.020 C 
HETATM    4  C3  UNL     1      23.951   2.165  51.270  1.00  0.00     0.094 C 
HETATM    5  C4  UNL     1      24.452   1.315  52.206  1.00  0.00    -0.003 C 
HETATM    6  C9  UNL     1      23.390   0.740  53.067  1.00  0.00     0.072 C 
HETATM    7  C10 UNL     1      22.052   1.463  52.922  1.00  0.00     0.128 C 
HETATM    8  N3  UNL     1      21.537   1.474  51.588  1.00  0.00    -0.359 N 
HETATM    9  C11 UNL     1      21.076   0.686  50.499  1.00  0.00     0.241 C 
HETATM   10  O2  UNL     1      21.359  -0.137  51.409  1.00  0.00    -0.271 OA
HETATM   11  C12 UNL     1      20.616   1.248  49.176  1.00  0.00     0.277 C 
HETATM   12  O3  UNL     1      20.798   2.676  49.334  1.00  0.00    -0.353 OA
HETATM   13  C13 UNL     1      20.894   3.314  48.078  1.00  0.00     0.147 C 
HETATM   14  C14 UNL     1      22.027   2.874  47.551  1.00  0.00    -0.006 C 
HETATM   15  C15 UNL     1      22.915   2.456  48.424  1.00  0.00    -0.007 C 
HETATM   16  C16 UNL     1      23.270   3.536  49.367  1.00  0.00     0.083 C 
HETATM   17  H17 UNL     1      21.433   2.483  51.263  1.00  0.00     0.162 HD
ENDROOT
BRANCH   5  18
HETATM   18  N2  UNL     1      25.633   0.720  52.853  1.00  0.00    -0.383 N 
HETATM   19  C5  UNL     1      26.260  -0.473  52.320  1.00  0.00     0.148 C 
HETATM   20  C6  UNL     1      27.649  -0.507  52.966  1.00  0.00     0.187 C 
HETATM   21  O1  UNL     1      27.598  -0.545  54.337  1.00  0.00    -0.388 OA
HETATM   22  C7  UNL     1      26.633   0.226  54.928  1.00  0.00     0.187 C 
HETATM   23  C8  UNL     1      26.160   1.344  54.023  1.00  0.00     0.148 C 
ENDBRANCH   5  18
TORSDOF 1
ENDMDL
MODEL 4
REMARK VINA RESULT:      -7.0      2.471      2.857
REMARK  1 active torsions:
REMARK  status: ('A' for Active; 'I' for Inactive)
REMARK    1  A    between atoms: C4_5  and  N2_6 
ROOT
HETATM    1  C1  UNL     1      20.911   0.317  51.423  1.00  0.00     0.177 C 
HETATM    2  N1  UNL     1      21.885   0.252  52.494  1.00  0.00    -0.302 NA
HETATM    3  C2  UNL     1      22.946   1.048  52.333  1.00  0.00     0.020 C 
HETATM    4  C3  UNL     1      23.572   2.054  51.415  1.00  0.00     0.094 C 
HETATM    5  C4  UNL     1      23.344   2.620  50.199  1.00  0.00    -0.003 C 
HETATM    6  C9  UNL     1      24.302   3.711  49.901  1.00  0.00     0.072 C 
HETATM    7  C10 UNL     1      25.097   4.156  51.127  1.00  0.00     0.128 C 
HETATM    8  N3  UNL     1      25.849   3.109  51.745  1.00  0.00    -0.359 N 
HETATM    9  C11 UNL     1      26.890   2.155  51.584  1.00  0.00     0.241 C 
HETATM   10  O2  UNL     1      26.837   2.778  50.490  1.00  0.00    -0.271 OA
HETATM   11  C12 UNL     1      27.321   1.176  52.649  1.00  0.00     0.277 C 
HETATM   12  O3  UNL     1      26.425   1.460  53.750  1.00  0.00    -0.353 OA
HETATM   13  C13 UNL     1      26.339   0.356  54.626  1.00  0.00     0.147 C 
HETATM   14  C14 UNL     1      25.740  -0.597  53.927  1.00  0.00    -0.006 C 
HETATM   15  C15 UNL     1      24.991  -0.165  52.937  1.00  0.00    -0.007 C 
HETATM   16  C16 UNL     1      23.930   0.732  53.437  1.00  0.00     0.083 C 
HETATM   17  H17 UNL     1      25.517   2.989  52.751  1.00  0.00     0.162 HD
ENDROOT
BRANCH   5  18
HETATM   18  N2  UNL     1      22.493   2.713  49.002  1.00  0.00    -0.383 N 
HETATM   19  C5  UNL     1      22.513   3.889  48.155  1.00  0.00     0.148 C 
HETATM   20  C6  UNL     1      21.873   3.435  46.839  1.00  0.00     0.187 C 
HETATM   21  O1  UNL     1      20.594   2.966  47.003  1.00  0.00    -0.388 OA
HETATM   22  C7  UNL     1      20.365   2.212  48.123  1.00  0.00     0.187 C 
HETATM   23  C8  UNL     1      21.640   1.615  48.681  1.00  0.00     0.148 C 
ENDBRANCH   5  18
TORSDOF 1
ENDMDL
MODEL 5
REMARK VINA RESULT:      -7.0      2.293      4.057
REMARK  1 active torsions:
REMARK  status: ('A' for Active; 'I' for Inactive)
REMARK    1  A    between atoms: C4_5  and  N2_6 
ROOT
HETATM    1  C1  UNL     1      25.935   0.092  53.681  1.00  0.00     0.177 C 
HETATM    2  N1  UNL     1      26.389   1.250  52.936  1.00  0.00    -0.302 NA
HETATM    3  C2  UNL     1      25.411   2.027  52.462  1.00  0.00     0.020 C 
HETATM    4  C3  UNL     1      23.923   2.187  52.389  1.00  0.00     0.094 C 
HETATM    5  C4  UNL     1      22.797   1.521  52.765  1.00  0.00    -0.003 C 
HETATM    6  C9  UNL     1      21.570   2.316  52.521  1.00  0.00     0.072 C 
HETATM    7  C10 UNL     1      21.863   3.784  52.217  1.00  0.00     0.128 C 
HETATM    8  N3  UNL     1      22.712   3.986  51.085  1.00  0.00    -0.359 N 
HETATM    9  C11 UNL     1      22.868   3.804  49.684  1.00  0.00     0.241 C 
HETATM   10  O2  UNL     1      21.732   3.334  49.956  1.00  0.00    -0.271 OA
HETATM   11  C12 UNL     1      24.088   4.225  48.900  1.00  0.00     0.277 C 
HETATM   12  O3  UNL     1      24.963   4.781  49.912  1.00  0.00    -0.353 OA
HETATM   13  C13 UNL     1      26.306   4.772  49.476  1.00  0.00     0.147 C 
HETATM   14  C14 UNL     1      26.637   3.493  49.395  1.00  0.00    -0.006 C 
HETATM   15  C15 UNL     1      25.927   2.691  50.156  1.00  0.00    -0.007 C 
HETATM   16  C16 UNL     1      26.047   3.077  51.577  1.00  0.00     0.083 C 
HETATM   17  H17 UNL     1      23.593   4.499  51.397  1.00  0.00     0.162 HD
ENDROOT
BRANCH   5  18
HETATM   18  N2  UNL     1      22.197   0.342  53.408  1.00  0.00    -0.383 N 
HETATM   19  C5  UNL     1      20.819   0.353  53.860  1.00  0.00     0.148 C 
HETATM   20  C6  UNL     1      20.457  -1.124  54.043  1.00  0.00     0.187 C 
HETATM   21  O1  UNL     1      21.267  -1.764  54.946  1.00  0.00    -0.388 OA
HETATM   22  C7  UNL     1      22.595  -1.429  54.912  1.00  0.00     0.187 C 
HETATM   23  C8  UNL     1      22.998  -0.826  53.581  1.00  0.00     0.148 C 
ENDBRANCH   5  18
TORSDOF 1
ENDMDL
MODEL 6
REMARK VINA RESULT:      -6.9      2.384      4.136
REMARK  1 active torsions:
REMARK  status: ('A' for Active; 'I' for Inactive)
REMARK    1  A    between atoms: C4_5  and  N2_6 
ROOT
HETATM    1  C1  UNL     1      25.589   4.489  50.112  1.00  0.00     0.177 C 
HETATM    2  N1  UNL     1      26.227   3.251  50.512  1.00  0.00    -0.302 NA
HETATM    3  C2  UNL     1      25.397   2.334  51.019  1.00  0.00     0.020 C 
HETATM    4  C3  UNL     1      23.964   2.060  51.361  1.00  0.00     0.094 C 
HETATM    5  C4  UNL     1      22.764   2.701  51.357  1.00  0.00    -0.003 C 
HETATM    6  C9  UNL     1      21.642   1.791  51.689  1.00  0.00     0.072 C 
HETATM    7  C10 UNL     1      22.038   0.316  51.640  1.00  0.00     0.128 C 
HETATM    8  N3  UNL     1      23.115  -0.027  52.515  1.00  0.00    -0.359 N 
HETATM    9  C11 UNL     1      23.561  -0.091  53.863  1.00  0.00     0.241 C 
HETATM   10  O2  UNL     1      22.379   0.340  53.924  1.00  0.00    -0.271 OA
HETATM   11  C12 UNL     1      24.932  -0.559  54.286  1.00  0.00     0.277 C 
HETATM   12  O3  UNL     1      25.588  -0.860  53.030  1.00  0.00    -0.353 OA
HETATM   13  C13 UNL     1      26.991  -0.837  53.177  1.00  0.00     0.147 C 
HETATM   14  C14 UNL     1      27.293   0.428  53.433  1.00  0.00    -0.006 C 
HETATM   15  C15 UNL     1      26.413   1.302  53.000  1.00  0.00    -0.007 C 
HETATM   16  C16 UNL     1      26.239   1.189  51.538  1.00  0.00     0.083 C 
HETATM   17  H17 UNL     1      23.924  -0.411  51.938  1.00  0.00     0.162 HD
ENDROOT
BRANCH   5  18
HETATM   18  N2  UNL     1      22.005   3.933  51.088  1.00  0.00    -0.383 N 
HETATM   19  C5  UNL     1      21.045   4.001  50.003  1.00  0.00     0.148 C 
HETATM   20  C6  UNL     1      20.181   5.225  50.322  1.00  0.00     0.187 C 
HETATM   21  O1  UNL     1      20.910   6.384  50.410  1.00  0.00    -0.388 OA
HETATM   22  C7  UNL     1      22.134   6.285  51.018  1.00  0.00     0.187 C 
HETATM   23  C8  UNL     1      22.227   5.070  51.919  1.00  0.00     0.148 C 
ENDBRANCH   5  18
TORSDOF 1
ENDMDL
MODEL 7
REMARK VINA RESULT:      -6.8      1.191      1.536
REMARK  1 active torsions:
REMARK  status: ('A' for Active; 'I' for Inactive)
REMARK    1  A    between atoms: C4_5  and  N2_6 
ROOT
HETATM    1  C1  UNL     1      20.634  -0.542  53.079  1.00  0.00     0.177 C 
HETATM    2  N1  UNL     1      21.969  -0.637  53.635  1.00  0.00    -0.302 NA
HETATM    3  C2  UNL     1      22.757   0.411  53.379  1.00  0.00     0.020 C 
HETATM    4  C3  UNL     1      22.809   1.743  52.694  1.00  0.00     0.094 C 
HETATM    5  C4  UNL     1      22.023   2.529  51.911  1.00  0.00    -0.003 C 
HETATM    6  C9  UNL     1      22.624   3.863  51.673  1.00  0.00     0.072 C 
HETATM    7  C10 UNL     1      23.802   4.159  52.600  1.00  0.00     0.128 C 
HETATM    8  N3  UNL     1      24.866   3.208  52.513  1.00  0.00    -0.359 N 
HETATM    9  C11 UNL     1      25.850   2.617  51.673  1.00  0.00     0.241 C 
HETATM   10  O2  UNL     1      25.264   3.469  50.953  1.00  0.00    -0.271 OA
HETATM   11  C12 UNL     1      26.806   1.535  52.112  1.00  0.00     0.277 C 
HETATM   12  O3  UNL     1      26.431   1.292  53.490  1.00  0.00    -0.353 OA
HETATM   13  C13 UNL     1      26.857   0.014  53.910  1.00  0.00     0.147 C 
HETATM   14  C14 UNL     1      26.140  -0.843  53.198  1.00  0.00    -0.006 C 
HETATM   15  C15 UNL     1      24.998  -0.370  52.754  1.00  0.00    -0.007 C 
HETATM   16  C16 UNL     1      24.146   0.075  53.876  1.00  0.00     0.083 C 
HETATM   17  H17 UNL     1      25.006   2.753  53.466  1.00  0.00     0.162 HD
ENDROOT
BRANCH   5  18
HETATM   18  N2  UNL     1      20.742   2.714  51.210  1.00  0.00    -0.383 N 
HETATM   19  C5  UNL     1      20.665   2.676  49.763  1.00  0.00     0.148 C 
HETATM   20  C6  UNL     1      19.180   2.461  49.455  1.00  0.00     0.187 C 
HETATM   21  O1  UNL     1      18.381   3.452  49.966  1.00  0.00    -0.388 OA
HETATM   22  C7  UNL     1      18.718   3.922  51.208  1.00  0.00     0.187 C 
HETATM   23  C8  UNL     1      19.563   2.932  51.983  1.00  0.00     0.148 C 
ENDBRANCH   5  18
TORSDOF 1
ENDMDL
MODEL 8
REMARK VINA RESULT:      -6.5      2.565      4.152
REMARK  1 active torsions:
REMARK  status: ('A' for Active; 'I' for Inactive)
REMARK    1  A    between atoms: C4_5  and  N2_6 
ROOT
HETATM    1  C1  UNL     1      19.232   1.713  50.852  1.00  0.00     0.177 C 
HETATM    2  N1  UNL     1      19.667   1.094  52.088  1.00  0.00    -0.302 NA
HETATM    3  C2  UNL     1      20.967   1.241  52.358  1.00  0.00     0.020 C 
HETATM    4  C3  UNL     1      22.246   1.836  51.852  1.00  0.00     0.094 C 
HETATM    5  C4  UNL     1      22.707   2.511  50.764  1.00  0.00    -0.003 C 
HETATM    6  C9  UNL     1      24.105   2.971  50.943  1.00  0.00     0.072 C 
HETATM    7  C10 UNL     1      24.584   2.871  52.390  1.00  0.00     0.128 C 
HETATM    8  N3  UNL     1      24.515   1.552  52.937  1.00  0.00    -0.359 N 
HETATM    9  C11 UNL     1      24.974   0.211  52.834  1.00  0.00     0.241 C 
HETATM   10  O2  UNL     1      25.568   0.837  51.916  1.00  0.00    -0.271 OA
HETATM   11  C12 UNL     1      24.533  -0.913  53.740  1.00  0.00     0.277 C 
HETATM   12  O3  UNL     1      23.581  -0.276  54.627  1.00  0.00    -0.353 OA
HETATM   13  C13 UNL     1      22.714  -1.229  55.203  1.00  0.00     0.147 C 
HETATM   14  C14 UNL     1      21.992  -1.696  54.196  1.00  0.00    -0.006 C 
HETATM   15  C15 UNL     1      21.890  -0.883  53.169  1.00  0.00    -0.007 C 
HETATM   16  C16 UNL     1      21.282   0.399  53.575  1.00  0.00     0.083 C 
HETATM   17  H17 UNL     1      23.869   1.559  53.784  1.00  0.00     0.162 HD
ENDROOT
BRANCH   5  18
HETATM   18  N2  UNL     1      22.427   3.098  49.444  1.00  0.00    -0.383 N 
HETATM   19  C5  UNL     1      22.404   2.280  48.248  1.00  0.00     0.148 C 
HETATM   20  C6  UNL     1      21.665   3.128  47.208  1.00  0.00     0.187 C 
HETATM   21  O1  UNL     1      22.277   4.333  46.971  1.00  0.00    -0.388 OA
HETATM   22  C7  UNL     1      22.802   4.971  48.064  1.00  0.00     0.187 C 
HETATM   23  C8  UNL     1      22.172   4.499  49.359  1.00  0.00     0.148 C 
ENDBRANCH   5  18
TORSDOF 1
ENDMDL
MODEL 9
REMARK VINA RESULT:      -6.4      9.033     12.833
REMARK  1 active torsions:
REMARK  status: ('A' for Active; 'I' for Inactive)
REMARK    1  A    between atoms: C4_5  and  N2_6 
ROOT
HETATM    1  C1  UNL     1      32.809   8.284  44.181  1.00  0.00     0.177 C 
HETATM    2  N1  UNL     1      31.659   8.919  44.792  1.00  0.00    -0.302 NA
HETATM    3  C2  UNL     1      31.193   8.300  45.881  1.00  0.00     0.020 C 
HETATM    4  C3  UNL     1      31.405   7.125  46.786  1.00  0.00     0.094 C 
HETATM    5  C4  UNL     1      32.210   6.032  46.882  1.00  0.00    -0.003 C 
HETATM    6  C9  UNL     1      32.007   5.297  48.153  1.00  0.00     0.072 C 
HETATM    7  C10 UNL     1      31.201   6.093  49.178  1.00  0.00     0.128 C 
HETATM    8  N3  UNL     1      29.904   6.486  48.721  1.00  0.00    -0.359 N 
HETATM    9  C11 UNL     1      28.633   6.041  48.266  1.00  0.00     0.241 C 
HETATM   10  O2  UNL     1      29.284   4.991  48.514  1.00  0.00    -0.271 OA
HETATM   11  C12 UNL     1      27.508   6.958  47.852  1.00  0.00     0.277 C 
HETATM   12  O3  UNL     1      28.074   8.281  48.016  1.00  0.00    -0.353 OA
HETATM   13  C13 UNL     1      27.377   9.227  47.234  1.00  0.00     0.147 C 
HETATM   14  C14 UNL     1      27.630   8.894  45.977  1.00  0.00    -0.006 C 
HETATM   15  C15 UNL     1      28.742   8.216  45.801  1.00  0.00    -0.007 C 
HETATM   16  C16 UNL     1      29.906   8.986  46.284  1.00  0.00     0.083 C 
HETATM   17  H17 UNL     1      29.837   7.549  48.736  1.00  0.00     0.162 HD
ENDROOT
BRANCH   5  18
HETATM   18  N2  UNL     1      33.307   5.232  46.313  1.00  0.00    -0.383 N 
HETATM   19  C5  UNL     1      33.232   4.706  44.965  1.00  0.00     0.148 C 
HETATM   20  C6  UNL     1      34.677   4.345  44.606  1.00  0.00     0.187 C 
HETATM   21  O1  UNL     1      35.227   3.427  45.464  1.00  0.00    -0.388 OA
HETATM   22  C7  UNL     1      34.912   3.573  46.789  1.00  0.00     0.187 C 
HETATM   23  C8  UNL     1      34.459   4.981  47.117  1.00  0.00     0.148 C 
ENDBRANCH   5  18
TORSDOF 1
ENDMDL
