MODEL 1
REMARK VINA RESULT:      -7.8      0.000      0.000
REMARK  0 active torsions:
REMARK  status: ('A' for Active; 'I' for Inactive)
ROOT
HETATM    1  F1  UNL     1      25.194   3.276  49.048  1.00  0.00    -0.210 F 
HETATM    2  C1  UNL     1      25.249   3.100  50.424  1.00  0.00     0.099 C 
HETATM    3  C2  UNL     1      26.487   2.754  50.859  1.00  0.00     0.039 C 
HETATM    4  C3  UNL     1      27.402   2.398  51.929  1.00  0.00     0.019 C 
HETATM    5  C4  UNL     1      27.313   2.203  53.268  1.00  0.00     0.083 C 
HETATM    6  N1  UNL     1      26.047   2.322  54.062  1.00  0.00    -0.393 N 
HETATM    7  C5  UNL     1      25.016   2.089  53.222  1.00  0.00     0.186 C 
HETATM    8  C6  UNL     1      23.690   1.891  52.876  1.00  0.00     0.093 C 
HETATM    9  C7  UNL     1      23.124   2.555  51.808  1.00  0.00     0.043 C 
HETATM   10  C8  UNL     1      24.021   3.475  51.089  1.00  0.00     0.129 C 
HETATM   11  N2  UNL     1      21.773   2.401  51.406  1.00  0.00    -0.386 N 
HETATM   12  C9  UNL     1      20.656   2.144  52.288  1.00  0.00     0.161 C 
HETATM   13  C10 UNL     1      20.757   0.840  52.987  1.00  0.00    -0.005 A 
HETATM   14  C11 UNL     1      19.545   0.171  52.899  1.00  0.00     0.030 A 
HETATM   15  C12 UNL     1      19.451  -1.075  53.504  1.00  0.00     0.011 A 
HETATM   16 BR1  UNL     1      17.784  -2.009  53.398  1.00  0.00    -0.051 Br
HETATM   17  C13 UNL     1      20.564  -1.587  54.161  1.00  0.00     0.022 A 
HETATM   18  C14 UNL     1      21.756  -0.908  54.236  1.00  0.00     0.039 A 
HETATM   19  C15 UNL     1      21.865   0.336  53.638  1.00  0.00     0.083 A 
HETATM   20  O1  UNL     1      23.130   0.958  53.770  1.00  0.00    -0.311 OA
HETATM   21  H4  UNL     1      26.104   2.546  55.053  1.00  0.00     0.159 HD
HETATM   22  H9  UNL     1      21.766   2.519  50.349  1.00  0.00     0.159 HD
ENDROOT
TORSDOF 0
ENDMDL
MODEL 2
REMARK VINA RESULT:      -7.7      3.690      5.871
REMARK  0 active torsions:
REMARK  status: ('A' for Active; 'I' for Inactive)
ROOT
HETATM    1  F1  UNL     1      20.604   1.104  50.179  1.00  0.00    -0.210 F 
HETATM    2  C1  UNL     1      21.215   2.023  51.020  1.00  0.00     0.099 C 
HETATM    3  C2  UNL     1      21.105   3.299  50.570  1.00  0.00     0.039 C 
HETATM    4  C3  UNL     1      21.373   4.720  50.706  1.00  0.00     0.019 C 
HETATM    5  C4  UNL     1      22.051   5.509  51.576  1.00  0.00     0.083 C 
HETATM    6  N1  UNL     1      22.799   5.006  52.773  1.00  0.00    -0.393 N 
HETATM    7  C5  UNL     1      23.149   3.725  52.527  1.00  0.00     0.186 C 
HETATM    8  C6  UNL     1      23.778   2.518  52.779  1.00  0.00     0.093 C 
HETATM    9  C7  UNL     1      23.102   1.322  52.655  1.00  0.00     0.043 C 
HETATM   10  C8  UNL     1      21.690   1.433  52.251  1.00  0.00     0.129 C 
HETATM   11  N2  UNL     1      23.686   0.054  52.905  1.00  0.00    -0.386 N 
HETATM   12  C9  UNL     1      24.709  -0.224  53.889  1.00  0.00     0.161 C 
HETATM   13  C10 UNL     1      25.984   0.479  53.614  1.00  0.00    -0.005 A 
HETATM   14  C11 UNL     1      27.041  -0.410  53.736  1.00  0.00     0.030 A 
HETATM   15  C12 UNL     1      28.322   0.077  53.517  1.00  0.00     0.011 A 
HETATM   16 BR1  UNL     1      29.793  -1.137  53.687  1.00  0.00    -0.051 Br
HETATM   17  C13 UNL     1      28.483   1.417  53.187  1.00  0.00     0.022 A 
HETATM   18  C14 UNL     1      27.422   2.283  53.071  1.00  0.00     0.039 A 
HETATM   19  C15 UNL     1      26.139   1.813  53.287  1.00  0.00     0.083 A 
HETATM   20  O1  UNL     1      25.112   2.777  53.146  1.00  0.00    -0.311 OA
HETATM   21  H4  UNL     1      22.944   5.631  53.564  1.00  0.00     0.159 HD
HETATM   22  H9  UNL     1      23.214  -0.623  52.234  1.00  0.00     0.159 HD
ENDROOT
TORSDOF 0
ENDMDL
MODEL 3
REMARK VINA RESULT:      -7.7      3.714      6.412
REMARK  0 active torsions:
REMARK  status: ('A' for Active; 'I' for Inactive)
ROOT
HETATM    1  F1  UNL     1      18.515  -1.768  52.709  1.00  0.00    -0.210 F 
HETATM    2  C1  UNL     1      19.103  -0.513  52.784  1.00  0.00     0.099 C 
HETATM    3  C2  UNL     1      18.559   0.373  51.910  1.00  0.00     0.039 C 
HETATM    4  C3  UNL     1      18.502   1.698  51.318  1.00  0.00     0.019 C 
HETATM    5  C4  UNL     1      19.191   2.858  51.447  1.00  0.00     0.083 C 
HETATM    6  N1  UNL     1      20.355   3.057  52.370  1.00  0.00    -0.393 N 
HETATM    7  C5  UNL     1      20.918   1.848  52.583  1.00  0.00     0.186 C 
HETATM    8  C6  UNL     1      21.867   0.966  53.070  1.00  0.00     0.093 C 
HETATM    9  C7  UNL     1      21.496  -0.188  53.729  1.00  0.00     0.043 C 
HETATM   10  C8  UNL     1      20.045  -0.395  53.873  1.00  0.00     0.129 C 
HETATM   11  N2  UNL     1      22.418  -1.128  54.258  1.00  0.00    -0.386 N 
HETATM   12  C9  UNL     1      23.719  -0.815  54.807  1.00  0.00     0.161 C 
HETATM   13  C10 UNL     1      24.647  -0.238  53.806  1.00  0.00    -0.005 A 
HETATM   14  C11 UNL     1      25.877  -0.873  53.892  1.00  0.00     0.030 A 
HETATM   15  C12 UNL     1      26.879  -0.458  53.027  1.00  0.00     0.011 A 
HETATM   16 BR1  UNL     1      28.584  -1.320  53.137  1.00  0.00    -0.051 Br
HETATM   17  C13 UNL     1      26.606   0.563  52.125  1.00  0.00     0.022 A 
HETATM   18  C14 UNL     1      25.380   1.180  52.055  1.00  0.00     0.039 A 
HETATM   19  C15 UNL     1      24.370   0.778  52.912  1.00  0.00     0.083 A 
HETATM   20  O1  UNL     1      23.145   1.471  52.767  1.00  0.00    -0.311 OA
HETATM   21  H4  UNL     1      20.567   3.995  52.703  1.00  0.00     0.159 HD
HETATM   22  H9  UNL     1      21.949  -2.079  54.168  1.00  0.00     0.159 HD
ENDROOT
TORSDOF 0
ENDMDL
MODEL 4
REMARK VINA RESULT:      -7.6      8.529     10.689
REMARK  0 active torsions:
REMARK  status: ('A' for Active; 'I' for Inactive)
ROOT
HETATM    1  F1  UNL     1      33.810   6.138  43.891  1.00  0.00    -0.210 F 
HETATM    2  C1  UNL     1      33.627   5.657  45.181  1.00  0.00     0.099 C 
HETATM    3  C2  UNL     1      34.116   4.401  45.345  1.00  0.00     0.039 C 
HETATM    4  C3  UNL     1      34.356   3.231  46.172  1.00  0.00     0.019 C 
HETATM    5  C4  UNL     1      34.070   2.857  47.443  1.00  0.00     0.083 C 
HETATM    6  N1  UNL     1      33.316   3.698  48.428  1.00  0.00    -0.393 N 
HETATM    7  C5  UNL     1      32.533   4.545  47.725  1.00  0.00     0.186 C 
HETATM    8  C6  UNL     1      31.563   5.517  47.552  1.00  0.00     0.093 C 
HETATM    9  C7  UNL     1      31.781   6.606  46.736  1.00  0.00     0.043 C 
HETATM   10  C8  UNL     1      33.102   6.654  46.085  1.00  0.00     0.129 C 
HETATM   11  N2  UNL     1      30.832   7.638  46.521  1.00  0.00    -0.386 N 
HETATM   12  C9  UNL     1      29.875   8.118  47.494  1.00  0.00     0.161 C 
HETATM   13  C10 UNL     1      28.891   7.086  47.897  1.00  0.00    -0.005 A 
HETATM   14  C11 UNL     1      27.613   7.625  47.864  1.00  0.00     0.030 A 
HETATM   15  C12 UNL     1      26.556   6.798  48.217  1.00  0.00     0.011 A 
HETATM   16 BR1  UNL     1      24.786   7.528  48.182  1.00  0.00    -0.051 Br
HETATM   17  C13 UNL     1      26.824   5.484  48.582  1.00  0.00     0.022 A 
HETATM   18  C14 UNL     1      28.097   4.970  48.609  1.00  0.00     0.039 A 
HETATM   19  C15 UNL     1      29.163   5.781  48.260  1.00  0.00     0.083 A 
HETATM   20  O1  UNL     1      30.435   5.164  48.318  1.00  0.00    -0.311 OA
HETATM   21  H4  UNL     1      33.467   3.549  49.424  1.00  0.00     0.159 HD
HETATM   22  H9  UNL     1      30.982   7.971  45.522  1.00  0.00     0.159 HD
ENDROOT
TORSDOF 0
ENDMDL
MODEL 5
REMARK VINA RESULT:      -7.4      3.895      5.505
REMARK  0 active torsions:
REMARK  status: ('A' for Active; 'I' for Inactive)
ROOT
HETATM    1  F1  UNL     1      21.271   0.766  50.043  1.00  0.00    -0.210 F 
HETATM    2  C1  UNL     1      21.035   0.410  51.364  1.00  0.00     0.099 C 
HETATM    3  C2  UNL     1      22.167   0.047  52.019  1.00  0.00     0.039 C 
HETATM    4  C3  UNL     1      22.847  -0.421  53.214  1.00  0.00     0.019 C 
HETATM    5  C4  UNL     1      22.480  -0.796  54.464  1.00  0.00     0.083 C 
HETATM    6  N1  UNL     1      21.068  -0.824  54.963  1.00  0.00    -0.393 N 
HETATM    7  C5  UNL     1      20.259  -0.974  53.892  1.00  0.00     0.186 C 
HETATM    8  C6  UNL     1      19.056  -1.165  53.236  1.00  0.00     0.093 C 
HETATM    9  C7  UNL     1      18.697  -0.382  52.159  1.00  0.00     0.043 C 
HETATM   10  C8  UNL     1      19.672   0.654  51.779  1.00  0.00     0.129 C 
HETATM   11  N2  UNL     1      17.477  -0.522  51.449  1.00  0.00    -0.386 N 
HETATM   12  C9  UNL     1      16.212  -0.930  52.021  1.00  0.00     0.161 C 
HETATM   13  C10 UNL     1      16.236  -2.311  52.557  1.00  0.00    -0.005 A 
HETATM   14  C11 UNL     1      15.115  -3.000  52.119  1.00  0.00     0.030 A 
HETATM   15  C12 UNL     1      14.967  -4.317  52.529  1.00  0.00     0.011 A 
HETATM   16 BR1  UNL     1      13.422  -5.281  51.938  1.00  0.00    -0.051 Br
HETATM   17  C13 UNL     1      15.938  -4.879  53.349  1.00  0.00     0.022 A 
HETATM   18  C14 UNL     1      17.042  -4.179  53.772  1.00  0.00     0.039 A 
HETATM   19  C15 UNL     1      17.205  -2.864  53.373  1.00  0.00     0.083 A 
HETATM   20  O1  UNL     1      18.371  -2.226  53.860  1.00  0.00    -0.311 OA
HETATM   21  H4  UNL     1      20.894  -0.733  55.962  1.00  0.00     0.159 HD
HETATM   22  H9  UNL     1      17.693  -0.263  50.441  1.00  0.00     0.159 HD
ENDROOT
TORSDOF 0
ENDMDL
MODEL 6
REMARK VINA RESULT:      -7.4      3.735      4.511
REMARK  0 active torsions:
REMARK  status: ('A' for Active; 'I' for Inactive)
ROOT
HETATM    1  F1  UNL     1      28.663   2.866  53.529  1.00  0.00    -0.210 F 
HETATM    2  C1  UNL     1      27.661   1.907  53.478  1.00  0.00     0.099 C 
HETATM    3  C2  UNL     1      28.140   0.663  53.222  1.00  0.00     0.039 C 
HETATM    4  C3  UNL     1      27.929  -0.757  52.999  1.00  0.00     0.019 C 
HETATM    5  C4  UNL     1      26.860  -1.586  52.920  1.00  0.00     0.083 C 
HETATM    6  N1  UNL     1      25.433  -1.149  53.057  1.00  0.00    -0.393 N 
HETATM    7  C5  UNL     1      25.370   0.155  52.709  1.00  0.00     0.186 C 
HETATM    8  C6  UNL     1      24.745   1.357  52.428  1.00  0.00     0.093 C 
HETATM    9  C7  UNL     1      25.197   2.541  52.971  1.00  0.00     0.043 C 
HETATM   10  C8  UNL     1      26.366   2.423  53.860  1.00  0.00     0.129 C 
HETATM   11  N2  UNL     1      24.599   3.804  52.728  1.00  0.00    -0.386 N 
HETATM   12  C9  UNL     1      23.189   4.038  52.505  1.00  0.00     0.161 C 
HETATM   13  C10 UNL     1      22.681   3.389  51.274  1.00  0.00    -0.005 A 
HETATM   14  C11 UNL     1      21.919   4.294  50.551  1.00  0.00     0.030 A 
HETATM   15  C12 UNL     1      21.354   3.857  49.361  1.00  0.00     0.011 A 
HETATM   16 BR1  UNL     1      20.294   5.093  48.354  1.00  0.00    -0.051 Br
HETATM   17  C13 UNL     1      21.578   2.547  48.954  1.00  0.00     0.022 A 
HETATM   18  C14 UNL     1      22.336   1.665  49.684  1.00  0.00     0.039 A 
HETATM   19  C15 UNL     1      22.906   2.086  50.874  1.00  0.00     0.083 A 
HETATM   20  O1  UNL     1      23.668   1.107  51.556  1.00  0.00    -0.311 OA
HETATM   21  H4  UNL     1      24.737  -1.823  53.370  1.00  0.00     0.159 HD
HETATM   22  H9  UNL     1      25.391   4.513  52.753  1.00  0.00     0.159 HD
ENDROOT
TORSDOF 0
ENDMDL
MODEL 7
REMARK VINA RESULT:      -7.3      2.051      2.523
REMARK  0 active torsions:
REMARK  status: ('A' for Active; 'I' for Inactive)
ROOT
HETATM    1  F1  UNL     1      26.429   2.832  50.387  1.00  0.00    -0.210 F 
HETATM    2  C1  UNL     1      25.880   2.109  51.437  1.00  0.00     0.099 C 
HETATM    3  C2  UNL     1      26.516   0.929  51.649  1.00  0.00     0.039 C 
HETATM    4  C3  UNL     1      26.661  -0.322  52.373  1.00  0.00     0.019 C 
HETATM    5  C4  UNL     1      26.004  -0.952  53.377  1.00  0.00     0.083 C 
HETATM    6  N1  UNL     1      24.784  -0.417  54.063  1.00  0.00    -0.393 N 
HETATM    7  C5  UNL     1      24.166   0.420  53.201  1.00  0.00     0.186 C 
HETATM    8  C6  UNL     1      23.155   1.256  52.760  1.00  0.00     0.093 C 
HETATM    9  C7  UNL     1      23.438   2.493  52.219  1.00  0.00     0.043 C 
HETATM   10  C8  UNL     1      24.867   2.845  52.158  1.00  0.00     0.129 C 
HETATM   11  N2  UNL     1      22.449   3.399  51.755  1.00  0.00    -0.386 N 
HETATM   12  C9  UNL     1      21.123   3.556  52.312  1.00  0.00     0.161 C 
HETATM   13  C10 UNL     1      20.290   2.338  52.176  1.00  0.00    -0.005 A 
HETATM   14  C11 UNL     1      19.036   2.683  51.694  1.00  0.00     0.030 A 
HETATM   15  C12 UNL     1      18.114   1.664  51.507  1.00  0.00     0.011 A 
HETATM   16 BR1  UNL     1      16.377   2.125  50.847  1.00  0.00    -0.051 Br
HETATM   17  C13 UNL     1      18.486   0.359  51.806  1.00  0.00     0.022 A 
HETATM   18  C14 UNL     1      19.733   0.037  52.283  1.00  0.00     0.039 A 
HETATM   19  C15 UNL     1      20.665   1.042  52.476  1.00  0.00     0.083 A 
HETATM   20  O1  UNL     1      21.920   0.614  52.971  1.00  0.00    -0.311 OA
HETATM   21  H4  UNL     1      24.579  -0.716  55.015  1.00  0.00     0.159 HD
HETATM   22  H9  UNL     1      22.890   3.921  50.940  1.00  0.00     0.159 HD
ENDROOT
TORSDOF 0
ENDMDL
MODEL 8
REMARK VINA RESULT:      -7.3      3.941      6.048
REMARK  0 active torsions:
REMARK  status: ('A' for Active; 'I' for Inactive)
ROOT
HETATM    1  F1  UNL     1      24.899   8.748  50.564  1.00  0.00    -0.210 F 
HETATM    2  C1  UNL     1      24.058   7.717  50.168  1.00  0.00     0.099 C 
HETATM    3  C2  UNL     1      22.747   8.002  50.373  1.00  0.00     0.039 C 
HETATM    4  C3  UNL     1      21.344   7.632  50.312  1.00  0.00     0.019 C 
HETATM    5  C4  UNL     1      20.636   6.537  49.940  1.00  0.00     0.083 C 
HETATM    6  N1  UNL     1      21.244   5.262  49.441  1.00  0.00    -0.393 N 
HETATM    7  C5  UNL     1      22.497   5.184  49.939  1.00  0.00     0.186 C 
HETATM    8  C6  UNL     1      23.720   4.588  50.189  1.00  0.00     0.093 C 
HETATM    9  C7  UNL     1      24.901   5.271  49.987  1.00  0.00     0.043 C 
HETATM   10  C8  UNL     1      24.757   6.649  49.489  1.00  0.00     0.129 C 
HETATM   11  N2  UNL     1      26.186   4.716  50.218  1.00  0.00    -0.386 N 
HETATM   12  C9  UNL     1      26.550   3.328  50.034  1.00  0.00     0.161 C 
HETATM   13  C10 UNL     1      25.822   2.412  50.944  1.00  0.00    -0.005 A 
HETATM   14  C11 UNL     1      26.717   1.526  51.524  1.00  0.00     0.030 A 
HETATM   15  C12 UNL     1      26.210   0.584  52.409  1.00  0.00     0.011 A 
HETATM   16 BR1  UNL     1      27.431  -0.650  53.215  1.00  0.00    -0.051 Br
HETATM   17  C13 UNL     1      24.845   0.575  52.669  1.00  0.00     0.022 A 
HETATM   18  C14 UNL     1      23.975   1.462  52.084  1.00  0.00     0.039 A 
HETATM   19  C15 UNL     1      24.465   2.407  51.199  1.00  0.00     0.083 A 
HETATM   20  O1  UNL     1      23.493   3.275  50.646  1.00  0.00    -0.311 OA
HETATM   21  H4  UNL     1      20.693   4.655  48.836  1.00  0.00     0.159 HD
HETATM   22  H9  UNL     1      26.800   5.523  50.540  1.00  0.00     0.159 HD
ENDROOT
TORSDOF 0
ENDMDL
MODEL 9
REMARK VINA RESULT:      -7.2      3.854      5.841
REMARK  0 active torsions:
REMARK  status: ('A' for Active; 'I' for Inactive)
ROOT
HETATM    1  F1  UNL     1      22.925   7.145  50.960  1.00  0.00    -0.210 F 
HETATM    2  C1  UNL     1      22.591   5.842  50.619  1.00  0.00     0.099 C 
HETATM    3  C2  UNL     1      21.270   5.579  50.788  1.00  0.00     0.039 C 
HETATM    4  C3  UNL     1      20.140   4.668  50.732  1.00  0.00     0.019 C 
HETATM    5  C4  UNL     1      19.951   3.362  50.422  1.00  0.00     0.083 C 
HETATM    6  N1  UNL     1      21.043   2.419  50.014  1.00  0.00    -0.393 N 
HETATM    7  C5  UNL     1      22.199   2.885  50.533  1.00  0.00     0.186 C 
HETATM    8  C6  UNL     1      23.549   2.852  50.838  1.00  0.00     0.093 C 
HETATM    9  C7  UNL     1      24.359   3.944  50.609  1.00  0.00     0.043 C 
HETATM   10  C8  UNL     1      23.688   5.116  50.020  1.00  0.00     0.129 C 
HETATM   11  N2  UNL     1      25.748   3.973  50.892  1.00  0.00    -0.386 N 
HETATM   12  C9  UNL     1      26.650   2.846  50.803  1.00  0.00     0.161 C 
HETATM   13  C10 UNL     1      26.321   1.763  51.759  1.00  0.00    -0.005 A 
HETATM   14  C11 UNL     1      27.475   1.350  52.408  1.00  0.00     0.030 A 
HETATM   15  C12 UNL     1      27.359   0.332  53.345  1.00  0.00     0.011 A 
HETATM   16 BR1  UNL     1      28.944  -0.254  54.245  1.00  0.00    -0.051 Br
HETATM   17  C13 UNL     1      26.106  -0.218  53.586  1.00  0.00     0.022 A 
HETATM   18  C14 UNL     1      24.975   0.206  52.933  1.00  0.00     0.039 A 
HETATM   19  C15 UNL     1      25.073   1.220  51.996  1.00  0.00     0.083 A 
HETATM   20  O1  UNL     1      23.856   1.587  51.375  1.00  0.00    -0.311 OA
HETATM   21  H4  UNL     1      20.809   1.610  49.442  1.00  0.00     0.159 HD
HETATM   22  H9  UNL     1      25.970   4.976  51.169  1.00  0.00     0.159 HD
ENDROOT
TORSDOF 0
ENDMDL
