MODEL 1
REMARK VINA RESULT:      -7.9      0.000      0.000
REMARK  2 active torsions:
REMARK  status: ('A' for Active; 'I' for Inactive)
REMARK    1  A    between atoms: O1_2  and  C2_3 
REMARK    2  A    between atoms: C13_18  and  O2_19 
ROOT
HETATM    1  C2  UNL     1      23.214   3.628  48.811  1.00  0.00     0.058 C 
HETATM    2  C3  UNL     1      24.562   3.485  49.026  1.00  0.00     0.007 C 
HETATM    3  C4  UNL     1      25.935   3.212  49.488  1.00  0.00     0.003 C 
HETATM    4  C5  UNL     1      26.606   2.626  50.501  1.00  0.00     0.053 C 
HETATM    5  C6  UNL     1      26.543   1.888  51.761  1.00  0.00     0.117 A 
HETATM    6  C7  UNL     1      27.337   2.119  52.954  1.00  0.00     0.039 A 
HETATM    7  C8  UNL     1      26.364   1.651  54.097  1.00  0.00    -0.013 A 
HETATM    8  N1  UNL     1      26.293   1.526  52.851  1.00  0.00     0.000 N 
HETATM    9  N2  UNL     1      25.368   2.468  52.431  1.00  0.00    -0.259 N 
HETATM   10  C9  UNL     1      24.231   3.380  52.428  1.00  0.00     0.188 A 
HETATM   11  N3  UNL     1      23.580   3.016  51.113  1.00  0.00    -0.226 NA
HETATM   12  C10 UNL     1      22.501   3.817  51.073  1.00  0.00     0.060 A 
HETATM   13  C11 UNL     1      22.041   4.823  52.061  1.00  0.00     0.081 A 
HETATM   14  S1  UNL     1      23.517   4.502  53.292  1.00  0.00    -0.060 SA
HETATM   15  C12 UNL     1      22.154   3.204  49.765  1.00  0.00     0.151 C 
HETATM   16  C13 UNL     1      21.682   1.862  49.707  1.00  0.00     0.056 C 
HETATM   17  C14 UNL     1      21.429   0.891  50.605  1.00  0.00     0.010 C 
HETATM   18  C15 UNL     1      21.533   0.785  52.048  1.00  0.00     0.056 C 
HETATM   19  C16 UNL     1      22.192  -0.382  52.638  1.00  0.00    -0.023 C 
HETATM   20  C17 UNL     1      23.188  -0.959  53.257  1.00  0.00    -0.007 C 
HETATM   21  C18 UNL     1      24.421  -0.301  53.675  1.00  0.00    -0.021 C 
HETATM   22  C19 UNL     1      25.165   0.799  53.752  1.00  0.00     0.027 A 
ENDROOT
BRANCH   1  23
HETATM   23  O1  UNL     1      22.625   4.217  47.667  1.00  0.00    -0.359 OA
HETATM   24  C1  UNL     1      22.701   5.600  47.442  1.00  0.00     0.209 C 
ENDBRANCH   1  23
BRANCH  16  25
HETATM   25  O2  UNL     1      21.384   1.371  48.436  1.00  0.00    -0.364 OA
HETATM   26  H12 UNL     1      21.301   1.945  47.617  1.00  0.00     0.217 HD
ENDBRANCH  16  25
TORSDOF 2
ENDMDL
MODEL 2
REMARK VINA RESULT:      -7.6      2.457      5.601
REMARK  2 active torsions:
REMARK  status: ('A' for Active; 'I' for Inactive)
REMARK    1  A    between atoms: O1_2  and  C2_3 
REMARK    2  A    between atoms: C13_18  and  O2_19 
ROOT
HETATM    1  C2  UNL     1      25.156   1.813  53.247  1.00  0.00     0.058 C 
HETATM    2  C3  UNL     1      24.199   0.838  53.375  1.00  0.00     0.007 C 
HETATM    3  C4  UNL     1      23.050  -0.083  53.307  1.00  0.00     0.003 C 
HETATM    4  C5  UNL     1      21.934  -0.320  52.587  1.00  0.00     0.053 C 
HETATM    5  C6  UNL     1      21.086   0.066  51.461  1.00  0.00     0.117 A 
HETATM    6  C7  UNL     1      19.638   0.158  51.444  1.00  0.00     0.039 A 
HETATM    7  C8  UNL     1      19.388   1.286  50.377  1.00  0.00    -0.013 A 
HETATM    8  N1  UNL     1      20.430   0.660  50.687  1.00  0.00     0.000 N 
HETATM    9  N2  UNL     1      21.180   1.534  51.456  1.00  0.00    -0.259 N 
HETATM   10  C9  UNL     1      21.735   2.768  51.997  1.00  0.00     0.188 A 
HETATM   11  N3  UNL     1      23.213   2.450  51.972  1.00  0.00    -0.226 NA
HETATM   12  C10 UNL     1      23.777   3.576  52.441  1.00  0.00     0.060 A 
HETATM   13  C11 UNL     1      23.132   4.836  52.886  1.00  0.00     0.081 A 
HETATM   14  S1  UNL     1      21.323   4.205  52.528  1.00  0.00    -0.060 SA
HETATM   15  C12 UNL     1      25.102   2.929  52.264  1.00  0.00     0.151 C 
HETATM   16  C13 UNL     1      25.623   2.712  50.957  1.00  0.00     0.056 C 
HETATM   17  C14 UNL     1      25.208   2.963  49.701  1.00  0.00     0.010 C 
HETATM   18  C15 UNL     1      24.024   3.571  49.122  1.00  0.00     0.056 C 
HETATM   19  C16 UNL     1      23.332   2.894  48.024  1.00  0.00    -0.023 C 
HETATM   20  C17 UNL     1      22.330   2.215  47.532  1.00  0.00    -0.007 C 
HETATM   21  C18 UNL     1      21.167   1.756  48.284  1.00  0.00    -0.021 C 
HETATM   22  C19 UNL     1      20.502   1.677  49.433  1.00  0.00     0.027 A 
ENDROOT
BRANCH   1  23
HETATM   23  O1  UNL     1      26.326   1.922  54.036  1.00  0.00    -0.359 OA
HETATM   24  C1  UNL     1      27.072   0.786  54.389  1.00  0.00     0.209 C 
ENDBRANCH   1  23
BRANCH  16  25
HETATM   25  O2  UNL     1      26.873   2.096  50.889  1.00  0.00    -0.364 OA
HETATM   26  H12 UNL     1      27.605   2.378  50.265  1.00  0.00     0.217 HD
ENDBRANCH  16  25
TORSDOF 2
ENDMDL
MODEL 3
REMARK VINA RESULT:      -7.3      7.317      9.715
REMARK  2 active torsions:
REMARK  status: ('A' for Active; 'I' for Inactive)
REMARK    1  A    between atoms: O1_2  and  C2_3 
REMARK    2  A    between atoms: C13_18  and  O2_19 
ROOT
HETATM    1  C2  UNL     1      27.181   6.241  48.584  1.00  0.00     0.058 C 
HETATM    2  C3  UNL     1      28.425   5.735  48.299  1.00  0.00     0.007 C 
HETATM    3  C4  UNL     1      29.825   5.448  47.935  1.00  0.00     0.003 C 
HETATM    4  C5  UNL     1      30.959   6.069  47.553  1.00  0.00     0.053 C 
HETATM    5  C6  UNL     1      31.635   7.328  47.246  1.00  0.00     0.117 A 
HETATM    6  C7  UNL     1      32.530   7.595  46.135  1.00  0.00     0.039 A 
HETATM    7  C8  UNL     1      32.291   9.128  45.876  1.00  0.00    -0.013 A 
HETATM    8  N1  UNL     1      31.925   8.383  46.817  1.00  0.00     0.000 N 
HETATM    9  N2  UNL     1      30.584   8.122  46.591  1.00  0.00    -0.259 N 
HETATM   10  C9  UNL     1      29.205   8.273  46.145  1.00  0.00     0.188 A 
HETATM   11  N3  UNL     1      28.457   7.913  47.408  1.00  0.00    -0.226 NA
HETATM   12  C10 UNL     1      27.168   8.063  47.056  1.00  0.00     0.060 A 
HETATM   13  C11 UNL     1      26.593   8.476  45.752  1.00  0.00     0.081 A 
HETATM   14  S1  UNL     1      28.328   8.679  44.887  1.00  0.00    -0.060 SA
HETATM   15  C12 UNL     1      26.794   7.669  48.437  1.00  0.00     0.151 C 
HETATM   16  C13 UNL     1      27.037   8.556  49.524  1.00  0.00     0.056 C 
HETATM   17  C14 UNL     1      27.563   9.788  49.663  1.00  0.00     0.010 C 
HETATM   18  C15 UNL     1      28.125  10.765  48.748  1.00  0.00     0.056 C 
HETATM   19  C16 UNL     1      29.406  11.397  49.070  1.00  0.00    -0.023 C 
HETATM   20  C17 UNL     1      30.688  11.571  48.887  1.00  0.00    -0.007 C 
HETATM   21  C18 UNL     1      31.509  10.863  47.911  1.00  0.00    -0.021 C 
HETATM   22  C19 UNL     1      31.613   9.965  46.936  1.00  0.00     0.027 A 
ENDROOT
BRANCH   1  23
HETATM   23  O1  UNL     1      26.074   5.484  49.038  1.00  0.00    -0.359 OA
HETATM   24  C1  UNL     1      26.240   4.184  49.540  1.00  0.00     0.209 C 
ENDBRANCH   1  23
BRANCH  16  25
HETATM   25  O2  UNL     1      26.655   8.100  50.786  1.00  0.00    -0.364 OA
HETATM   26  H12 UNL     1      27.016   7.268  51.216  1.00  0.00     0.217 HD
ENDBRANCH  16  25
TORSDOF 2
ENDMDL
MODEL 4
REMARK VINA RESULT:      -7.2      3.362      5.350
REMARK  2 active torsions:
REMARK  status: ('A' for Active; 'I' for Inactive)
REMARK    1  A    between atoms: O1_2  and  C2_3 
REMARK    2  A    between atoms: C13_18  and  O2_19 
ROOT
HETATM    1  C2  UNL     1      26.286   8.181  47.370  1.00  0.00     0.058 C 
HETATM    2  C3  UNL     1      27.124   7.182  47.799  1.00  0.00     0.007 C 
HETATM    3  C4  UNL     1      27.796   5.982  48.330  1.00  0.00     0.003 C 
HETATM    4  C5  UNL     1      27.522   4.772  48.859  1.00  0.00     0.053 C 
HETATM    5  C6  UNL     1      26.507   3.804  49.268  1.00  0.00     0.117 A 
HETATM    6  C7  UNL     1      26.486   3.015  50.486  1.00  0.00     0.039 A 
HETATM    7  C8  UNL     1      24.945   2.829  50.737  1.00  0.00    -0.013 A 
HETATM    8  N1  UNL     1      25.572   3.276  49.746  1.00  0.00     0.000 N 
HETATM    9  N2  UNL     1      25.429   4.652  49.800  1.00  0.00    -0.259 N 
HETATM   10  C9  UNL     1      24.876   5.972  50.074  1.00  0.00     0.188 A 
HETATM   11  N3  UNL     1      25.030   6.630  48.721  1.00  0.00    -0.226 NA
HETATM   12  C10 UNL     1      24.506   7.854  48.913  1.00  0.00     0.060 A 
HETATM   13  C11 UNL     1      23.917   8.441  50.142  1.00  0.00     0.081 A 
HETATM   14  S1  UNL     1      24.206   6.842  51.218  1.00  0.00    -0.060 SA
HETATM   15  C12 UNL     1      24.804   8.153  47.490  1.00  0.00     0.151 C 
HETATM   16  C13 UNL     1      24.048   7.531  46.456  1.00  0.00     0.056 C 
HETATM   17  C14 UNL     1      23.024   6.658  46.403  1.00  0.00     0.010 C 
HETATM   18  C15 UNL     1      22.233   5.954  47.395  1.00  0.00     0.056 C 
HETATM   19  C16 UNL     1      22.006   4.515  47.246  1.00  0.00    -0.023 C 
HETATM   20  C17 UNL     1      22.206   3.271  47.588  1.00  0.00    -0.007 C 
HETATM   21  C18 UNL     1      23.101   2.817  48.648  1.00  0.00    -0.021 C 
HETATM   22  C19 UNL     1      23.970   3.099  49.614  1.00  0.00     0.027 A 
ENDROOT
BRANCH   1  23
HETATM   23  O1  UNL     1      26.699   9.395  46.770  1.00  0.00    -0.359 OA
HETATM   24  C1  UNL     1      26.066  10.609  47.078  1.00  0.00     0.209 C 
ENDBRANCH   1  23
BRANCH  16  25
HETATM   25  O2  UNL     1      24.401   7.870  45.149  1.00  0.00    -0.364 OA
HETATM   26  H12 UNL     1      25.297   8.237  44.886  1.00  0.00     0.217 HD
ENDBRANCH  16  25
TORSDOF 2
ENDMDL
MODEL 5
REMARK VINA RESULT:      -7.1      3.003      5.303
REMARK  2 active torsions:
REMARK  status: ('A' for Active; 'I' for Inactive)
REMARK    1  A    between atoms: O1_2  and  C2_3 
REMARK    2  A    between atoms: C13_18  and  O2_19 
ROOT
HETATM    1  C2  UNL     1      22.150   5.322  50.704  1.00  0.00     0.058 C 
HETATM    2  C3  UNL     1      20.787   5.191  50.809  1.00  0.00     0.007 C 
HETATM    3  C4  UNL     1      19.378   4.791  50.971  1.00  0.00     0.003 C 
HETATM    4  C5  UNL     1      18.619   3.718  51.274  1.00  0.00     0.053 C 
HETATM    5  C6  UNL     1      18.569   2.304  51.642  1.00  0.00     0.117 A 
HETATM    6  C7  UNL     1      17.675   1.290  51.113  1.00  0.00     0.039 A 
HETATM    7  C8  UNL     1      18.543  -0.015  51.236  1.00  0.00    -0.013 A 
HETATM    8  N1  UNL     1      18.722   1.140  51.691  1.00  0.00     0.000 N 
HETATM    9  N2  UNL     1      19.684   1.719  50.881  1.00  0.00    -0.259 N 
HETATM   10  C9  UNL     1      20.822   1.873  49.984  1.00  0.00     0.188 A 
HETATM   11  N3  UNL     1      21.582   2.980  50.678  1.00  0.00    -0.226 NA
HETATM   12  C10 UNL     1      22.665   3.144  49.898  1.00  0.00     0.060 A 
HETATM   13  C11 UNL     1      23.044   2.431  48.654  1.00  0.00     0.081 A 
HETATM   14  S1  UNL     1      21.465   1.289  48.657  1.00  0.00    -0.060 SA
HETATM   15  C12 UNL     1      23.121   4.203  50.835  1.00  0.00     0.151 C 
HETATM   16  C13 UNL     1      23.589   3.855  52.134  1.00  0.00     0.056 C 
HETATM   17  C14 UNL     1      23.758   2.710  52.822  1.00  0.00     0.010 C 
HETATM   18  C15 UNL     1      23.529   1.306  52.535  1.00  0.00     0.056 C 
HETATM   19  C16 UNL     1      22.815   0.480  53.511  1.00  0.00    -0.023 C 
HETATM   20  C17 UNL     1      21.767  -0.186  53.917  1.00  0.00    -0.007 C 
HETATM   21  C18 UNL     1      20.505  -0.303  53.193  1.00  0.00    -0.021 C 
HETATM   22  C19 UNL     1      19.764  -0.017  52.128  1.00  0.00     0.027 A 
ENDROOT
BRANCH   1  23
HETATM   23  O1  UNL     1      22.838   6.530  50.436  1.00  0.00    -0.359 OA
HETATM   24  C1  UNL     1      22.164   7.760  50.412  1.00  0.00     0.209 C 
ENDBRANCH   1  23
BRANCH  16  25
HETATM   25  O2  UNL     1      23.993   4.916  52.945  1.00  0.00    -0.364 OA
HETATM   26  H12 UNL     1      24.696   5.583  52.688  1.00  0.00     0.217 HD
ENDBRANCH  16  25
TORSDOF 2
ENDMDL
MODEL 6
REMARK VINA RESULT:      -7.0      2.432      4.409
REMARK  2 active torsions:
REMARK  status: ('A' for Active; 'I' for Inactive)
REMARK    1  A    between atoms: O1_2  and  C2_3 
REMARK    2  A    between atoms: C13_18  and  O2_19 
ROOT
HETATM    1  C2  UNL     1      22.836   5.522  49.680  1.00  0.00     0.058 C 
HETATM    2  C3  UNL     1      21.798   5.275  50.544  1.00  0.00     0.007 C 
HETATM    3  C4  UNL     1      20.798   4.765  51.500  1.00  0.00     0.003 C 
HETATM    4  C5  UNL     1      20.519   3.678  52.248  1.00  0.00     0.053 C 
HETATM    5  C6  UNL     1      20.911   2.335  52.671  1.00  0.00     0.117 A 
HETATM    6  C7  UNL     1      20.054   1.171  52.806  1.00  0.00     0.039 A 
HETATM    7  C8  UNL     1      21.046  -0.010  52.502  1.00  0.00    -0.013 A 
HETATM    8  N1  UNL     1      21.254   1.211  52.701  1.00  0.00     0.000 N 
HETATM    9  N2  UNL     1      21.502   1.758  51.453  1.00  0.00    -0.259 N 
HETATM   10  C9  UNL     1      21.915   1.891  50.062  1.00  0.00     0.188 A 
HETATM   11  N3  UNL     1      22.739   3.157  50.131  1.00  0.00    -0.226 NA
HETATM   12  C10 UNL     1      23.171   3.312  48.867  1.00  0.00     0.060 A 
HETATM   13  C11 UNL     1      22.913   2.465  47.676  1.00  0.00     0.081 A 
HETATM   14  S1  UNL     1      21.808   1.186  48.646  1.00  0.00    -0.060 SA
HETATM   15  C12 UNL     1      23.886   4.535  49.311  1.00  0.00     0.151 C 
HETATM   16  C13 UNL     1      25.040   4.428  50.138  1.00  0.00     0.056 C 
HETATM   17  C14 UNL     1      25.744   3.418  50.683  1.00  0.00     0.010 C 
HETATM   18  C15 UNL     1      25.628   1.971  50.668  1.00  0.00     0.056 C 
HETATM   19  C16 UNL     1      25.715   1.230  51.928  1.00  0.00    -0.023 C 
HETATM   20  C17 UNL     1      25.188   0.531  52.897  1.00  0.00    -0.007 C 
HETATM   21  C18 UNL     1      23.776   0.185  53.022  1.00  0.00    -0.021 C 
HETATM   22  C19 UNL     1      22.536   0.238  52.546  1.00  0.00     0.027 A 
ENDROOT
BRANCH   1  23
HETATM   23  O1  UNL     1      23.055   6.740  48.991  1.00  0.00    -0.359 OA
HETATM   24  C1  UNL     1      23.432   6.752  47.640  1.00  0.00     0.209 C 
ENDBRANCH   1  23
BRANCH  16  25
HETATM   25  O2  UNL     1      25.644   5.631  50.508  1.00  0.00    -0.364 OA
HETATM   26  H12 UNL     1      26.278   6.143  49.924  1.00  0.00     0.217 HD
ENDBRANCH  16  25
TORSDOF 2
ENDMDL
MODEL 7
REMARK VINA RESULT:      -7.0      5.346      8.151
REMARK  2 active torsions:
REMARK  status: ('A' for Active; 'I' for Inactive)
REMARK    1  A    between atoms: O1_2  and  C2_3 
REMARK    2  A    between atoms: C13_18  and  O2_19 
ROOT
HETATM    1  C2  UNL     1      29.814   7.389  47.044  1.00  0.00     0.058 C 
HETATM    2  C3  UNL     1      29.426   6.246  47.696  1.00  0.00     0.007 C 
HETATM    3  C4  UNL     1      28.764   5.131  48.399  1.00  0.00     0.003 C 
HETATM    4  C5  UNL     1      27.549   4.737  48.833  1.00  0.00     0.053 C 
HETATM    5  C6  UNL     1      26.121   5.028  48.940  1.00  0.00     0.117 A 
HETATM    6  C7  UNL     1      25.273   4.849  50.105  1.00  0.00     0.039 A 
HETATM    7  C8  UNL     1      24.195   5.977  49.909  1.00  0.00    -0.013 A 
HETATM    8  N1  UNL     1      25.079   5.538  49.135  1.00  0.00     0.000 N 
HETATM    9  N2  UNL     1      26.089   6.485  49.142  1.00  0.00    -0.259 N 
HETATM   10  C9  UNL     1      26.781   7.764  49.244  1.00  0.00     0.188 A 
HETATM   11  N3  UNL     1      27.624   7.731  47.989  1.00  0.00    -0.226 NA
HETATM   12  C10 UNL     1      28.268   8.911  48.021  1.00  0.00     0.060 A 
HETATM   13  C11 UNL     1      28.193   9.995  49.030  1.00  0.00     0.081 A 
HETATM   14  S1  UNL     1      26.900   9.061  50.149  1.00  0.00    -0.060 SA
HETATM   15  C12 UNL     1      28.918   8.537  46.739  1.00  0.00     0.151 C 
HETATM   16  C13 UNL     1      28.158   8.506  45.535  1.00  0.00     0.056 C 
HETATM   17  C14 UNL     1      26.879   8.756  45.197  1.00  0.00     0.010 C 
HETATM   18  C15 UNL     1      25.694   9.167  45.926  1.00  0.00     0.056 C 
HETATM   19  C16 UNL     1      24.437   8.444  45.723  1.00  0.00    -0.023 C 
HETATM   20  C17 UNL     1      23.499   7.623  46.112  1.00  0.00    -0.007 C 
HETATM   21  C18 UNL     1      23.474   6.906  47.383  1.00  0.00    -0.021 C 
HETATM   22  C19 UNL     1      24.038   6.630  48.555  1.00  0.00     0.027 A 
ENDROOT
BRANCH   1  23
HETATM   23  O1  UNL     1      31.124   7.664  46.582  1.00  0.00    -0.359 OA
HETATM   24  C1  UNL     1      32.251   7.190  47.271  1.00  0.00     0.209 C 
ENDBRANCH   1  23
BRANCH  16  25
HETATM   25  O2  UNL     1      28.852   8.141  44.381  1.00  0.00    -0.364 OA
HETATM   26  H12 UNL     1      29.527   8.725  43.923  1.00  0.00     0.217 HD
ENDBRANCH  16  25
TORSDOF 2
ENDMDL
MODEL 8
REMARK VINA RESULT:      -6.7      3.242      7.320
REMARK  2 active torsions:
REMARK  status: ('A' for Active; 'I' for Inactive)
REMARK    1  A    between atoms: O1_2  and  C2_3 
REMARK    2  A    between atoms: C13_18  and  O2_19 
ROOT
HETATM    1  C2  UNL     1      24.956   3.432  49.889  1.00  0.00     0.058 C 
HETATM    2  C3  UNL     1      23.880   3.188  49.072  1.00  0.00     0.007 C 
HETATM    3  C4  UNL     1      22.750   3.185  48.125  1.00  0.00     0.003 C 
HETATM    4  C5  UNL     1      22.111   3.988  47.250  1.00  0.00     0.053 C 
HETATM    5  C6  UNL     1      22.027   5.300  46.610  1.00  0.00     0.117 A 
HETATM    6  C7  UNL     1      20.830   6.083  46.369  1.00  0.00     0.039 A 
HETATM    7  C8  UNL     1      21.378   7.556  46.428  1.00  0.00    -0.013 A 
HETATM    8  N1  UNL     1      21.976   6.454  46.394  1.00  0.00     0.000 N 
HETATM    9  N2  UNL     1      22.415   6.224  47.687  1.00  0.00    -0.259 N 
HETATM   10  C9  UNL     1      22.874   6.456  49.050  1.00  0.00     0.188 A 
HETATM   11  N3  UNL     1      24.071   5.533  49.108  1.00  0.00    -0.226 NA
HETATM   12  C10 UNL     1      24.552   5.731  50.348  1.00  0.00     0.060 A 
HETATM   13  C11 UNL     1      24.050   6.627  51.419  1.00  0.00     0.081 A 
HETATM   14  S1  UNL     1      22.565   7.305  50.354  1.00  0.00    -0.060 SA
HETATM   15  C12 UNL     1      25.625   4.753  50.036  1.00  0.00     0.151 C 
HETATM   16  C13 UNL     1      26.662   5.096  49.124  1.00  0.00     0.056 C 
HETATM   17  C14 UNL     1      26.981   6.180  48.391  1.00  0.00     0.010 C 
HETATM   18  C15 UNL     1      26.391   7.493  48.204  1.00  0.00     0.056 C 
HETATM   19  C16 UNL     1      26.204   8.011  46.847  1.00  0.00    -0.023 C 
HETATM   20  C17 UNL     1      25.457   8.336  45.826  1.00  0.00    -0.007 C 
HETATM   21  C18 UNL     1      24.008   8.179  45.752  1.00  0.00    -0.021 C 
HETATM   22  C19 UNL     1      22.865   7.802  46.316  1.00  0.00     0.027 A 
ENDROOT
BRANCH   1  23
HETATM   23  O1  UNL     1      25.580   2.479  50.729  1.00  0.00    -0.359 OA
HETATM   24  C1  UNL     1      25.349   2.471  52.113  1.00  0.00     0.209 C 
ENDBRANCH   1  23
BRANCH  16  25
HETATM   25  O2  UNL     1      27.625   4.113  48.890  1.00  0.00    -0.364 OA
HETATM   26  H12 UNL     1      28.065   3.957  48.002  1.00  0.00     0.217 HD
ENDBRANCH  16  25
TORSDOF 2
ENDMDL
MODEL 9
REMARK VINA RESULT:      -6.7      3.723      6.055
REMARK  2 active torsions:
REMARK  status: ('A' for Active; 'I' for Inactive)
REMARK    1  A    between atoms: O1_2  and  C2_3 
REMARK    2  A    between atoms: C13_18  and  O2_19 
ROOT
HETATM    1  C2  UNL     1      21.358   4.840  47.993  1.00  0.00     0.058 C 
HETATM    2  C3  UNL     1      21.698   5.804  47.076  1.00  0.00     0.007 C 
HETATM    3  C4  UNL     1      22.297   6.850  46.228  1.00  0.00     0.003 C 
HETATM    4  C5  UNL     1      23.440   7.548  46.070  1.00  0.00     0.053 C 
HETATM    5  C6  UNL     1      24.808   7.797  46.521  1.00  0.00     0.117 A 
HETATM    6  C7  UNL     1      25.451   9.085  46.703  1.00  0.00     0.039 A 
HETATM    7  C8  UNL     1      26.475   8.787  47.858  1.00  0.00    -0.013 A 
HETATM    8  N1  UNL     1      25.767   8.018  47.165  1.00  0.00     0.000 N 
HETATM    9  N2  UNL     1      24.714   7.639  47.981  1.00  0.00    -0.259 N 
HETATM   10  C9  UNL     1      23.937   7.318  49.171  1.00  0.00     0.188 A 
HETATM   11  N3  UNL     1      23.327   5.996  48.764  1.00  0.00    -0.226 NA
HETATM   12  C10 UNL     1      22.615   5.639  49.848  1.00  0.00     0.060 A 
HETATM   13  C11 UNL     1      22.447   6.353  51.138  1.00  0.00     0.081 A 
HETATM   14  S1  UNL     1      23.583   7.850  50.623  1.00  0.00    -0.060 SA
HETATM   15  C12 UNL     1      22.220   4.404  49.124  1.00  0.00     0.151 C 
HETATM   16  C13 UNL     1      23.176   3.375  48.893  1.00  0.00     0.056 C 
HETATM   17  C14 UNL     1      24.477   3.185  49.187  1.00  0.00     0.010 C 
HETATM   18  C15 UNL     1      25.490   3.964  49.874  1.00  0.00     0.056 C 
HETATM   19  C16 UNL     1      26.806   4.138  49.255  1.00  0.00    -0.023 C 
HETATM   20  C17 UNL     1      27.712   4.855  48.645  1.00  0.00    -0.007 C 
HETATM   21  C18 UNL     1      27.562   6.251  48.248  1.00  0.00    -0.021 C 
HETATM   22  C19 UNL     1      26.823   7.354  48.194  1.00  0.00     0.027 A 
ENDROOT
BRANCH   1  23
HETATM   23  O1  UNL     1      20.133   4.131  48.019  1.00  0.00    -0.359 OA
HETATM   24  C1  UNL     1      19.459   3.891  49.226  1.00  0.00     0.209 C 
ENDBRANCH   1  23
BRANCH  16  25
HETATM   25  O2  UNL     1      22.716   2.253  48.203  1.00  0.00    -0.364 OA
HETATM   26  H12 UNL     1      23.093   1.330  48.316  1.00  0.00     0.217 HD
ENDBRANCH  16  25
TORSDOF 2
ENDMDL
