MODEL 1
REMARK VINA RESULT:      -6.9      0.000      0.000
REMARK  10 active torsions:
REMARK  status: ('A' for Active; 'I' for Inactive)
REMARK    1  A    between atoms: C2_2  and  C3_3 
REMARK    2  A    between atoms: C2_2  and  N2_8 
REMARK    3  A    between atoms: C3_3  and  C4_4 
REMARK    4  A    between atoms: C4_4  and  N1_5 
REMARK    5  A    between atoms: N2_8  and  C8_10 
REMARK    6  A    between atoms: C8_10  and  C9_11 
REMARK    7  A    between atoms: C14_18  and  N5_19 
REMARK    8  A    between atoms: C17_22  and  N6_23 
REMARK    9  A    between atoms: C19_25  and  C20_26 
REMARK   10  A    between atoms: C22_29  and  C23_30 
ROOT
HETATM    1  C9  UNL     1      25.192   2.994  50.743  1.00  0.00    -0.006 A 
HETATM    2  C10 UNL     1      26.266   3.231  50.041  1.00  0.00     0.107 A 
HETATM    3  N3  UNL     1      26.670   4.408  49.375  1.00  0.00    -0.316 N 
HETATM    4  C11 UNL     1      27.729   4.752  48.638  1.00  0.00     0.213 A 
HETATM    5  N4  UNL     1      27.586   6.029  48.245  1.00  0.00    -0.254 NA
HETATM    6  C12 UNL     1      26.434   6.464  48.745  1.00  0.00     0.146 A 
HETATM    7  C13 UNL     1      25.843   5.434  49.468  1.00  0.00     0.062 A 
HETATM    8  C14 UNL     1      24.553   5.466  50.202  1.00  0.00     0.174 A 
HETATM    9  C21 UNL     1      24.259   4.150  50.821  1.00  0.00    -0.022 A 
HETATM   10  C22 UNL     1      23.085   4.029  51.474  1.00  0.00    -0.002 C 
ENDROOT
BRANCH   8  11
HETATM   11  N5  UNL     1      23.564   5.936  49.279  1.00  0.00    -0.344 N 
HETATM   12  C15 UNL     1      23.255   5.052  48.189  1.00  0.00     0.090 A 
HETATM   13  C16 UNL     1      22.355   5.479  47.308  1.00  0.00     0.029 A 
HETATM   14  C17 UNL     1      21.617   6.766  47.303  1.00  0.00     0.266 A 
HETATM   15  C18 UNL     1      22.060   7.539  48.490  1.00  0.00     0.040 A 
HETATM   16  C19 UNL     1      22.941   7.206  49.417  1.00  0.00     0.039 A 
BRANCH  14  17
HETATM   17  N6  UNL     1      20.187   6.565  47.333  1.00  0.00     0.090 N 
HETATM   18  H27 UNL     1      19.713   7.412  47.675  1.00  0.00     0.314 HD
HETATM   19  H28 UNL     1      19.809   6.193  46.445  1.00  0.00     0.314 HD
ENDBRANCH  14  17
BRANCH  16  20
HETATM   20  C20 UNL     1      23.259   8.116  50.523  1.00  0.00     0.279 C 
HETATM   21  F1  UNL     1      24.487   8.744  50.394  1.00  0.00    -0.249 F 
ENDBRANCH  16  20
ENDBRANCH   8  11
BRANCH   1  22
HETATM   22  C8  UNL     1      24.755   1.777  51.447  1.00  0.00     0.313 C 
BRANCH  22  23
HETATM   23  N2  UNL     1      25.685   1.323  52.473  1.00  0.00     0.092 N 
HETATM   24  C7  UNL     1      25.676   2.235  53.605  1.00  0.00     0.310 C 
BRANCH  23  25
HETATM   25  C2  UNL     1      25.350  -0.027  52.890  1.00  0.00     0.220 C 
HETATM   26  C1  UNL     1      23.968  -0.221  53.401  1.00  0.00     0.043 C 
BRANCH  25  27
HETATM   27  C3  UNL     1      26.373  -0.724  53.702  1.00  0.00     0.065 C 
BRANCH  27  28
HETATM   28  C4  UNL     1      27.647  -1.091  53.042  1.00  0.00     0.273 C 
BRANCH  28  29
HETATM   29  N1  UNL     1      28.687  -0.150  53.506  1.00  0.00     0.080 N 
HETATM   30  C5  UNL     1      28.418   0.128  54.930  1.00  0.00     0.309 C 
HETATM   31  C6  UNL     1      29.991  -0.810  53.518  1.00  0.00     0.309 C 
ENDBRANCH  28  29
ENDBRANCH  27  28
ENDBRANCH  25  27
ENDBRANCH  23  25
ENDBRANCH  22  23
ENDBRANCH   1  22
BRANCH  10  32
HETATM   32  C23 UNL     1      21.860   4.705  51.873  1.00  0.00     0.142 C 
HETATM   33 CL1  UNL     1      20.609   4.570  50.613  1.00  0.00    -0.126 Cl
ENDBRANCH  10  32
TORSDOF 10
ENDMDL
MODEL 2
REMARK VINA RESULT:      -6.7      1.102      2.525
REMARK  10 active torsions:
REMARK  status: ('A' for Active; 'I' for Inactive)
REMARK    1  A    between atoms: C2_2  and  C3_3 
REMARK    2  A    between atoms: C2_2  and  N2_8 
REMARK    3  A    between atoms: C3_3  and  C4_4 
REMARK    4  A    between atoms: C4_4  and  N1_5 
REMARK    5  A    between atoms: N2_8  and  C8_10 
REMARK    6  A    between atoms: C8_10  and  C9_11 
REMARK    7  A    between atoms: C14_18  and  N5_19 
REMARK    8  A    between atoms: C17_22  and  N6_23 
REMARK    9  A    between atoms: C19_25  and  C20_26 
REMARK   10  A    between atoms: C22_29  and  C23_30 
ROOT
HETATM    1  C9  UNL     1      25.385   2.916  50.948  1.00  0.00    -0.006 A 
HETATM    2  C10 UNL     1      26.418   3.160  50.190  1.00  0.00     0.107 A 
HETATM    3  N3  UNL     1      26.755   4.327  49.470  1.00  0.00    -0.316 N 
HETATM    4  C11 UNL     1      27.768   4.677  48.674  1.00  0.00     0.213 A 
HETATM    5  N4  UNL     1      27.569   5.936  48.248  1.00  0.00    -0.254 NA
HETATM    6  C12 UNL     1      26.429   6.354  48.787  1.00  0.00     0.146 A 
HETATM    7  C13 UNL     1      25.903   5.331  49.569  1.00  0.00     0.062 A 
HETATM    8  C14 UNL     1      24.647   5.349  50.361  1.00  0.00     0.174 A 
HETATM    9  C21 UNL     1      24.422   4.047  51.034  1.00  0.00    -0.022 A 
HETATM   10  C22 UNL     1      23.283   3.914  51.744  1.00  0.00    -0.002 C 
ENDROOT
BRANCH   8  11
HETATM   11  N5  UNL     1      23.604   5.762  49.471  1.00  0.00    -0.344 N 
HETATM   12  C15 UNL     1      23.265   4.830  48.431  1.00  0.00     0.090 A 
HETATM   13  C16 UNL     1      22.313   5.202  47.580  1.00  0.00     0.029 A 
HETATM   14  C17 UNL     1      21.544   6.469  47.564  1.00  0.00     0.266 A 
HETATM   15  C18 UNL     1      22.023   7.298  48.699  1.00  0.00     0.040 A 
HETATM   16  C19 UNL     1      22.956   7.021  49.593  1.00  0.00     0.039 A 
BRANCH  14  17
HETATM   17  N6  UNL     1      20.122   6.237  47.671  1.00  0.00     0.090 N 
HETATM   18  H27 UNL     1      19.602   7.112  47.521  1.00  0.00     0.314 HD
HETATM   19  H28 UNL     1      19.795   5.441  47.096  1.00  0.00     0.314 HD
ENDBRANCH  14  17
BRANCH  16  20
HETATM   20  C20 UNL     1      23.304   7.979  50.648  1.00  0.00     0.279 C 
HETATM   21  F1  UNL     1      24.485   8.664  50.413  1.00  0.00    -0.249 F 
ENDBRANCH  16  20
ENDBRANCH   8  11
BRANCH   1  22
HETATM   22  C8  UNL     1      25.017   1.710  51.709  1.00  0.00     0.313 C 
BRANCH  22  23
HETATM   23  N2  UNL     1      26.068   1.230  52.597  1.00  0.00     0.092 N 
HETATM   24  C7  UNL     1      26.258   2.154  53.704  1.00  0.00     0.310 C 
BRANCH  23  25
HETATM   25  C2  UNL     1      25.746  -0.101  53.080  1.00  0.00     0.220 C 
HETATM   26  C1  UNL     1      26.634  -1.193  52.605  1.00  0.00     0.043 C 
BRANCH  25  27
HETATM   27  C3  UNL     1      24.311  -0.467  53.054  1.00  0.00     0.065 C 
BRANCH  27  28
HETATM   28  C4  UNL     1      23.656  -0.785  54.344  1.00  0.00     0.273 C 
BRANCH  28  29
HETATM   29  N1  UNL     1      22.224  -0.441  54.225  1.00  0.00     0.080 N 
HETATM   30  C5  UNL     1      21.969  -0.134  52.805  1.00  0.00     0.309 C 
HETATM   31  C6  UNL     1      21.403  -1.622  54.481  1.00  0.00     0.309 C 
ENDBRANCH  28  29
ENDBRANCH  27  28
ENDBRANCH  25  27
ENDBRANCH  23  25
ENDBRANCH  22  23
ENDBRANCH   1  22
BRANCH  10  32
HETATM   32  C23 UNL     1      22.058   4.567  52.178  1.00  0.00     0.142 C 
HETATM   33 CL1  UNL     1      20.760   4.369  50.976  1.00  0.00    -0.126 Cl
ENDBRANCH  10  32
TORSDOF 10
ENDMDL
MODEL 3
REMARK VINA RESULT:      -6.6      3.008      4.661
REMARK  10 active torsions:
REMARK  status: ('A' for Active; 'I' for Inactive)
REMARK    1  A    between atoms: C2_2  and  C3_3 
REMARK    2  A    between atoms: C2_2  and  N2_8 
REMARK    3  A    between atoms: C3_3  and  C4_4 
REMARK    4  A    between atoms: C4_4  and  N1_5 
REMARK    5  A    between atoms: N2_8  and  C8_10 
REMARK    6  A    between atoms: C8_10  and  C9_11 
REMARK    7  A    between atoms: C14_18  and  N5_19 
REMARK    8  A    between atoms: C17_22  and  N6_23 
REMARK    9  A    between atoms: C19_25  and  C20_26 
REMARK   10  A    between atoms: C22_29  and  C23_30 
ROOT
HETATM    1  C9  UNL     1      23.496   1.267  52.025  1.00  0.00    -0.006 A 
HETATM    2  C10 UNL     1      22.375   0.666  52.315  1.00  0.00     0.107 A 
HETATM    3  N3  UNL     1      21.141   0.672  51.628  1.00  0.00    -0.316 N 
HETATM    4  C11 UNL     1      19.950   0.106  51.834  1.00  0.00     0.213 A 
HETATM    5  N4  UNL     1      19.121   0.467  50.841  1.00  0.00    -0.254 NA
HETATM    6  C12 UNL     1      19.811   1.259  50.026  1.00  0.00     0.146 A 
HETATM    7  C13 UNL     1      21.102   1.394  50.522  1.00  0.00     0.062 A 
HETATM    8  C14 UNL     1      22.219   2.181  49.941  1.00  0.00     0.174 A 
HETATM    9  C21 UNL     1      23.432   2.095  50.790  1.00  0.00    -0.022 A 
HETATM   10  C22 UNL     1      24.505   2.812  50.400  1.00  0.00    -0.002 C 
ENDROOT
BRANCH   8  11
HETATM   11  N5  UNL     1      21.722   3.507  49.725  1.00  0.00    -0.344 N 
HETATM   12  C15 UNL     1      21.394   4.252  50.909  1.00  0.00     0.090 A 
HETATM   13  C16 UNL     1      20.910   5.478  50.731  1.00  0.00     0.029 A 
HETATM   14  C17 UNL     1      20.662   6.187  49.453  1.00  0.00     0.266 A 
HETATM   15  C18 UNL     1      21.057   5.274  48.351  1.00  0.00     0.040 A 
HETATM   16  C19 UNL     1      21.543   4.048  48.423  1.00  0.00     0.039 A 
BRANCH  14  17
HETATM   17  N6  UNL     1      21.401   7.426  49.374  1.00  0.00     0.090 N 
HETATM   18  H27 UNL     1      22.042   7.412  48.569  1.00  0.00     0.314 HD
HETATM   19  H28 UNL     1      20.797   8.264  49.425  1.00  0.00     0.314 HD
ENDBRANCH  14  17
BRANCH  16  20
HETATM   20  C20 UNL     1      21.869   3.289  47.210  1.00  0.00     0.279 C 
HETATM   21  F1  UNL     1      22.275   4.080  46.148  1.00  0.00    -0.249 F 
ENDBRANCH  16  20
ENDBRANCH   8  11
BRANCH   1  22
HETATM   22  C8  UNL     1      24.791   1.271  52.724  1.00  0.00     0.313 C 
BRANCH  22  23
HETATM   23  N2  UNL     1      25.480  -0.013  52.696  1.00  0.00     0.092 N 
HETATM   24  C7  UNL     1      26.571   0.018  51.736  1.00  0.00     0.310 C 
BRANCH  23  25
HETATM   25  C2  UNL     1      25.964  -0.351  54.023  1.00  0.00     0.220 C 
HETATM   26  C1  UNL     1      24.940  -0.848  54.977  1.00  0.00     0.043 C 
BRANCH  25  27
HETATM   27  C3  UNL     1      26.904   0.617  54.632  1.00  0.00     0.065 C 
BRANCH  27  28
HETATM   28  C4  UNL     1      28.208   0.105  55.116  1.00  0.00     0.273 C 
BRANCH  28  29
HETATM   29  N1  UNL     1      29.274   0.922  54.502  1.00  0.00     0.080 N 
HETATM   30  C5  UNL     1      29.893   0.104  53.442  1.00  0.00     0.309 C 
HETATM   31  C6  UNL     1      28.688   2.049  53.779  1.00  0.00     0.309 C 
ENDBRANCH  28  29
ENDBRANCH  27  28
ENDBRANCH  25  27
ENDBRANCH  23  25
ENDBRANCH  22  23
ENDBRANCH   1  22
BRANCH  10  32
HETATM   32  C23 UNL     1      25.037   3.724  49.400  1.00  0.00     0.142 C 
HETATM   33 CL1  UNL     1      26.817   3.676  49.364  1.00  0.00    -0.126 Cl
ENDBRANCH  10  32
TORSDOF 10
ENDMDL
MODEL 4
REMARK VINA RESULT:      -6.5      3.726      6.058
REMARK  10 active torsions:
REMARK  status: ('A' for Active; 'I' for Inactive)
REMARK    1  A    between atoms: C2_2  and  C3_3 
REMARK    2  A    between atoms: C2_2  and  N2_8 
REMARK    3  A    between atoms: C3_3  and  C4_4 
REMARK    4  A    between atoms: C4_4  and  N1_5 
REMARK    5  A    between atoms: N2_8  and  C8_10 
REMARK    6  A    between atoms: C8_10  and  C9_11 
REMARK    7  A    between atoms: C14_18  and  N5_19 
REMARK    8  A    between atoms: C17_22  and  N6_23 
REMARK    9  A    between atoms: C19_25  and  C20_26 
REMARK   10  A    between atoms: C22_29  and  C23_30 
ROOT
HETATM    1  C9  UNL     1      22.368   1.145  53.091  1.00  0.00    -0.006 A 
HETATM    2  C10 UNL     1      23.597   0.717  52.999  1.00  0.00     0.107 A 
HETATM    3  N3  UNL     1      24.682   1.236  52.260  1.00  0.00    -0.316 N 
HETATM    4  C11 UNL     1      25.958   0.881  52.095  1.00  0.00     0.213 A 
HETATM    5  N4  UNL     1      26.545   1.753  51.258  1.00  0.00    -0.254 NA
HETATM    6  C12 UNL     1      25.620   2.644  50.912  1.00  0.00     0.146 A 
HETATM    7  C13 UNL     1      24.428   2.319  51.549  1.00  0.00     0.062 A 
HETATM    8  C14 UNL     1      23.130   3.034  51.460  1.00  0.00     0.174 A 
HETATM    9  C21 UNL     1      22.088   2.351  52.268  1.00  0.00    -0.022 A 
HETATM   10  C22 UNL     1      20.845   2.872  52.229  1.00  0.00    -0.002 C 
ENDROOT
BRANCH   8  11
HETATM   11  N5  UNL     1      22.826   3.169  50.068  1.00  0.00    -0.344 N 
HETATM   12  C15 UNL     1      22.485   1.953  49.381  1.00  0.00     0.090 A 
HETATM   13  C16 UNL     1      22.220   2.052  48.082  1.00  0.00     0.029 A 
HETATM   14  C17 UNL     1      22.230   3.270  47.236  1.00  0.00     0.266 A 
HETATM   15  C18 UNL     1      22.598   4.416  48.106  1.00  0.00     0.040 A 
HETATM   16  C19 UNL     1      22.878   4.421  49.397  1.00  0.00     0.039 A 
BRANCH  14  17
HETATM   17  N6  UNL     1      20.949   3.500  46.610  1.00  0.00     0.090 N 
HETATM   18  H27 UNL     1      20.377   2.646  46.637  1.00  0.00     0.314 HD
HETATM   19  H28 UNL     1      20.470   4.347  46.961  1.00  0.00     0.314 HD
ENDBRANCH  14  17
BRANCH  16  20
HETATM   20  C20 UNL     1      23.233   5.664  50.091  1.00  0.00     0.279 C 
HETATM   21  F1  UNL     1      22.264   6.105  50.978  1.00  0.00    -0.249 F 
ENDBRANCH  16  20
ENDBRANCH   8  11
BRANCH   1  22
HETATM   22  C8  UNL     1      21.224   0.621  53.857  1.00  0.00     0.313 C 
BRANCH  22  23
HETATM   23  N2  UNL     1      20.709  -0.646  53.355  1.00  0.00     0.092 N 
HETATM   24  C7  UNL     1      20.985  -1.717  54.299  1.00  0.00     0.310 C 
BRANCH  23  25
HETATM   25  C2  UNL     1      19.285  -0.539  53.093  1.00  0.00     0.220 C 
HETATM   26  C1  UNL     1      18.456  -1.686  53.545  1.00  0.00     0.043 C 
BRANCH  25  27
HETATM   27  C3  UNL     1      18.912  -0.047  51.747  1.00  0.00     0.065 C 
BRANCH  27  28
HETATM   28  C4  UNL     1      17.525  -0.287  51.284  1.00  0.00     0.273 C 
BRANCH  28  29
HETATM   29  N1  UNL     1      16.734   0.929  51.566  1.00  0.00     0.080 N 
HETATM   30  C5  UNL     1      16.206   1.413  50.276  1.00  0.00     0.309 C 
HETATM   31  C6  UNL     1      15.537   0.582  52.328  1.00  0.00     0.309 C 
ENDBRANCH  28  29
ENDBRANCH  27  28
ENDBRANCH  25  27
ENDBRANCH  23  25
ENDBRANCH  22  23
ENDBRANCH   1  22
BRANCH  10  32
HETATM   32  C23 UNL     1      20.002   3.923  51.681  1.00  0.00     0.142 C 
HETATM   33 CL1  UNL     1      19.293   3.435  50.122  1.00  0.00    -0.126 Cl
ENDBRANCH  10  32
TORSDOF 10
ENDMDL
MODEL 5
REMARK VINA RESULT:      -6.5      3.302      5.353
REMARK  10 active torsions:
REMARK  status: ('A' for Active; 'I' for Inactive)
REMARK    1  A    between atoms: C2_2  and  C3_3 
REMARK    2  A    between atoms: C2_2  and  N2_8 
REMARK    3  A    between atoms: C3_3  and  C4_4 
REMARK    4  A    between atoms: C4_4  and  N1_5 
REMARK    5  A    between atoms: N2_8  and  C8_10 
REMARK    6  A    between atoms: C8_10  and  C9_11 
REMARK    7  A    between atoms: C14_18  and  N5_19 
REMARK    8  A    between atoms: C17_22  and  N6_23 
REMARK    9  A    between atoms: C19_25  and  C20_26 
REMARK   10  A    between atoms: C22_29  and  C23_30 
ROOT
HETATM    1  C9  UNL     1      21.021   1.596  49.403  1.00  0.00    -0.006 A 
HETATM    2  C10 UNL     1      20.443   2.136  48.365  1.00  0.00     0.107 A 
HETATM    3  N3  UNL     1      20.917   3.130  47.482  1.00  0.00    -0.316 N 
HETATM    4  C11 UNL     1      20.416   3.748  46.410  1.00  0.00     0.213 A 
HETATM    5  N4  UNL     1      21.322   4.629  45.955  1.00  0.00    -0.254 NA
HETATM    6  C12 UNL     1      22.380   4.549  46.755  1.00  0.00     0.146 A 
HETATM    7  C13 UNL     1      22.128   3.593  47.733  1.00  0.00     0.062 A 
HETATM    8  C14 UNL     1      23.026   3.167  48.836  1.00  0.00     0.174 A 
HETATM    9  C21 UNL     1      22.375   2.141  49.688  1.00  0.00    -0.022 A 
HETATM   10  C22 UNL     1      23.067   1.708  50.761  1.00  0.00    -0.002 C 
ENDROOT
BRANCH   8  11
HETATM   11  N5  UNL     1      23.433   4.356  49.522  1.00  0.00    -0.344 N 
HETATM   12  C15 UNL     1      22.374   5.132  50.108  1.00  0.00     0.090 A 
HETATM   13  C16 UNL     1      22.728   6.253  50.731  1.00  0.00     0.029 A 
HETATM   14  C17 UNL     1      24.089   6.814  50.903  1.00  0.00     0.266 A 
HETATM   15  C18 UNL     1      25.042   5.888  50.242  1.00  0.00     0.040 A 
HETATM   16  C19 UNL     1      24.793   4.759  49.601  1.00  0.00     0.039 A 
BRANCH  14  17
HETATM   17  N6  UNL     1      24.430   6.981  52.298  1.00  0.00     0.090 N 
HETATM   18  H27 UNL     1      23.578   7.066  52.868  1.00  0.00     0.314 HD
HETATM   19  H28 UNL     1      25.105   6.276  52.639  1.00  0.00     0.314 HD
ENDBRANCH  14  17
BRANCH  16  20
HETATM   20  C20 UNL     1      25.876   3.975  48.997  1.00  0.00     0.279 C 
HETATM   21  F1  UNL     1      26.638   3.274  49.918  1.00  0.00    -0.249 F 
ENDBRANCH  16  20
ENDBRANCH   8  11
BRANCH   1  22
HETATM   22  C8  UNL     1      20.546   0.558  50.333  1.00  0.00     0.313 C 
BRANCH  22  23
HETATM   23  N2  UNL     1      19.371   0.947  51.102  1.00  0.00     0.092 N 
HETATM   24  C7  UNL     1      18.339  -0.072  51.002  1.00  0.00     0.310 C 
BRANCH  23  25
HETATM   25  C2  UNL     1      19.735   1.185  52.487  1.00  0.00     0.220 C 
HETATM   26  C1  UNL     1      20.325   2.517  52.780  1.00  0.00     0.043 C 
BRANCH  25  27
HETATM   27  C3  UNL     1      20.439   0.075  53.168  1.00  0.00     0.065 C 
BRANCH  27  28
HETATM   28  C4  UNL     1      20.949   0.317  54.538  1.00  0.00     0.273 C 
BRANCH  28  29
HETATM   29  N1  UNL     1      21.978  -0.702  54.828  1.00  0.00     0.080 N 
HETATM   30  C5  UNL     1      21.433  -2.004  54.399  1.00  0.00     0.309 C 
HETATM   31  C6  UNL     1      23.137  -0.504  53.959  1.00  0.00     0.309 C 
ENDBRANCH  28  29
ENDBRANCH  27  28
ENDBRANCH  25  27
ENDBRANCH  23  25
ENDBRANCH  22  23
ENDBRANCH   1  22
BRANCH  10  32
HETATM   32  C23 UNL     1      24.304   1.826  51.517  1.00  0.00     0.142 C 
HETATM   33 CL1  UNL     1      24.172   3.075  52.780  1.00  0.00    -0.126 Cl
ENDBRANCH  10  32
TORSDOF 10
ENDMDL
MODEL 6
REMARK VINA RESULT:      -6.3      6.304     10.781
REMARK  10 active torsions:
REMARK  status: ('A' for Active; 'I' for Inactive)
REMARK    1  A    between atoms: C2_2  and  C3_3 
REMARK    2  A    between atoms: C2_2  and  N2_8 
REMARK    3  A    between atoms: C3_3  and  C4_4 
REMARK    4  A    between atoms: C4_4  and  N1_5 
REMARK    5  A    between atoms: N2_8  and  C8_10 
REMARK    6  A    between atoms: C8_10  and  C9_11 
REMARK    7  A    between atoms: C14_18  and  N5_19 
REMARK    8  A    between atoms: C17_22  and  N6_23 
REMARK    9  A    between atoms: C19_25  and  C20_26 
REMARK   10  A    between atoms: C22_29  and  C23_30 
ROOT
HETATM    1  C9  UNL     1      30.938   8.841  45.804  1.00  0.00    -0.006 A 
HETATM    2  C10 UNL     1      31.682   9.159  44.779  1.00  0.00     0.107 A 
HETATM    3  N3  UNL     1      32.675   8.407  44.115  1.00  0.00    -0.316 N 
HETATM    4  C11 UNL     1      33.485   8.633  43.078  1.00  0.00     0.213 A 
HETATM    5  N4  UNL     1      34.247   7.545  42.879  1.00  0.00    -0.254 NA
HETATM    6  C12 UNL     1      33.901   6.653  43.801  1.00  0.00     0.146 A 
HETATM    7  C13 UNL     1      32.897   7.197  44.594  1.00  0.00     0.062 A 
HETATM    8  C14 UNL     1      32.205   6.560  45.743  1.00  0.00     0.174 A 
HETATM    9  C21 UNL     1      31.214   7.484  46.347  1.00  0.00    -0.022 A 
HETATM   10  C22 UNL     1      30.553   7.044  47.437  1.00  0.00    -0.002 C 
ENDROOT
BRANCH   8  11
HETATM   11  N5  UNL     1      33.224   6.096  46.635  1.00  0.00    -0.344 N 
HETATM   12  C15 UNL     1      33.967   7.118  47.320  1.00  0.00     0.090 A 
HETATM   13  C16 UNL     1      34.934   6.710  48.138  1.00  0.00     0.029 A 
HETATM   14  C17 UNL     1      35.352   5.319  48.439  1.00  0.00     0.266 A 
HETATM   15  C18 UNL     1      34.482   4.411  47.650  1.00  0.00     0.040 A 
HETATM   16  C19 UNL     1      33.503   4.714  46.817  1.00  0.00     0.039 A 
BRANCH  14  17
HETATM   17  N6  UNL     1      35.251   5.021  49.849  1.00  0.00     0.090 N 
HETATM   18  H27 UNL     1      36.178   5.058  50.291  1.00  0.00     0.314 HD
HETATM   19  H28 UNL     1      34.524   5.577  50.331  1.00  0.00     0.314 HD
ENDBRANCH  14  17
BRANCH  16  20
HETATM   20  C20 UNL     1      32.753   3.668  46.113  1.00  0.00     0.279 C 
HETATM   21  F1  UNL     1      31.523   3.382  46.684  1.00  0.00    -0.249 F 
ENDBRANCH  16  20
ENDBRANCH   8  11
BRANCH   1  22
HETATM   22  C8  UNL     1      29.896   9.607  46.507  1.00  0.00     0.313 C 
BRANCH  22  23
HETATM   23  N2  UNL     1      30.413  10.716  47.299  1.00  0.00     0.092 N 
HETATM   24  C7  UNL     1      30.099  11.984  46.661  1.00  0.00     0.310 C 
BRANCH  23  25
HETATM   25  C2  UNL     1      29.874  10.663  48.646  1.00  0.00     0.220 C 
HETATM   26  C1  UNL     1      30.739  10.012  49.663  1.00  0.00     0.043 C 
BRANCH  25  27
HETATM   27  C3  UNL     1      28.451  10.270  48.756  1.00  0.00     0.065 C 
BRANCH  27  28
HETATM   28  C4  UNL     1      28.086   9.276  49.793  1.00  0.00     0.273 C 
BRANCH  28  29
HETATM   29  N1  UNL     1      27.280   8.220  49.147  1.00  0.00     0.080 N 
HETATM   30  C5  UNL     1      26.187   7.878  50.078  1.00  0.00     0.309 C 
HETATM   31  C6  UNL     1      26.588   8.762  47.979  1.00  0.00     0.309 C 
ENDBRANCH  28  29
ENDBRANCH  27  28
ENDBRANCH  25  27
ENDBRANCH  23  25
ENDBRANCH  22  23
ENDBRANCH   1  22
BRANCH  10  32
HETATM   32  C23 UNL     1      30.375   5.940  48.367  1.00  0.00     0.142 C 
HETATM   33 CL1  UNL     1      28.716   5.296  48.296  1.00  0.00    -0.126 Cl
ENDBRANCH  10  32
TORSDOF 10
ENDMDL
MODEL 7
REMARK VINA RESULT:      -6.3      1.691      2.323
REMARK  10 active torsions:
REMARK  status: ('A' for Active; 'I' for Inactive)
REMARK    1  A    between atoms: C2_2  and  C3_3 
REMARK    2  A    between atoms: C2_2  and  N2_8 
REMARK    3  A    between atoms: C3_3  and  C4_4 
REMARK    4  A    between atoms: C4_4  and  N1_5 
REMARK    5  A    between atoms: N2_8  and  C8_10 
REMARK    6  A    between atoms: C8_10  and  C9_11 
REMARK    7  A    between atoms: C14_18  and  N5_19 
REMARK    8  A    between atoms: C17_22  and  N6_23 
REMARK    9  A    between atoms: C19_25  and  C20_26 
REMARK   10  A    between atoms: C22_29  and  C23_30 
ROOT
HETATM    1  C9  UNL     1      23.121   1.716  51.600  1.00  0.00    -0.006 A 
HETATM    2  C10 UNL     1      24.381   1.787  51.271  1.00  0.00     0.107 A 
HETATM    3  N3  UNL     1      25.116   2.866  50.734  1.00  0.00    -0.316 N 
HETATM    4  C11 UNL     1      26.386   3.043  50.363  1.00  0.00     0.213 A 
HETATM    5  N4  UNL     1      26.533   4.298  49.907  1.00  0.00    -0.254 NA
HETATM    6  C12 UNL     1      25.346   4.888  49.999  1.00  0.00     0.146 A 
HETATM    7  C13 UNL     1      24.435   3.979  50.527  1.00  0.00     0.062 A 
HETATM    8  C14 UNL     1      22.995   4.199  50.809  1.00  0.00     0.174 A 
HETATM    9  C21 UNL     1      22.360   2.968  51.341  1.00  0.00    -0.022 A 
HETATM   10  C22 UNL     1      21.036   3.019  51.589  1.00  0.00    -0.002 C 
ENDROOT
BRANCH   8  11
HETATM   11  N5  UNL     1      22.411   4.710  49.606  1.00  0.00    -0.344 N 
HETATM   12  C15 UNL     1      22.395   3.808  48.487  1.00  0.00     0.090 A 
HETATM   13  C16 UNL     1      21.876   4.270  47.352  1.00  0.00     0.029 A 
HETATM   14  C17 UNL     1      21.305   5.613  47.087  1.00  0.00     0.266 A 
HETATM   15  C18 UNL     1      21.405   6.398  48.342  1.00  0.00     0.040 A 
HETATM   16  C19 UNL     1      21.899   6.033  49.512  1.00  0.00     0.039 A 
BRANCH  14  17
HETATM   17  N6  UNL     1      19.932   5.534  46.645  1.00  0.00     0.090 N 
HETATM   18  H27 UNL     1      19.876   5.087  45.721  1.00  0.00     0.314 HD
HETATM   19  H28 UNL     1      19.298   5.129  47.355  1.00  0.00     0.314 HD
ENDBRANCH  14  17
BRANCH  16  20
HETATM   20  C20 UNL     1      21.921   6.960  50.649  1.00  0.00     0.279 C 
HETATM   21  F1  UNL     1      22.157   8.277  50.291  1.00  0.00    -0.249 F 
ENDBRANCH  16  20
ENDBRANCH   8  11
BRANCH   1  22
HETATM   22  C8  UNL     1      22.338   0.603  52.164  1.00  0.00     0.313 C 
BRANCH  22  23
HETATM   23  N2  UNL     1      22.424   0.497  53.614  1.00  0.00     0.092 N 
HETATM   24  C7  UNL     1      21.093   0.443  54.199  1.00  0.00     0.310 C 
BRANCH  23  25
HETATM   25  C2  UNL     1      23.202  -0.671  53.985  1.00  0.00     0.220 C 
HETATM   26  C1  UNL     1      22.584  -1.564  54.999  1.00  0.00     0.043 C 
BRANCH  25  27
HETATM   27  C3  UNL     1      24.645  -0.436  54.222  1.00  0.00     0.065 C 
BRANCH  27  28
HETATM   28  C4  UNL     1      25.604  -0.960  53.221  1.00  0.00     0.273 C 
BRANCH  28  29
HETATM   29  N1  UNL     1      26.802  -0.097  53.244  1.00  0.00     0.080 N 
HETATM   30  C5  UNL     1      26.870   0.517  54.584  1.00  0.00     0.309 C 
HETATM   31  C6  UNL     1      28.010  -0.916  53.172  1.00  0.00     0.309 C 
ENDBRANCH  28  29
ENDBRANCH  27  28
ENDBRANCH  25  27
ENDBRANCH  23  25
ENDBRANCH  22  23
ENDBRANCH   1  22
BRANCH  10  32
HETATM   32  C23 UNL     1      19.842   3.849  51.555  1.00  0.00     0.142 C 
HETATM   33 CL1  UNL     1      19.044   3.769  49.965  1.00  0.00    -0.126 Cl
ENDBRANCH  10  32
TORSDOF 10
ENDMDL
MODEL 8
REMARK VINA RESULT:      -6.2      3.745      4.873
REMARK  10 active torsions:
REMARK  status: ('A' for Active; 'I' for Inactive)
REMARK    1  A    between atoms: C2_2  and  C3_3 
REMARK    2  A    between atoms: C2_2  and  N2_8 
REMARK    3  A    between atoms: C3_3  and  C4_4 
REMARK    4  A    between atoms: C4_4  and  N1_5 
REMARK    5  A    between atoms: N2_8  and  C8_10 
REMARK    6  A    between atoms: C8_10  and  C9_11 
REMARK    7  A    between atoms: C14_18  and  N5_19 
REMARK    8  A    between atoms: C17_22  and  N6_23 
REMARK    9  A    between atoms: C19_25  and  C20_26 
REMARK   10  A    between atoms: C22_29  and  C23_30 
ROOT
HETATM    1  C9  UNL     1      21.975   1.402  52.234  1.00  0.00    -0.006 A 
HETATM    2  C10 UNL     1      22.775   2.424  52.108  1.00  0.00     0.107 A 
HETATM    3  N3  UNL     1      22.486   3.761  51.759  1.00  0.00    -0.316 N 
HETATM    4  C11 UNL     1      23.215   4.868  51.599  1.00  0.00     0.213 A 
HETATM    5  N4  UNL     1      22.401   5.877  51.250  1.00  0.00    -0.254 NA
HETATM    6  C12 UNL     1      21.168   5.383  51.196  1.00  0.00     0.146 A 
HETATM    7  C13 UNL     1      21.215   4.031  51.520  1.00  0.00     0.062 A 
HETATM    8  C14 UNL     1      20.080   3.076  51.590  1.00  0.00     0.174 A 
HETATM    9  C21 UNL     1      20.550   1.713  51.941  1.00  0.00    -0.022 A 
HETATM   10  C22 UNL     1      19.621   0.738  51.985  1.00  0.00    -0.002 C 
ENDROOT
BRANCH   8  11
HETATM   11  N5  UNL     1      19.379   3.175  50.346  1.00  0.00    -0.344 N 
HETATM   12  C15 UNL     1      20.109   2.755  49.182  1.00  0.00     0.090 A 
HETATM   13  C16 UNL     1      19.484   2.858  48.013  1.00  0.00     0.029 A 
HETATM   14  C17 UNL     1      18.113   3.357  47.749  1.00  0.00     0.266 A 
HETATM   15  C18 UNL     1      17.517   3.740  49.054  1.00  0.00     0.040 A 
HETATM   16  C19 UNL     1      18.051   3.676  50.260  1.00  0.00     0.039 A 
BRANCH  14  17
HETATM   17  N6  UNL     1      17.296   2.363  47.091  1.00  0.00     0.090 N 
HETATM   18  H27 UNL     1      17.465   1.433  47.498  1.00  0.00     0.314 HD
HETATM   19  H28 UNL     1      16.298   2.629  47.033  1.00  0.00     0.314 HD
ENDBRANCH  14  17
BRANCH  16  20
HETATM   20  C20 UNL     1      17.305   4.114  51.445  1.00  0.00     0.279 C 
HETATM   21  F1  UNL     1      16.462   3.145  51.963  1.00  0.00    -0.249 F 
ENDBRANCH  16  20
ENDBRANCH   8  11
BRANCH   1  22
HETATM   22  C8  UNL     1      22.256   0.003  52.600  1.00  0.00     0.313 C 
BRANCH  22  23
HETATM   23  N2  UNL     1      22.513  -0.195  54.021  1.00  0.00     0.092 N 
HETATM   24  C7  UNL     1      21.462  -1.002  54.619  1.00  0.00     0.310 C 
BRANCH  23  25
HETATM   25  C2  UNL     1      23.814  -0.810  54.213  1.00  0.00     0.220 C 
HETATM   26  C1  UNL     1      24.100  -1.301  55.586  1.00  0.00     0.043 C 
BRANCH  25  27
HETATM   27  C3  UNL     1      24.960  -0.101  53.599  1.00  0.00     0.065 C 
BRANCH  27  28
HETATM   28  C4  UNL     1      26.324  -0.579  53.926  1.00  0.00     0.273 C 
BRANCH  28  29
HETATM   29  N1  UNL     1      27.051   0.532  54.574  1.00  0.00     0.080 N 
HETATM   30  C5  UNL     1      28.472   0.139  54.643  1.00  0.00     0.309 C 
HETATM   31  C6  UNL     1      27.054   1.704  53.701  1.00  0.00     0.309 C 
ENDBRANCH  28  29
ENDBRANCH  27  28
ENDBRANCH  25  27
ENDBRANCH  23  25
ENDBRANCH  22  23
ENDBRANCH   1  22
BRANCH  10  32
HETATM   32  C23 UNL     1      18.212   0.417  51.820  1.00  0.00     0.142 C 
HETATM   33 CL1  UNL     1      17.821   0.080  50.116  1.00  0.00    -0.126 Cl
ENDBRANCH  10  32
TORSDOF 10
ENDMDL
MODEL 9
REMARK VINA RESULT:      -6.0      2.000      2.308
REMARK  10 active torsions:
REMARK  status: ('A' for Active; 'I' for Inactive)
REMARK    1  A    between atoms: C2_2  and  C3_3 
REMARK    2  A    between atoms: C2_2  and  N2_8 
REMARK    3  A    between atoms: C3_3  and  C4_4 
REMARK    4  A    between atoms: C4_4  and  N1_5 
REMARK    5  A    between atoms: N2_8  and  C8_10 
REMARK    6  A    between atoms: C8_10  and  C9_11 
REMARK    7  A    between atoms: C14_18  and  N5_19 
REMARK    8  A    between atoms: C17_22  and  N6_23 
REMARK    9  A    between atoms: C19_25  and  C20_26 
REMARK   10  A    between atoms: C22_29  and  C23_30 
ROOT
HETATM    1  C9  UNL     1      24.062   3.192  50.495  1.00  0.00    -0.006 A 
HETATM    2  C10 UNL     1      25.075   3.885  50.054  1.00  0.00     0.107 A 
HETATM    3  N3  UNL     1      25.094   5.073  49.290  1.00  0.00    -0.316 N 
HETATM    4  C11 UNL     1      26.056   5.851  48.790  1.00  0.00     0.213 A 
HETATM    5  N4  UNL     1      25.487   6.871  48.127  1.00  0.00    -0.254 NA
HETATM    6  C12 UNL     1      24.171   6.713  48.223  1.00  0.00     0.146 A 
HETATM    7  C13 UNL     1      23.913   5.566  48.965  1.00  0.00     0.062 A 
HETATM    8  C14 UNL     1      22.588   5.002  49.328  1.00  0.00     0.174 A 
HETATM    9  C21 UNL     1      22.738   3.745  50.104  1.00  0.00    -0.022 A 
HETATM   10  C22 UNL     1      21.606   3.101  50.450  1.00  0.00    -0.002 C 
ENDROOT
BRANCH   8  11
HETATM   11  N5  UNL     1      21.843   4.879  48.112  1.00  0.00    -0.344 N 
HETATM   12  C15 UNL     1      22.331   3.904  47.176  1.00  0.00     0.090 A 
HETATM   13  C16 UNL     1      21.666   3.788  46.030  1.00  0.00     0.029 A 
HETATM   14  C17 UNL     1      20.471   4.544  45.585  1.00  0.00     0.266 A 
HETATM   15  C18 UNL     1      20.113   5.494  46.668  1.00  0.00     0.040 A 
HETATM   16  C19 UNL     1      20.705   5.684  47.834  1.00  0.00     0.039 A 
BRANCH  14  17
HETATM   17  N6  UNL     1      19.360   3.668  45.291  1.00  0.00     0.090 N 
HETATM   18  H27 UNL     1      18.468   4.167  45.408  1.00  0.00     0.314 HD
HETATM   19  H28 UNL     1      19.459   3.175  44.387  1.00  0.00     0.314 HD
ENDBRANCH  14  17
BRANCH  16  20
HETATM   20  C20 UNL     1      20.208   6.686  48.783  1.00  0.00     0.279 C 
HETATM   21  F1  UNL     1      19.311   6.181  49.710  1.00  0.00    -0.249 F 
ENDBRANCH  16  20
ENDBRANCH   8  11
BRANCH   1  22
HETATM   22  C8  UNL     1      24.021   1.955  51.295  1.00  0.00     0.313 C 
BRANCH  22  23
HETATM   23  N2  UNL     1      25.180   1.774  52.159  1.00  0.00     0.092 N 
HETATM   24  C7  UNL     1      25.005   2.509  53.402  1.00  0.00     0.310 C 
BRANCH  23  25
HETATM   25  C2  UNL     1      25.396   0.362  52.416  1.00  0.00     0.220 C 
HETATM   26  C1  UNL     1      24.907  -0.139  53.727  1.00  0.00     0.043 C 
BRANCH  25  27
HETATM   27  C3  UNL     1      26.734  -0.162  52.057  1.00  0.00     0.065 C 
BRANCH  27  28
HETATM   28  C4  UNL     1      27.477  -0.925  53.087  1.00  0.00     0.273 C 
BRANCH  28  29
HETATM   29  N1  UNL     1      28.655  -0.127  53.483  1.00  0.00     0.080 N 
HETATM   30  C5  UNL     1      28.469   0.249  54.897  1.00  0.00     0.309 C 
HETATM   31  C6  UNL     1      29.849  -0.969  53.498  1.00  0.00     0.309 C 
ENDBRANCH  28  29
ENDBRANCH  27  28
ENDBRANCH  25  27
ENDBRANCH  23  25
ENDBRANCH  22  23
ENDBRANCH   1  22
BRANCH  10  32
HETATM   32  C23 UNL     1      20.152   3.112  50.384  1.00  0.00     0.142 C 
HETATM   33 CL1  UNL     1      19.567   2.317  48.902  1.00  0.00    -0.126 Cl
ENDBRANCH  10  32
TORSDOF 10
ENDMDL
