MODEL 1
REMARK VINA RESULT:      -7.7      0.000      0.000
REMARK  8 active torsions:
REMARK  status: ('A' for Active; 'I' for Inactive)
REMARK    1  A    between atoms: C7_7  and  C8_8 
REMARK    2  A    between atoms: C8_8  and  N1_11 
REMARK       I    between atoms: N1_11  and  C10_12 
REMARK    3  A    between atoms: C10_12  and  C11_14 
REMARK    4  A    between atoms: C14_17  and  N2_18 
REMARK    5  A    between atoms: N2_18  and  C15_19 
REMARK    6  A    between atoms: N2_18  and  C17_22 
REMARK    7  A    between atoms: C15_19  and  C16_20 
REMARK    8  A    between atoms: C17_22  and  C18_23 
ROOT
HETATM    1  N1  UNL     1      24.868   1.123  51.602  1.00  0.00    -0.320 N 
HETATM    2  C10 UNL     1      23.808   1.577  52.430  1.00  0.00     0.256 C 
HETATM    3  O1  UNL     1      24.044   2.508  53.273  1.00  0.00    -0.267 OA
HETATM    4  H9  UNL     1      24.709   0.374  50.906  1.00  0.00     0.169 HD
ENDROOT
BRANCH   2   5
HETATM    5  C11 UNL     1      22.450   1.048  52.386  1.00  0.00     0.032 A 
HETATM    6  C12 UNL     1      21.841   0.714  53.559  1.00  0.00     0.019 A 
HETATM    7  C13 UNL     1      20.562   0.213  53.501  1.00  0.00     0.030 A 
HETATM    8  C14 UNL     1      19.796   0.003  52.378  1.00  0.00     0.030 A 
HETATM    9  C19 UNL     1      20.472   0.362  51.236  1.00  0.00     0.030 A 
HETATM   10  C20 UNL     1      21.752   0.867  51.213  1.00  0.00     0.019 A 
BRANCH   8  11
HETATM   11  N2  UNL     1      18.466  -0.484  52.285  1.00  0.00    -0.379 N 
BRANCH  11  12
HETATM   12  C15 UNL     1      17.718  -0.202  51.075  1.00  0.00     0.138 C 
BRANCH  12  13
HETATM   13  C16 UNL     1      16.282  -0.624  51.247  1.00  0.00     0.134 C 
HETATM   14 CL1  UNL     1      15.191   0.774  50.941  1.00  0.00    -0.129 Cl
ENDBRANCH  12  13
ENDBRANCH  11  12
BRANCH  11  15
HETATM   15  C17 UNL     1      17.592  -1.205  53.135  1.00  0.00     0.138 C 
BRANCH  15  16
HETATM   16  C18 UNL     1      18.118  -2.459  53.795  1.00  0.00     0.134 C 
HETATM   17 CL2  UNL     1      16.981  -3.821  53.418  1.00  0.00    -0.129 Cl
ENDBRANCH  15  16
ENDBRANCH  11  15
ENDBRANCH   8  11
ENDBRANCH   2   5
BRANCH   1  18
HETATM   18  C8  UNL     1      26.188   1.640  51.660  1.00  0.00     0.071 C 
HETATM   19  C9  UNL     1      26.384   2.528  50.709  1.00  0.00     0.431 C 
HETATM   20  F1  UNL     1      25.662   3.068  49.698  1.00  0.00    -0.429 F 
BRANCH  18  21
HETATM   21  C7  UNL     1      27.248   1.317  52.586  1.00  0.00    -0.001 A 
HETATM   22  C2  UNL     1      27.512   0.027  52.922  1.00  0.00    -0.050 A 
HETATM   23  C1  UNL     1      26.778  -1.129  52.394  1.00  0.00     0.049 C 
HETATM   24  C3  UNL     1      28.562  -0.138  53.835  1.00  0.00     0.007 A 
HETATM   25  C4  UNL     1      29.319   0.863  54.397  1.00  0.00     0.001 A 
HETATM   26  C5  UNL     1      28.979   2.154  53.995  1.00  0.00     0.001 A 
HETATM   27  C6  UNL     1      27.952   2.356  53.100  1.00  0.00     0.014 A 
ENDBRANCH  18  21
ENDBRANCH   1  18
TORSDOF 8
ENDMDL
MODEL 2
REMARK VINA RESULT:      -7.5      6.336     10.047
REMARK  8 active torsions:
REMARK  status: ('A' for Active; 'I' for Inactive)
REMARK    1  A    between atoms: C7_7  and  C8_8 
REMARK    2  A    between atoms: C8_8  and  N1_11 
REMARK       I    between atoms: N1_11  and  C10_12 
REMARK    3  A    between atoms: C10_12  and  C11_14 
REMARK    4  A    between atoms: C14_17  and  N2_18 
REMARK    5  A    between atoms: N2_18  and  C15_19 
REMARK    6  A    between atoms: N2_18  and  C17_22 
REMARK    7  A    between atoms: C15_19  and  C16_20 
REMARK    8  A    between atoms: C17_22  and  C18_23 
ROOT
HETATM    1  N1  UNL     1      24.615   4.240  51.445  1.00  0.00    -0.320 N 
HETATM    2  C10 UNL     1      24.873   4.228  50.048  1.00  0.00     0.256 C 
HETATM    3  O1  UNL     1      24.098   3.554  49.288  1.00  0.00    -0.267 OA
HETATM    4  H9  UNL     1      25.221   4.779  52.088  1.00  0.00     0.169 HD
ENDROOT
BRANCH   2   5
HETATM    5  C11 UNL     1      25.976   4.939  49.413  1.00  0.00     0.032 A 
HETATM    6  C12 UNL     1      27.107   4.244  49.102  1.00  0.00     0.019 A 
HETATM    7  C13 UNL     1      28.140   4.929  48.506  1.00  0.00     0.030 A 
HETATM    8  C14 UNL     1      28.177   6.263  48.172  1.00  0.00     0.030 A 
HETATM    9  C19 UNL     1      27.005   6.898  48.514  1.00  0.00     0.030 A 
HETATM   10  C20 UNL     1      25.930   6.282  49.113  1.00  0.00     0.019 A 
BRANCH   8  11
HETATM   11  N2  UNL     1      29.211   6.993  47.532  1.00  0.00    -0.379 N 
BRANCH  11  12
HETATM   12  C15 UNL     1      28.925   8.347  47.097  1.00  0.00     0.138 C 
BRANCH  12  13
HETATM   13  C16 UNL     1      29.846   9.316  47.791  1.00  0.00     0.134 C 
HETATM   14 CL1  UNL     1      29.340   9.522  49.506  1.00  0.00    -0.129 Cl
ENDBRANCH  12  13
ENDBRANCH  11  12
BRANCH  11  15
HETATM   15  C17 UNL     1      30.548   6.726  47.148  1.00  0.00     0.138 C 
BRANCH  15  16
HETATM   16  C18 UNL     1      31.400   5.890  48.076  1.00  0.00     0.134 C 
HETATM   17 CL2  UNL     1      31.639   6.813  49.618  1.00  0.00    -0.129 Cl
ENDBRANCH  15  16
ENDBRANCH  11  15
ENDBRANCH   8  11
ENDBRANCH   2   5
BRANCH   1  18
HETATM   18  C8  UNL     1      23.543   3.537  52.052  1.00  0.00     0.071 C 
HETATM   19  C9  UNL     1      22.518   4.335  52.258  1.00  0.00     0.431 C 
HETATM   20  F1  UNL     1      22.224   5.640  52.044  1.00  0.00    -0.429 F 
BRANCH  18  21
HETATM   21  C7  UNL     1      23.472   2.146  52.434  1.00  0.00    -0.001 A 
HETATM   22  C2  UNL     1      24.474   1.565  53.146  1.00  0.00    -0.050 A 
HETATM   23  C1  UNL     1      25.683   2.267  53.590  1.00  0.00     0.049 C 
HETATM   24  C3  UNL     1      24.275   0.209  53.439  1.00  0.00     0.007 A 
HETATM   25  C4  UNL     1      23.188  -0.552  53.079  1.00  0.00     0.001 A 
HETATM   26  C5  UNL     1      22.210   0.125  52.352  1.00  0.00     0.001 A 
HETATM   27  C6  UNL     1      22.370   1.458  52.043  1.00  0.00     0.014 A 
ENDBRANCH  18  21
ENDBRANCH   1  18
TORSDOF 8
ENDMDL
MODEL 3
REMARK VINA RESULT:      -7.4      6.258      9.144
REMARK  8 active torsions:
REMARK  status: ('A' for Active; 'I' for Inactive)
REMARK    1  A    between atoms: C7_7  and  C8_8 
REMARK    2  A    between atoms: C8_8  and  N1_11 
REMARK       I    between atoms: N1_11  and  C10_12 
REMARK    3  A    between atoms: C10_12  and  C11_14 
REMARK    4  A    between atoms: C14_17  and  N2_18 
REMARK    5  A    between atoms: N2_18  and  C15_19 
REMARK    6  A    between atoms: N2_18  and  C17_22 
REMARK    7  A    between atoms: C15_19  and  C16_20 
REMARK    8  A    between atoms: C17_22  and  C18_23 
ROOT
HETATM    1  N1  UNL     1      26.479   3.121  51.818  1.00  0.00    -0.320 N 
HETATM    2  C10 UNL     1      25.867   3.410  50.569  1.00  0.00     0.256 C 
HETATM    3  O1  UNL     1      24.957   2.623  50.136  1.00  0.00    -0.267 OA
HETATM    4  H9  UNL     1      27.215   3.741  52.199  1.00  0.00     0.169 HD
ENDROOT
BRANCH   2   5
HETATM    5  C11 UNL     1      26.209   4.555  49.734  1.00  0.00     0.032 A 
HETATM    6  C12 UNL     1      27.391   4.537  49.054  1.00  0.00     0.019 A 
HETATM    7  C13 UNL     1      27.702   5.626  48.274  1.00  0.00     0.030 A 
HETATM    8  C14 UNL     1      26.949   6.762  48.085  1.00  0.00     0.030 A 
HETATM    9  C19 UNL     1      25.774   6.709  48.799  1.00  0.00     0.030 A 
HETATM   10  C20 UNL     1      25.395   5.658  49.602  1.00  0.00     0.019 A 
BRANCH   8  11
HETATM   11  N2  UNL     1      27.225   7.888  47.267  1.00  0.00    -0.379 N 
BRANCH  11  12
HETATM   12  C15 UNL     1      26.147   8.429  46.462  1.00  0.00     0.138 C 
BRANCH  12  13
HETATM   13  C16 UNL     1      26.036   9.915  46.681  1.00  0.00     0.134 C 
HETATM   14 CL1  UNL     1      25.030  10.246  48.137  1.00  0.00    -0.129 Cl
ENDBRANCH  12  13
ENDBRANCH  11  12
BRANCH  11  15
HETATM   15  C17 UNL     1      28.369   8.673  46.980  1.00  0.00     0.138 C 
BRANCH  15  16
HETATM   16  C18 UNL     1      29.367   8.905  48.091  1.00  0.00     0.134 C 
HETATM   17 CL2  UNL     1      28.472   9.522  49.543  1.00  0.00    -0.129 Cl
ENDBRANCH  15  16
ENDBRANCH  11  15
ENDBRANCH   8  11
ENDBRANCH   2   5
BRANCH   1  18
HETATM   18  C8  UNL     1      26.142   1.999  52.617  1.00  0.00     0.071 C 
HETATM   19  C9  UNL     1      25.022   2.211  53.274  1.00  0.00     0.431 C 
HETATM   20  F1  UNL     1      24.118   3.213  53.385  1.00  0.00    -0.429 F 
BRANCH  18  21
HETATM   21  C7  UNL     1      26.850   0.749  52.767  1.00  0.00    -0.001 A 
HETATM   22  C2  UNL     1      28.086   0.709  53.331  1.00  0.00    -0.050 A 
HETATM   23  C1  UNL     1      28.800   1.888  53.834  1.00  0.00     0.049 C 
HETATM   24  C3  UNL     1      28.655  -0.570  53.406  1.00  0.00     0.007 A 
HETATM   25  C4  UNL     1      28.085  -1.743  52.970  1.00  0.00     0.001 A 
HETATM   26  C5  UNL     1      26.818  -1.608  52.406  1.00  0.00     0.001 A 
HETATM   27  C6  UNL     1      26.225  -0.368  52.315  1.00  0.00     0.014 A 
ENDBRANCH  18  21
ENDBRANCH   1  18
TORSDOF 8
ENDMDL
MODEL 4
REMARK VINA RESULT:      -7.4      6.193     10.099
REMARK  8 active torsions:
REMARK  status: ('A' for Active; 'I' for Inactive)
REMARK    1  A    between atoms: C7_7  and  C8_8 
REMARK    2  A    between atoms: C8_8  and  N1_11 
REMARK       I    between atoms: N1_11  and  C10_12 
REMARK    3  A    between atoms: C10_12  and  C11_14 
REMARK    4  A    between atoms: C14_17  and  N2_18 
REMARK    5  A    between atoms: N2_18  and  C15_19 
REMARK    6  A    between atoms: N2_18  and  C17_22 
REMARK    7  A    between atoms: C15_19  and  C16_20 
REMARK    8  A    between atoms: C17_22  and  C18_23 
ROOT
HETATM    1  N1  UNL     1      24.457   4.301  51.405  1.00  0.00    -0.320 N 
HETATM    2  C10 UNL     1      24.836   4.140  50.046  1.00  0.00     0.256 C 
HETATM    3  O1  UNL     1      24.192   3.304  49.324  1.00  0.00    -0.267 OA
HETATM    4  H9  UNL     1      24.955   4.972  52.014  1.00  0.00     0.169 HD
ENDROOT
BRANCH   2   5
HETATM    5  C11 UNL     1      25.924   4.870  49.407  1.00  0.00     0.032 A 
HETATM    6  C12 UNL     1      27.080   4.204  49.124  1.00  0.00     0.019 A 
HETATM    7  C13 UNL     1      28.099   4.907  48.524  1.00  0.00     0.030 A 
HETATM    8  C14 UNL     1      28.098   6.234  48.161  1.00  0.00     0.030 A 
HETATM    9  C19 UNL     1      26.903   6.839  48.474  1.00  0.00     0.030 A 
HETATM   10  C20 UNL     1      25.841   6.204  49.076  1.00  0.00     0.019 A 
BRANCH   8  11
HETATM   11  N2  UNL     1      29.117   6.981  47.516  1.00  0.00    -0.379 N 
BRANCH  11  12
HETATM   12  C15 UNL     1      30.452   6.415  47.464  1.00  0.00     0.138 C 
BRANCH  12  13
HETATM   13  C16 UNL     1      31.341   7.101  48.468  1.00  0.00     0.134 C 
HETATM   14 CL1  UNL     1      31.699   5.983  49.833  1.00  0.00    -0.129 Cl
ENDBRANCH  12  13
ENDBRANCH  11  12
BRANCH  11  15
HETATM   15  C17 UNL     1      29.196   8.245  46.882  1.00  0.00     0.138 C 
BRANCH  15  16
HETATM   16  C18 UNL     1      28.941   8.309  45.393  1.00  0.00     0.134 C 
HETATM   17 CL2  UNL     1      27.156   8.478  45.127  1.00  0.00    -0.129 Cl
ENDBRANCH  15  16
ENDBRANCH  11  15
ENDBRANCH   8  11
ENDBRANCH   2   5
BRANCH   1  18
HETATM   18  C8  UNL     1      23.402   3.578  52.017  1.00  0.00     0.071 C 
HETATM   19  C9  UNL     1      22.359   4.355  52.220  1.00  0.00     0.431 C 
HETATM   20  F1  UNL     1      22.036   5.651  51.999  1.00  0.00    -0.429 F 
BRANCH  18  21
HETATM   21  C7  UNL     1      23.362   2.188  52.407  1.00  0.00    -0.001 A 
HETATM   22  C2  UNL     1      24.369   1.638  53.135  1.00  0.00    -0.050 A 
HETATM   23  C1  UNL     1      25.554   2.374  53.591  1.00  0.00     0.049 C 
HETATM   24  C3  UNL     1      24.201   0.279  53.435  1.00  0.00     0.007 A 
HETATM   25  C4  UNL     1      23.139  -0.513  53.065  1.00  0.00     0.001 A 
HETATM   26  C5  UNL     1      22.154   0.134  52.321  1.00  0.00     0.001 A 
HETATM   27  C6  UNL     1      22.283   1.469  52.006  1.00  0.00     0.014 A 
ENDBRANCH  18  21
ENDBRANCH   1  18
TORSDOF 8
ENDMDL
MODEL 5
REMARK VINA RESULT:      -7.3      6.052      9.379
REMARK  8 active torsions:
REMARK  status: ('A' for Active; 'I' for Inactive)
REMARK    1  A    between atoms: C7_7  and  C8_8 
REMARK    2  A    between atoms: C8_8  and  N1_11 
REMARK       I    between atoms: N1_11  and  C10_12 
REMARK    3  A    between atoms: C10_12  and  C11_14 
REMARK    4  A    between atoms: C14_17  and  N2_18 
REMARK    5  A    between atoms: N2_18  and  C15_19 
REMARK    6  A    between atoms: N2_18  and  C17_22 
REMARK    7  A    between atoms: C15_19  and  C16_20 
REMARK    8  A    between atoms: C17_22  and  C18_23 
ROOT
HETATM    1  N1  UNL     1      26.422   3.223  51.746  1.00  0.00    -0.320 N 
HETATM    2  C10 UNL     1      25.946   3.466  50.430  1.00  0.00     0.256 C 
HETATM    3  O1  UNL     1      25.145   2.621  49.902  1.00  0.00    -0.267 OA
HETATM    4  H9  UNL     1      27.068   3.890  52.203  1.00  0.00     0.169 HD
ENDROOT
BRANCH   2   5
HETATM    5  C11 UNL     1      26.313   4.626  49.627  1.00  0.00     0.032 A 
HETATM    6  C12 UNL     1      27.488   4.597  48.937  1.00  0.00     0.019 A 
HETATM    7  C13 UNL     1      27.822   5.701  48.187  1.00  0.00     0.030 A 
HETATM    8  C14 UNL     1      27.099   6.861  48.039  1.00  0.00     0.030 A 
HETATM    9  C19 UNL     1      25.929   6.819  48.761  1.00  0.00     0.030 A 
HETATM   10  C20 UNL     1      25.528   5.754  49.535  1.00  0.00     0.019 A 
BRANCH   8  11
HETATM   11  N2  UNL     1      27.398   8.004  47.253  1.00  0.00    -0.379 N 
BRANCH  11  12
HETATM   12  C15 UNL     1      28.722   8.104  46.668  1.00  0.00     0.138 C 
BRANCH  12  13
HETATM   13  C16 UNL     1      29.491   9.221  47.323  1.00  0.00     0.134 C 
HETATM   14 CL1  UNL     1      30.052   8.705  48.954  1.00  0.00    -0.129 Cl
ENDBRANCH  12  13
ENDBRANCH  11  12
BRANCH  11  15
HETATM   15  C17 UNL     1      26.707   9.182  46.877  1.00  0.00     0.138 C 
BRANCH  15  16
HETATM   16  C18 UNL     1      26.050   9.215  45.515  1.00  0.00     0.134 C 
HETATM   17 CL2  UNL     1      24.679   8.029  45.515  1.00  0.00    -0.129 Cl
ENDBRANCH  15  16
ENDBRANCH  11  15
ENDBRANCH   8  11
ENDBRANCH   2   5
BRANCH   1  18
HETATM   18  C8  UNL     1      26.064   2.085  52.514  1.00  0.00     0.071 C 
HETATM   19  C9  UNL     1      24.888   2.254  53.079  1.00  0.00     0.431 C 
HETATM   20  F1  UNL     1      23.942   3.222  53.119  1.00  0.00    -0.429 F 
BRANCH  18  21
HETATM   21  C7  UNL     1      26.802   0.861  52.718  1.00  0.00    -0.001 A 
HETATM   22  C2  UNL     1      28.039   0.877  53.282  1.00  0.00    -0.050 A 
HETATM   23  C1  UNL     1      28.724   2.094  53.732  1.00  0.00     0.049 C 
HETATM   24  C3  UNL     1      28.640  -0.383  53.412  1.00  0.00     0.007 A 
HETATM   25  C4  UNL     1      28.099  -1.588  53.028  1.00  0.00     0.001 A 
HETATM   26  C5  UNL     1      26.830  -1.509  52.460  1.00  0.00     0.001 A 
HETATM   27  C6  UNL     1      26.206  -0.289  52.315  1.00  0.00     0.014 A 
ENDBRANCH  18  21
ENDBRANCH   1  18
TORSDOF 8
ENDMDL
MODEL 6
REMARK VINA RESULT:      -7.3      3.973      5.213
REMARK  8 active torsions:
REMARK  status: ('A' for Active; 'I' for Inactive)
REMARK    1  A    between atoms: C7_7  and  C8_8 
REMARK    2  A    between atoms: C8_8  and  N1_11 
REMARK       I    between atoms: N1_11  and  C10_12 
REMARK    3  A    between atoms: C10_12  and  C11_14 
REMARK    4  A    between atoms: C14_17  and  N2_18 
REMARK    5  A    between atoms: N2_18  and  C15_19 
REMARK    6  A    between atoms: N2_18  and  C17_22 
REMARK    7  A    between atoms: C15_19  and  C16_20 
REMARK    8  A    between atoms: C17_22  and  C18_23 
ROOT
HETATM    1  N1  UNL     1      24.632   0.373  52.801  1.00  0.00    -0.320 N 
HETATM    2  C10 UNL     1      24.405   1.775  52.773  1.00  0.00     0.256 C 
HETATM    3  O1  UNL     1      24.989   2.508  53.643  1.00  0.00    -0.267 OA
HETATM    4  H9  UNL     1      24.179  -0.247  52.108  1.00  0.00     0.169 HD
ENDROOT
BRANCH   2   5
HETATM    5  C11 UNL     1      23.542   2.446  51.809  1.00  0.00     0.032 A 
HETATM    6  C12 UNL     1      22.976   1.705  50.814  1.00  0.00     0.019 A 
HETATM    7  C13 UNL     1      22.166   2.353  49.910  1.00  0.00     0.030 A 
HETATM    8  C14 UNL     1      21.844   3.690  49.884  1.00  0.00     0.030 A 
HETATM    9  C19 UNL     1      22.448   4.371  50.914  1.00  0.00     0.030 A 
HETATM   10  C20 UNL     1      23.271   3.795  51.855  1.00  0.00     0.019 A 
BRANCH   8  11
HETATM   11  N2  UNL     1      20.992   4.383  48.986  1.00  0.00    -0.379 N 
BRANCH  11  12
HETATM   12  C15 UNL     1      19.585   4.030  48.968  1.00  0.00     0.138 C 
BRANCH  12  13
HETATM   13  C16 UNL     1      18.862   4.742  50.081  1.00  0.00     0.134 C 
HETATM   14 CL1  UNL     1      18.656   3.634  51.485  1.00  0.00    -0.129 Cl
ENDBRANCH  12  13
ENDBRANCH  11  12
BRANCH  11  15
HETATM   15  C17 UNL     1      21.162   5.389  48.004  1.00  0.00     0.138 C 
BRANCH  15  16
HETATM   16  C18 UNL     1      22.411   5.347  47.153  1.00  0.00     0.134 C 
HETATM   17 CL2  UNL     1      23.726   6.239  48.026  1.00  0.00    -0.129 Cl
ENDBRANCH  15  16
ENDBRANCH  11  15
ENDBRANCH   8  11
ENDBRANCH   2   5
BRANCH   1  18
HETATM   18  C8  UNL     1      25.469  -0.269  53.750  1.00  0.00     0.071 C 
HETATM   19  C9  UNL     1      24.755  -0.801  54.718  1.00  0.00     0.431 C 
HETATM   20  F1  UNL     1      23.443  -0.893  55.042  1.00  0.00    -0.429 F 
BRANCH  18  21
HETATM   21  C7  UNL     1      26.908  -0.387  53.755  1.00  0.00    -0.001 A 
HETATM   22  C2  UNL     1      27.533  -1.350  53.027  1.00  0.00    -0.050 A 
HETATM   23  C1  UNL     1      26.836  -2.330  52.186  1.00  0.00     0.049 C 
HETATM   24  C3  UNL     1      28.930  -1.351  53.133  1.00  0.00     0.007 A 
HETATM   25  C4  UNL     1      29.692  -0.487  53.885  1.00  0.00     0.001 A 
HETATM   26  C5  UNL     1      28.969   0.467  54.598  1.00  0.00     0.001 A 
HETATM   27  C6  UNL     1      27.593   0.499  54.520  1.00  0.00     0.014 A 
ENDBRANCH  18  21
ENDBRANCH   1  18
TORSDOF 8
ENDMDL
MODEL 7
REMARK VINA RESULT:      -7.2      3.908      4.874
REMARK  8 active torsions:
REMARK  status: ('A' for Active; 'I' for Inactive)
REMARK    1  A    between atoms: C7_7  and  C8_8 
REMARK    2  A    between atoms: C8_8  and  N1_11 
REMARK       I    between atoms: N1_11  and  C10_12 
REMARK    3  A    between atoms: C10_12  and  C11_14 
REMARK    4  A    between atoms: C14_17  and  N2_18 
REMARK    5  A    between atoms: N2_18  and  C15_19 
REMARK    6  A    between atoms: N2_18  and  C17_22 
REMARK    7  A    between atoms: C15_19  and  C16_20 
REMARK    8  A    between atoms: C17_22  and  C18_23 
ROOT
HETATM    1  N1  UNL     1      24.651   0.432  52.928  1.00  0.00    -0.320 N 
HETATM    2  C10 UNL     1      24.491   1.844  52.915  1.00  0.00     0.256 C 
HETATM    3  O1  UNL     1      25.161   2.545  53.748  1.00  0.00    -0.267 OA
HETATM    4  H9  UNL     1      24.127  -0.163  52.264  1.00  0.00     0.169 HD
ENDROOT
BRANCH   2   5
HETATM    5  C11 UNL     1      23.603   2.559  52.006  1.00  0.00     0.032 A 
HETATM    6  C12 UNL     1      23.139   1.908  50.901  1.00  0.00     0.019 A 
HETATM    7  C13 UNL     1      22.305   2.597  50.052  1.00  0.00     0.030 A 
HETATM    8  C14 UNL     1      21.866   3.894  50.180  1.00  0.00     0.030 A 
HETATM    9  C19 UNL     1      22.372   4.485  51.314  1.00  0.00     0.030 A 
HETATM   10  C20 UNL     1      23.212   3.863  52.210  1.00  0.00     0.019 A 
BRANCH   8  11
HETATM   11  N2  UNL     1      20.985   4.624  49.340  1.00  0.00    -0.379 N 
BRANCH  11  12
HETATM   12  C15 UNL     1      21.552   5.347  48.218  1.00  0.00     0.138 C 
BRANCH  12  13
HETATM   13  C16 UNL     1      21.044   4.769  46.923  1.00  0.00     0.134 C 
HETATM   14 CL1  UNL     1      21.998   3.306  46.490  1.00  0.00    -0.129 Cl
ENDBRANCH  12  13
ENDBRANCH  11  12
BRANCH  11  15
HETATM   15  C17 UNL     1      19.592   4.879  49.316  1.00  0.00     0.138 C 
BRANCH  15  16
HETATM   16  C18 UNL     1      18.657   3.756  49.704  1.00  0.00     0.134 C 
HETATM   17 CL2  UNL     1      18.531   3.718  51.512  1.00  0.00    -0.129 Cl
ENDBRANCH  15  16
ENDBRANCH  11  15
ENDBRANCH   8  11
ENDBRANCH   2   5
BRANCH   1  18
HETATM   18  C8  UNL     1      25.512  -0.252  53.824  1.00  0.00     0.071 C 
HETATM   19  C9  UNL     1      24.823  -0.843  54.776  1.00  0.00     0.431 C 
HETATM   20  F1  UNL     1      23.519  -0.963  55.122  1.00  0.00    -0.429 F 
BRANCH  18  21
HETATM   21  C7  UNL     1      26.952  -0.357  53.793  1.00  0.00    -0.001 A 
HETATM   22  C2  UNL     1      27.567  -1.316  53.052  1.00  0.00    -0.050 A 
HETATM   23  C1  UNL     1      26.858  -2.303  52.230  1.00  0.00     0.049 C 
HETATM   24  C3  UNL     1      28.967  -1.304  53.122  1.00  0.00     0.007 A 
HETATM   25  C4  UNL     1      29.739  -0.433  53.854  1.00  0.00     0.001 A 
HETATM   26  C5  UNL     1      29.025   0.516  54.583  1.00  0.00     0.001 A 
HETATM   27  C6  UNL     1      27.648   0.536  54.540  1.00  0.00     0.014 A 
ENDBRANCH  18  21
ENDBRANCH   1  18
TORSDOF 8
ENDMDL
MODEL 8
REMARK VINA RESULT:      -7.2      7.082     11.118
REMARK  8 active torsions:
REMARK  status: ('A' for Active; 'I' for Inactive)
REMARK    1  A    between atoms: C7_7  and  C8_8 
REMARK    2  A    between atoms: C8_8  and  N1_11 
REMARK       I    between atoms: N1_11  and  C10_12 
REMARK    3  A    between atoms: C10_12  and  C11_14 
REMARK    4  A    between atoms: C14_17  and  N2_18 
REMARK    5  A    between atoms: N2_18  and  C15_19 
REMARK    6  A    between atoms: N2_18  and  C17_22 
REMARK    7  A    between atoms: C15_19  and  C16_20 
REMARK    8  A    between atoms: C17_22  and  C18_23 
ROOT
HETATM    1  N1  UNL     1      25.616   5.072  50.381  1.00  0.00    -0.320 N 
HETATM    2  C10 UNL     1      25.839   5.654  49.104  1.00  0.00     0.256 C 
HETATM    3  O1  UNL     1      24.829   5.910  48.363  1.00  0.00    -0.267 OA
HETATM    4  H9  UNL     1      26.411   4.857  51.006  1.00  0.00     0.169 HD
ENDROOT
BRANCH   2   5
HETATM    5  C11 UNL     1      27.155   5.982  48.571  1.00  0.00     0.032 A 
HETATM    6  C12 UNL     1      27.345   7.210  48.011  1.00  0.00     0.019 A 
HETATM    7  C13 UNL     1      28.592   7.504  47.510  1.00  0.00     0.030 A 
HETATM    8  C14 UNL     1      29.703   6.693  47.504  1.00  0.00     0.030 A 
HETATM    9  C19 UNL     1      29.438   5.475  48.084  1.00  0.00     0.030 A 
HETATM   10  C20 UNL     1      28.219   5.107  48.605  1.00  0.00     0.019 A 
BRANCH   8  11
HETATM   11  N2  UNL     1      31.008   6.974  47.024  1.00  0.00    -0.379 N 
BRANCH  11  12
HETATM   12  C15 UNL     1      31.575   8.280  47.305  1.00  0.00     0.138 C 
BRANCH  12  13
HETATM   13  C16 UNL     1      31.907   8.392  48.770  1.00  0.00     0.134 C 
HETATM   14 CL1  UNL     1      30.792   9.562  49.563  1.00  0.00    -0.129 Cl
ENDBRANCH  12  13
ENDBRANCH  11  12
BRANCH  11  15
HETATM   15  C17 UNL     1      31.975   6.278  46.258  1.00  0.00     0.138 C 
BRANCH  15  16
HETATM   16  C18 UNL     1      32.808   5.226  46.953  1.00  0.00     0.134 C 
HETATM   17 CL2  UNL     1      32.124   3.596  46.546  1.00  0.00    -0.129 Cl
ENDBRANCH  15  16
ENDBRANCH  11  15
ENDBRANCH   8  11
ENDBRANCH   2   5
BRANCH   1  18
HETATM   18  C8  UNL     1      24.330   4.751  50.884  1.00  0.00     0.071 C 
HETATM   19  C9  UNL     1      23.771   5.801  51.446  1.00  0.00     0.431 C 
HETATM   20  F1  UNL     1      24.103   7.096  51.667  1.00  0.00    -0.429 F 
BRANCH  18  21
HETATM   21  C7  UNL     1      23.630   3.488  50.843  1.00  0.00    -0.001 A 
HETATM   22  C2  UNL     1      23.719   2.606  51.874  1.00  0.00    -0.050 A 
HETATM   23  C1  UNL     1      24.500   2.841  53.093  1.00  0.00     0.049 C 
HETATM   24  C3  UNL     1      22.995   1.420  51.694  1.00  0.00     0.007 A 
HETATM   25  C4  UNL     1      22.230   1.088  50.600  1.00  0.00     0.001 A 
HETATM   26  C5  UNL     1      22.197   2.050  49.593  1.00  0.00     0.001 A 
HETATM   27  C6  UNL     1      22.896   3.229  49.732  1.00  0.00     0.014 A 
ENDBRANCH  18  21
ENDBRANCH   1  18
TORSDOF 8
ENDMDL
MODEL 9
REMARK VINA RESULT:      -7.2      5.062      7.274
REMARK  8 active torsions:
REMARK  status: ('A' for Active; 'I' for Inactive)
REMARK    1  A    between atoms: C7_7  and  C8_8 
REMARK    2  A    between atoms: C8_8  and  N1_11 
REMARK       I    between atoms: N1_11  and  C10_12 
REMARK    3  A    between atoms: C10_12  and  C11_14 
REMARK    4  A    between atoms: C14_17  and  N2_18 
REMARK    5  A    between atoms: N2_18  and  C15_19 
REMARK    6  A    between atoms: N2_18  and  C17_22 
REMARK    7  A    between atoms: C15_19  and  C16_20 
REMARK    8  A    between atoms: C17_22  and  C18_23 
ROOT
HETATM    1  N1  UNL     1      26.218   6.037  49.392  1.00  0.00    -0.320 N 
HETATM    2  C10 UNL     1      26.623   4.676  49.413  1.00  0.00     0.256 C 
HETATM    3  O1  UNL     1      27.562   4.303  48.630  1.00  0.00    -0.267 OA
HETATM    4  H9  UNL     1      25.464   6.372  50.016  1.00  0.00     0.169 HD
ENDROOT
BRANCH   2   5
HETATM    5  C11 UNL     1      26.033   3.659  50.275  1.00  0.00     0.032 A 
HETATM    6  C12 UNL     1      24.678   3.636  50.424  1.00  0.00     0.019 A 
HETATM    7  C13 UNL     1      24.136   2.673  51.244  1.00  0.00     0.030 A 
HETATM    8  C14 UNL     1      24.808   1.703  51.950  1.00  0.00     0.030 A 
HETATM    9  C19 UNL     1      26.166   1.787  51.752  1.00  0.00     0.030 A 
HETATM   10  C20 UNL     1      26.781   2.721  50.951  1.00  0.00     0.019 A 
BRANCH   8  11
HETATM   11  N2  UNL     1      24.280   0.679  52.780  1.00  0.00    -0.379 N 
BRANCH  11  12
HETATM   12  C15 UNL     1      25.128  -0.456  53.088  1.00  0.00     0.138 C 
BRANCH  12  13
HETATM   13  C16 UNL     1      25.373  -0.527  54.573  1.00  0.00     0.134 C 
HETATM   14 CL1  UNL     1      26.973   0.200  54.965  1.00  0.00    -0.129 Cl
ENDBRANCH  12  13
ENDBRANCH  11  12
BRANCH  11  15
HETATM   15  C17 UNL     1      23.039   0.434  53.417  1.00  0.00     0.138 C 
BRANCH  15  16
HETATM   16  C18 UNL     1      22.083  -0.536  52.760  1.00  0.00     0.134 C 
HETATM   17 CL2  UNL     1      21.484   0.208  51.219  1.00  0.00    -0.129 Cl
ENDBRANCH  15  16
ENDBRANCH  11  15
ENDBRANCH   8  11
ENDBRANCH   2   5
BRANCH   1  18
HETATM   18  C8  UNL     1      26.795   7.015  48.541  1.00  0.00     0.071 C 
HETATM   19  C9  UNL     1      25.938   7.395  47.617  1.00  0.00     0.431 C 
HETATM   20  F1  UNL     1      24.664   7.097  47.270  1.00  0.00    -0.429 F 
BRANCH  18  21
HETATM   21  C7  UNL     1      28.120   7.588  48.587  1.00  0.00    -0.001 A 
HETATM   22  C2  UNL     1      28.388   8.664  49.373  1.00  0.00    -0.050 A 
HETATM   23  C1  UNL     1      27.398   9.326  50.230  1.00  0.00     0.049 C 
HETATM   24  C3  UNL     1      29.713   9.118  49.313  1.00  0.00     0.007 A 
HETATM   25  C4  UNL     1      30.725   8.582  48.551  1.00  0.00     0.001 A 
HETATM   26  C5  UNL     1      30.359   7.482  47.778  1.00  0.00     0.001 A 
HETATM   27  C6  UNL     1      29.067   7.007  47.809  1.00  0.00     0.014 A 
ENDBRANCH  18  21
ENDBRANCH   1  18
TORSDOF 8
ENDMDL
