MODEL 1
REMARK VINA RESULT:      -6.9      0.000      0.000
REMARK  6 active torsions:
REMARK  status: ('A' for Active; 'I' for Inactive)
REMARK    1  A    between atoms: C4_4  and  O1_5 
REMARK    2  A    between atoms: C6_7  and  N1_8 
REMARK    3  A    between atoms: N1_8  and  C7_9 
REMARK    4  A    between atoms: C8_10  and  C9_11 
REMARK    5  A    between atoms: C9_11  and  O2_13 
REMARK    6  A    between atoms: O2_13  and  P1_14 
ROOT
HETATM    1  C1  UNL     1      27.018  -2.092  52.303  1.00  0.00     0.026 C 
HETATM    2  C2  UNL     1      26.529  -0.899  52.328  1.00  0.00    -0.014 C 
HETATM    3  C3  UNL     1      26.823   0.447  51.678  1.00  0.00     0.050 C 
HETATM    4  C4  UNL     1      26.478   1.632  52.263  1.00  0.00     0.101 C 
HETATM    5  C6  UNL     1      25.597   1.851  53.494  1.00  0.00     0.194 C 
HETATM    6  C11 UNL     1      24.289   1.056  53.302  1.00  0.00     0.038 C 
HETATM    7  C12 UNL     1      23.973  -0.305  53.210  1.00  0.00     0.033 C 
HETATM    8  C13 UNL     1      25.387  -0.806  53.335  1.00  0.00     0.067 C 
HETATM    9  N2  UNL     1      25.979  -1.108  54.533  1.00  0.00    -0.242 NA
HETATM   10  C14 UNL     1      26.292   0.189  55.321  1.00  0.00     0.231 C 
HETATM   11  N3  UNL     1      26.244   1.377  54.707  1.00  0.00    -0.240 NA
ENDROOT
BRANCH   5  12
HETATM   12  N1  UNL     1      25.271   3.223  53.535  1.00  0.00    -0.363 N 
HETATM   13  H7  UNL     1      25.834   3.984  53.977  1.00  0.00     0.162 HD
BRANCH  12  14
HETATM   14  C7  UNL     1      24.022   3.330  52.849  1.00  0.00     0.087 C 
HETATM   15  C8  UNL     1      23.301   4.418  52.667  1.00  0.00     0.055 C 
BRANCH  15  16
HETATM   16  C9  UNL     1      21.994   4.717  51.987  1.00  0.00     0.336 C 
HETATM   17  F1  UNL     1      22.093   5.719  51.066  1.00  0.00    -0.215 F 
BRANCH  16  18
HETATM   18  O2  UNL     1      21.647   3.552  51.307  1.00  0.00    -0.329 OA
BRANCH  18  19
HETATM   19  P1  UNL     1      20.179   2.909  51.960  1.00  0.00     0.012 P 
HETATM   20  C10 UNL     1      20.535   1.413  53.013  1.00  0.00     0.072 C 
HETATM   21  H11 UNL     1      19.303   2.526  50.856  1.00  0.00     0.087 HD
ENDBRANCH  18  19
ENDBRANCH  16  18
ENDBRANCH  15  16
ENDBRANCH  12  14
ENDBRANCH   5  12
BRANCH   4  22
HETATM   22  O1  UNL     1      27.156   2.561  51.421  1.00  0.00    -0.355 OA
HETATM   23  C5  UNL     1      26.474   2.873  50.205  1.00  0.00     0.209 C 
ENDBRANCH   4  22
TORSDOF 6
ENDMDL
MODEL 2
REMARK VINA RESULT:      -6.8      1.546      2.111
REMARK  6 active torsions:
REMARK  status: ('A' for Active; 'I' for Inactive)
REMARK    1  A    between atoms: C4_4  and  O1_5 
REMARK    2  A    between atoms: C6_7  and  N1_8 
REMARK    3  A    between atoms: N1_8  and  C7_9 
REMARK    4  A    between atoms: C8_10  and  C9_11 
REMARK    5  A    between atoms: C9_11  and  O2_13 
REMARK    6  A    between atoms: O2_13  and  P1_14 
ROOT
HETATM    1  C1  UNL     1      27.140  -2.038  52.326  1.00  0.00     0.026 C 
HETATM    2  C2  UNL     1      26.608  -0.862  52.329  1.00  0.00    -0.014 C 
HETATM    3  C3  UNL     1      26.855   0.481  51.655  1.00  0.00     0.050 C 
HETATM    4  C4  UNL     1      26.468   1.664  52.218  1.00  0.00     0.101 C 
HETATM    5  C6  UNL     1      25.577   1.874  53.444  1.00  0.00     0.194 C 
HETATM    6  C11 UNL     1      24.299   1.029  53.265  1.00  0.00     0.038 C 
HETATM    7  C12 UNL     1      24.032  -0.344  53.197  1.00  0.00     0.033 C 
HETATM    8  C13 UNL     1      25.462  -0.792  53.333  1.00  0.00     0.067 C 
HETATM    9  N2  UNL     1      26.062  -1.051  54.537  1.00  0.00    -0.242 NA
HETATM   10  C14 UNL     1      26.327   0.270  55.302  1.00  0.00     0.231 C 
HETATM   11  N3  UNL     1      26.239   1.445  54.666  1.00  0.00    -0.240 NA
ENDROOT
BRANCH   5  12
HETATM   12  N1  UNL     1      25.202   3.233  53.460  1.00  0.00    -0.363 N 
HETATM   13  H7  UNL     1      25.773   4.032  53.818  1.00  0.00     0.162 HD
BRANCH  12  14
HETATM   14  C7  UNL     1      23.893   3.266  52.888  1.00  0.00     0.087 C 
HETATM   15  C8  UNL     1      23.279   4.305  52.358  1.00  0.00     0.055 C 
BRANCH  15  16
HETATM   16  C9  UNL     1      21.934   4.525  51.723  1.00  0.00     0.336 C 
HETATM   17  F1  UNL     1      20.898   4.257  52.570  1.00  0.00    -0.215 F 
BRANCH  16  18
HETATM   18  O2  UNL     1      21.882   5.880  51.409  1.00  0.00    -0.329 OA
BRANCH  18  19
HETATM   19  P1  UNL     1      23.185   6.284  50.344  1.00  0.00     0.012 P 
HETATM   20  C10 UNL     1      23.908   7.941  50.797  1.00  0.00     0.072 C 
HETATM   21  H11 UNL     1      22.673   6.338  48.977  1.00  0.00     0.087 HD
ENDBRANCH  18  19
ENDBRANCH  16  18
ENDBRANCH  15  16
ENDBRANCH  12  14
ENDBRANCH   5  12
BRANCH   4  22
HETATM   22  O1  UNL     1      27.113   2.600  51.361  1.00  0.00    -0.355 OA
HETATM   23  C5  UNL     1      26.408   2.890  50.152  1.00  0.00     0.209 C 
ENDBRANCH   4  22
TORSDOF 6
ENDMDL
MODEL 3
REMARK VINA RESULT:      -6.4      3.825      6.578
REMARK  6 active torsions:
REMARK  status: ('A' for Active; 'I' for Inactive)
REMARK    1  A    between atoms: C4_4  and  O1_5 
REMARK    2  A    between atoms: C6_7  and  N1_8 
REMARK    3  A    between atoms: N1_8  and  C7_9 
REMARK    4  A    between atoms: C8_10  and  C9_11 
REMARK    5  A    between atoms: C9_11  and  O2_13 
REMARK    6  A    between atoms: O2_13  and  P1_14 
ROOT
HETATM    1  C1  UNL     1      18.065   0.216  51.250  1.00  0.00     0.026 C 
HETATM    2  C2  UNL     1      19.288   0.309  51.651  1.00  0.00    -0.014 C 
HETATM    3  C3  UNL     1      20.097  -0.085  52.880  1.00  0.00     0.050 C 
HETATM    4  C4  UNL     1      21.232   0.580  53.252  1.00  0.00     0.101 C 
HETATM    5  C6  UNL     1      22.002   1.638  52.462  1.00  0.00     0.194 C 
HETATM    6  C11 UNL     1      22.254   1.096  51.040  1.00  0.00     0.038 C 
HETATM    7  C12 UNL     1      21.430   0.761  49.958  1.00  0.00     0.033 C 
HETATM    8  C13 UNL     1      20.129   1.083  50.641  1.00  0.00     0.067 C 
HETATM    9  N2  UNL     1      19.540   2.320  50.602  1.00  0.00    -0.242 NA
HETATM   10  C14 UNL     1      20.332   3.322  51.478  1.00  0.00     0.231 C 
HETATM   11  N3  UNL     1      21.247   2.877  52.348  1.00  0.00    -0.240 NA
ENDROOT
BRANCH   5  12
HETATM   12  N1  UNL     1      23.252   1.803  53.093  1.00  0.00    -0.363 N 
HETATM   13  H7  UNL     1      23.496   2.517  53.816  1.00  0.00     0.162 HD
BRANCH  12  14
HETATM   14  C7  UNL     1      24.091   0.792  52.529  1.00  0.00     0.087 C 
HETATM   15  C8  UNL     1      25.070   0.143  53.125  1.00  0.00     0.055 C 
BRANCH  15  16
HETATM   16  C9  UNL     1      26.038  -0.927  52.702  1.00  0.00     0.336 C 
HETATM   17  F1  UNL     1      26.897  -0.510  51.728  1.00  0.00    -0.215 F 
BRANCH  16  18
HETATM   18  O2  UNL     1      26.795  -1.221  53.834  1.00  0.00    -0.329 OA
BRANCH  18  19
HETATM   19  P1  UNL     1      27.329   0.250  54.575  1.00  0.00     0.012 P 
HETATM   20  C10 UNL     1      29.036   0.699  53.976  1.00  0.00     0.072 C 
HETATM   21  H11 UNL     1      27.361   0.060  56.023  1.00  0.00     0.087 HD
ENDBRANCH  18  19
ENDBRANCH  16  18
ENDBRANCH  15  16
ENDBRANCH  12  14
ENDBRANCH   5  12
BRANCH   4  22
HETATM   22  O1  UNL     1      21.470   0.017  54.538  1.00  0.00    -0.355 OA
HETATM   23  C5  UNL     1      21.580  -1.408  54.557  1.00  0.00     0.209 C 
ENDBRANCH   4  22
TORSDOF 6
ENDMDL
MODEL 4
REMARK VINA RESULT:      -6.4      2.724      3.537
REMARK  6 active torsions:
REMARK  status: ('A' for Active; 'I' for Inactive)
REMARK    1  A    between atoms: C4_4  and  O1_5 
REMARK    2  A    between atoms: C6_7  and  N1_8 
REMARK    3  A    between atoms: N1_8  and  C7_9 
REMARK    4  A    between atoms: C8_10  and  C9_11 
REMARK    5  A    between atoms: C9_11  and  O2_13 
REMARK    6  A    between atoms: O2_13  and  P1_14 
ROOT
HETATM    1  C1  UNL     1      29.619   1.648  54.136  1.00  0.00     0.026 C 
HETATM    2  C2  UNL     1      28.539   1.365  53.490  1.00  0.00    -0.014 C 
HETATM    3  C3  UNL     1      27.536   2.098  52.610  1.00  0.00     0.050 C 
HETATM    4  C4  UNL     1      26.237   1.690  52.485  1.00  0.00     0.101 C 
HETATM    5  C6  UNL     1      25.610   0.388  52.986  1.00  0.00     0.194 C 
HETATM    6  C11 UNL     1      26.489  -0.788  52.515  1.00  0.00     0.038 C 
HETATM    7  C12 UNL     1      27.796  -1.208  52.793  1.00  0.00     0.033 C 
HETATM    8  C13 UNL     1      28.129  -0.083  53.735  1.00  0.00     0.067 C 
HETATM    9  N2  UNL     1      27.910  -0.139  55.087  1.00  0.00    -0.242 NA
HETATM   10  C14 UNL     1      26.394  -0.043  55.391  1.00  0.00     0.231 C 
HETATM   11  N3  UNL     1      25.540   0.351  54.439  1.00  0.00    -0.240 NA
ENDROOT
BRANCH   5  12
HETATM   12  N1  UNL     1      24.350   0.266  52.364  1.00  0.00    -0.363 N 
HETATM   13  H7  UNL     1      24.163   0.228  51.336  1.00  0.00     0.162 HD
BRANCH  12  14
HETATM   14  C7  UNL     1      23.408   0.208  53.437  1.00  0.00     0.087 C 
HETATM   15  C8  UNL     1      22.252  -0.424  53.452  1.00  0.00     0.055 C 
BRANCH  15  16
HETATM   16  C9  UNL     1      21.155  -0.594  54.466  1.00  0.00     0.336 C 
HETATM   17  F1  UNL     1      20.683   0.596  54.940  1.00  0.00    -0.215 F 
BRANCH  16  18
HETATM   18  O2  UNL     1      20.111  -1.222  53.791  1.00  0.00    -0.329 OA
BRANCH  18  19
HETATM   19  P1  UNL     1      19.409  -0.125  52.652  1.00  0.00     0.012 P 
HETATM   20  C10 UNL     1      17.659  -0.630  52.255  1.00  0.00     0.072 C 
HETATM   21  H11 UNL     1      20.206  -0.145  51.428  1.00  0.00     0.087 HD
ENDBRANCH  18  19
ENDBRANCH  16  18
ENDBRANCH  15  16
ENDBRANCH  12  14
ENDBRANCH   5  12
BRANCH   4  22
HETATM   22  O1  UNL     1      25.670   2.791  51.782  1.00  0.00    -0.355 OA
HETATM   23  C5  UNL     1      26.329   3.124  50.559  1.00  0.00     0.209 C 
ENDBRANCH   4  22
TORSDOF 6
ENDMDL
MODEL 5
REMARK VINA RESULT:      -6.1      3.798      6.362
REMARK  6 active torsions:
REMARK  status: ('A' for Active; 'I' for Inactive)
REMARK    1  A    between atoms: C4_4  and  O1_5 
REMARK    2  A    between atoms: C6_7  and  N1_8 
REMARK    3  A    between atoms: N1_8  and  C7_9 
REMARK    4  A    between atoms: C8_10  and  C9_11 
REMARK    5  A    between atoms: C9_11  and  O2_13 
REMARK    6  A    between atoms: O2_13  and  P1_14 
ROOT
HETATM    1  C1  UNL     1      22.318   3.686  47.759  1.00  0.00     0.026 C 
HETATM    2  C2  UNL     1      22.719   3.050  48.808  1.00  0.00    -0.014 C 
HETATM    3  C3  UNL     1      22.300   1.817  49.597  1.00  0.00     0.050 C 
HETATM    4  C4  UNL     1      22.578   1.671  50.927  1.00  0.00     0.101 C 
HETATM    5  C6  UNL     1      23.488   2.540  51.797  1.00  0.00     0.194 C 
HETATM    6  C11 UNL     1      24.843   2.698  51.077  1.00  0.00     0.038 C 
HETATM    7  C12 UNL     1      25.255   3.306  49.885  1.00  0.00     0.033 C 
HETATM    8  C13 UNL     1      23.889   3.775  49.464  1.00  0.00     0.067 C 
HETATM    9  N2  UNL     1      23.367   4.994  49.810  1.00  0.00    -0.242 NA
HETATM   10  C14 UNL     1      22.990   5.011  51.313  1.00  0.00     0.231 C 
HETATM   11  N3  UNL     1      22.925   3.866  52.003  1.00  0.00    -0.240 NA
ENDROOT
BRANCH   5  12
HETATM   12  N1  UNL     1      23.712   1.837  52.999  1.00  0.00    -0.363 N 
HETATM   13  H7  UNL     1      23.139   1.895  53.871  1.00  0.00     0.162 HD
BRANCH  12  14
HETATM   14  C7  UNL     1      24.876   1.045  52.756  1.00  0.00     0.087 C 
HETATM   15  C8  UNL     1      25.140  -0.156  53.231  1.00  0.00     0.055 C 
BRANCH  15  16
HETATM   16  C9  UNL     1      26.284  -1.120  53.088  1.00  0.00     0.336 C 
HETATM   17  F1  UNL     1      27.026  -0.899  51.964  1.00  0.00    -0.215 F 
BRANCH  16  18
HETATM   18  O2  UNL     1      27.109  -0.893  54.188  1.00  0.00    -0.329 OA
BRANCH  18  19
HETATM   19  P1  UNL     1      28.457   0.083  53.714  1.00  0.00     0.012 P 
HETATM   20  C10 UNL     1      30.042  -0.891  53.834  1.00  0.00     0.072 C 
HETATM   21  H11 UNL     1      28.534   1.240  54.602  1.00  0.00     0.087 HD
ENDBRANCH  18  19
ENDBRANCH  16  18
ENDBRANCH  15  16
ENDBRANCH  12  14
ENDBRANCH   5  12
BRANCH   4  22
HETATM   22  O1  UNL     1      21.801   0.521  51.246  1.00  0.00    -0.355 OA
HETATM   23  C5  UNL     1      20.424   0.608  50.876  1.00  0.00     0.209 C 
ENDBRANCH   4  22
TORSDOF 6
ENDMDL
MODEL 6
REMARK VINA RESULT:      -5.7      2.648      3.916
REMARK  6 active torsions:
REMARK  status: ('A' for Active; 'I' for Inactive)
REMARK    1  A    between atoms: C4_4  and  O1_5 
REMARK    2  A    between atoms: C6_7  and  N1_8 
REMARK    3  A    between atoms: N1_8  and  C7_9 
REMARK    4  A    between atoms: C8_10  and  C9_11 
REMARK    5  A    between atoms: C9_11  and  O2_13 
REMARK    6  A    between atoms: O2_13  and  P1_14 
ROOT
HETATM    1  C1  UNL     1      26.874  -1.223  52.796  1.00  0.00     0.026 C 
HETATM    2  C2  UNL     1      25.951  -0.335  52.961  1.00  0.00    -0.014 C 
HETATM    3  C3  UNL     1      24.429  -0.294  52.991  1.00  0.00     0.050 C 
HETATM    4  C4  UNL     1      23.723   0.832  52.674  1.00  0.00     0.101 C 
HETATM    5  C6  UNL     1      24.259   2.247  52.451  1.00  0.00     0.194 C 
HETATM    6  C11 UNL     1      25.167   2.615  53.642  1.00  0.00     0.038 C 
HETATM    7  C12 UNL     1      26.388   2.135  54.131  1.00  0.00     0.033 C 
HETATM    8  C13 UNL     1      26.561   1.056  53.096  1.00  0.00     0.067 C 
HETATM    9  N2  UNL     1      27.207   1.249  51.903  1.00  0.00    -0.242 NA
HETATM   10  C14 UNL     1      26.343   2.120  50.957  1.00  0.00     0.231 C 
HETATM   11  N3  UNL     1      25.051   2.333  51.233  1.00  0.00    -0.240 NA
ENDROOT
BRANCH   5  12
HETATM   12  N1  UNL     1      23.152   3.120  52.460  1.00  0.00    -0.363 N 
HETATM   13  H7  UNL     1      22.248   2.974  52.964  1.00  0.00     0.162 HD
BRANCH  12  14
HETATM   14  C7  UNL     1      23.540   4.223  51.640  1.00  0.00     0.087 C 
HETATM   15  C8  UNL     1      22.960   5.404  51.562  1.00  0.00     0.055 C 
BRANCH  15  16
HETATM   16  C9  UNL     1      23.221   6.659  50.776  1.00  0.00     0.336 C 
HETATM   17  F1  UNL     1      22.319   7.648  51.041  1.00  0.00    -0.215 F 
BRANCH  16  18
HETATM   18  O2  UNL     1      24.473   7.109  51.187  1.00  0.00    -0.329 OA
BRANCH  18  19
HETATM   19  P1  UNL     1      25.525   7.241  49.819  1.00  0.00     0.012 P 
HETATM   20  C10 UNL     1      26.141   5.558  49.306  1.00  0.00     0.072 C 
HETATM   21  H11 UNL     1      26.663   8.081  50.181  1.00  0.00     0.087 HD
ENDBRANCH  18  19
ENDBRANCH  16  18
ENDBRANCH  15  16
ENDBRANCH  12  14
ENDBRANCH   5  12
BRANCH   4  22
HETATM   22  O1  UNL     1      22.396   0.315  52.615  1.00  0.00    -0.355 OA
HETATM   23  C5  UNL     1      21.829  -0.022  53.883  1.00  0.00     0.209 C 
ENDBRANCH   4  22
TORSDOF 6
ENDMDL
MODEL 7
REMARK VINA RESULT:      -5.7      3.769      6.465
REMARK  6 active torsions:
REMARK  status: ('A' for Active; 'I' for Inactive)
REMARK    1  A    between atoms: C4_4  and  O1_5 
REMARK    2  A    between atoms: C6_7  and  N1_8 
REMARK    3  A    between atoms: N1_8  and  C7_9 
REMARK    4  A    between atoms: C8_10  and  C9_11 
REMARK    5  A    between atoms: C9_11  and  O2_13 
REMARK    6  A    between atoms: O2_13  and  P1_14 
ROOT
HETATM    1  C1  UNL     1      19.028   2.584  51.770  1.00  0.00     0.026 C 
HETATM    2  C2  UNL     1      20.186   2.042  51.592  1.00  0.00    -0.014 C 
HETATM    3  C3  UNL     1      20.890   0.751  51.988  1.00  0.00     0.050 C 
HETATM    4  C4  UNL     1      22.249   0.666  52.102  1.00  0.00     0.101 C 
HETATM    5  C6  UNL     1      23.294   1.700  51.680  1.00  0.00     0.194 C 
HETATM    6  C11 UNL     1      22.999   2.124  50.227  1.00  0.00     0.038 C 
HETATM    7  C12 UNL     1      21.947   2.800  49.597  1.00  0.00     0.033 C 
HETATM    8  C13 UNL     1      21.112   2.987  50.835  1.00  0.00     0.067 C 
HETATM    9  N2  UNL     1      21.214   4.078  51.658  1.00  0.00    -0.242 NA
HETATM   10  C14 UNL     1      22.534   4.021  52.468  1.00  0.00     0.231 C 
HETATM   11  N3  UNL     1      23.243   2.887  52.519  1.00  0.00    -0.240 NA
ENDROOT
BRANCH   5  12
HETATM   12  N1  UNL     1      24.549   1.057  51.700  1.00  0.00    -0.363 N 
HETATM   13  H7  UNL     1      25.051   0.644  50.881  1.00  0.00     0.162 HD
BRANCH  12  14
HETATM   14  C7  UNL     1      24.968   1.098  53.065  1.00  0.00     0.087 C 
HETATM   15  C8  UNL     1      25.769   0.252  53.681  1.00  0.00     0.055 C 
BRANCH  15  16
HETATM   16  C9  UNL     1      26.309   0.138  55.079  1.00  0.00     0.336 C 
HETATM   17  F1  UNL     1      25.489  -0.571  55.908  1.00  0.00    -0.215 F 
BRANCH  16  18
HETATM   18  O2  UNL     1      27.505  -0.568  54.966  1.00  0.00    -0.329 OA
BRANCH  18  19
HETATM   19  P1  UNL     1      28.699   0.426  54.203  1.00  0.00     0.012 P 
HETATM   20  C10 UNL     1      30.095  -0.620  53.546  1.00  0.00     0.072 C 
HETATM   21  H11 UNL     1      29.224   1.368  55.188  1.00  0.00     0.087 HD
ENDBRANCH  18  19
ENDBRANCH  16  18
ENDBRANCH  15  16
ENDBRANCH  12  14
ENDBRANCH   5  12
BRANCH   4  22
HETATM   22  O1  UNL     1      22.394  -0.616  52.706  1.00  0.00    -0.355 OA
HETATM   23  C5  UNL     1      21.802  -0.738  54.001  1.00  0.00     0.209 C 
ENDBRANCH   4  22
TORSDOF 6
ENDMDL
MODEL 8
REMARK VINA RESULT:      -5.7      4.181      5.664
REMARK  6 active torsions:
REMARK  status: ('A' for Active; 'I' for Inactive)
REMARK    1  A    between atoms: C4_4  and  O1_5 
REMARK    2  A    between atoms: C6_7  and  N1_8 
REMARK    3  A    between atoms: N1_8  and  C7_9 
REMARK    4  A    between atoms: C8_10  and  C9_11 
REMARK    5  A    between atoms: C9_11  and  O2_13 
REMARK    6  A    between atoms: O2_13  and  P1_14 
ROOT
HETATM    1  C1  UNL     1      22.760   0.676  52.341  1.00  0.00     0.026 C 
HETATM    2  C2  UNL     1      23.621   1.404  51.715  1.00  0.00    -0.014 C 
HETATM    3  C3  UNL     1      25.132   1.597  51.709  1.00  0.00     0.050 C 
HETATM    4  C4  UNL     1      25.717   2.772  51.328  1.00  0.00     0.101 C 
HETATM    5  C6  UNL     1      25.054   3.981  50.666  1.00  0.00     0.194 C 
HETATM    6  C11 UNL     1      24.232   3.484  49.459  1.00  0.00     0.038 C 
HETATM    7  C12 UNL     1      23.102   2.671  49.310  1.00  0.00     0.033 C 
HETATM    8  C13 UNL     1      22.920   2.379  50.775  1.00  0.00     0.067 C 
HETATM    9  N2  UNL     1      22.155   3.150  51.611  1.00  0.00    -0.242 NA
HETATM   10  C14 UNL     1      22.860   4.500  51.893  1.00  0.00     0.231 C 
HETATM   11  N3  UNL     1      24.151   4.663  51.581  1.00  0.00    -0.240 NA
ENDROOT
BRANCH   5  12
HETATM   12  N1  UNL     1      26.086   4.809  50.180  1.00  0.00    -0.363 N 
HETATM   13  H7  UNL     1      27.094   4.552  50.073  1.00  0.00     0.162 HD
BRANCH  12  14
HETATM   14  C7  UNL     1      25.454   6.053  49.873  1.00  0.00     0.087 C 
HETATM   15  C8  UNL     1      25.986   7.256  49.933  1.00  0.00     0.055 C 
BRANCH  15  16
HETATM   16  C9  UNL     1      25.487   8.647  49.655  1.00  0.00     0.336 C 
HETATM   17  F1  UNL     1      24.281   8.904  50.241  1.00  0.00    -0.215 F 
BRANCH  16  18
HETATM   18  O2  UNL     1      26.423   9.506  50.225  1.00  0.00    -0.329 OA
BRANCH  18  19
HETATM   19  P1  UNL     1      27.560  10.011  49.021  1.00  0.00     0.012 P 
HETATM   20  C10 UNL     1      29.258   9.348  49.410  1.00  0.00     0.072 C 
HETATM   21  H11 UNL     1      27.605  11.471  49.002  1.00  0.00     0.087 HD
ENDBRANCH  18  19
ENDBRANCH  16  18
ENDBRANCH  15  16
ENDBRANCH  12  14
ENDBRANCH   5  12
BRANCH   4  22
HETATM   22  O1  UNL     1      27.069   2.542  51.714  1.00  0.00    -0.355 OA
HETATM   23  C5  UNL     1      27.276   1.363  52.494  1.00  0.00     0.209 C 
ENDBRANCH   4  22
TORSDOF 6
ENDMDL
MODEL 9
REMARK VINA RESULT:      -5.6      3.017      4.660
REMARK  6 active torsions:
REMARK  status: ('A' for Active; 'I' for Inactive)
REMARK    1  A    between atoms: C4_4  and  O1_5 
REMARK    2  A    between atoms: C6_7  and  N1_8 
REMARK    3  A    between atoms: N1_8  and  C7_9 
REMARK    4  A    between atoms: C8_10  and  C9_11 
REMARK    5  A    between atoms: C9_11  and  O2_13 
REMARK    6  A    between atoms: O2_13  and  P1_14 
ROOT
HETATM    1  C1  UNL     1      20.762   0.248  54.290  1.00  0.00     0.026 C 
HETATM    2  C2  UNL     1      21.691   0.484  53.427  1.00  0.00    -0.014 C 
HETATM    3  C3  UNL     1      23.207   0.355  53.350  1.00  0.00     0.050 C 
HETATM    4  C4  UNL     1      23.967   1.143  52.532  1.00  0.00     0.101 C 
HETATM    5  C6  UNL     1      23.487   2.100  51.439  1.00  0.00     0.194 C 
HETATM    6  C11 UNL     1      22.498   1.343  50.530  1.00  0.00     0.038 C 
HETATM    7  C12 UNL     1      21.230   0.779  50.715  1.00  0.00     0.033 C 
HETATM    8  C13 UNL     1      21.110   1.129  52.174  1.00  0.00     0.067 C 
HETATM    9  N2  UNL     1      20.567   2.302  52.628  1.00  0.00    -0.242 NA
HETATM   10  C14 UNL     1      21.527   3.485  52.348  1.00  0.00     0.231 C 
HETATM   11  N3  UNL     1      22.798   3.252  52.001  1.00  0.00    -0.240 NA
ENDROOT
BRANCH   5  12
HETATM   12  N1  UNL     1      24.614   2.447  50.665  1.00  0.00    -0.363 N 
HETATM   13  H7  UNL     1      25.366   1.801  50.335  1.00  0.00     0.162 HD
BRANCH  12  14
HETATM   14  C7  UNL     1      24.493   3.853  50.439  1.00  0.00     0.087 C 
HETATM   15  C8  UNL     1      25.426   4.676  50.007  1.00  0.00     0.055 C 
BRANCH  15  16
HETATM   16  C9  UNL     1      25.482   6.150  49.716  1.00  0.00     0.336 C 
HETATM   17  F1  UNL     1      24.696   6.511  48.659  1.00  0.00    -0.215 F 
BRANCH  16  18
HETATM   18  O2  UNL     1      24.975   6.778  50.851  1.00  0.00    -0.329 OA
BRANCH  18  19
HETATM   19  P1  UNL     1      23.635   7.782  50.413  1.00  0.00     0.012 P 
HETATM   20  C10 UNL     1      22.026   6.898  50.737  1.00  0.00     0.072 C 
HETATM   21  H11 UNL     1      23.732   8.101  48.991  1.00  0.00     0.087 HD
ENDBRANCH  18  19
ENDBRANCH  16  18
ENDBRANCH  15  16
ENDBRANCH  12  14
ENDBRANCH   5  12
BRANCH   4  22
HETATM   22  O1  UNL     1      25.279   0.820  52.982  1.00  0.00    -0.355 OA
HETATM   23  C5  UNL     1      25.355  -0.326  53.832  1.00  0.00     0.209 C 
ENDBRANCH   4  22
TORSDOF 6
ENDMDL
