MODEL 1
REMARK VINA RESULT:      -8.6      0.000      0.000
REMARK  3 active torsions:
REMARK  status: ('A' for Active; 'I' for Inactive)
REMARK    1  A    between atoms: C2_2  and  O1_3 
REMARK    2  A    between atoms: O1_3  and  C3_4 
REMARK    3  A    between atoms: C8_9  and  C9_10 
ROOT
HETATM    1  C3  UNL     1      26.546   0.221  54.354  1.00  0.00     0.068 C 
HETATM    2  C4  UNL     1      26.788   1.496  53.982  1.00  0.00     0.037 C 
HETATM    3  C5  UNL     1      25.729   2.420  53.503  1.00  0.00     0.008 C 
HETATM    4  C6  UNL     1      24.579   2.170  52.841  1.00  0.00    -0.043 C 
HETATM    5  C7  UNL     1      23.924   3.486  52.630  1.00  0.00     0.051 C 
HETATM    6  C8  UNL     1      23.707   3.901  51.226  1.00  0.00     0.064 C 
HETATM    7  C14 UNL     1      22.582   3.226  50.530  1.00  0.00     0.100 C 
HETATM    8  N1  UNL     1      21.703   2.633  51.248  1.00  0.00    -0.258 NA
HETATM    9  C15 UNL     1      20.568   1.937  50.818  1.00  0.00     0.228 C 
HETATM   10  N2  UNL     1      20.594   0.870  51.589  1.00  0.00    -0.253 NA
HETATM   11  C16 UNL     1      21.694   0.742  52.570  1.00  0.00     0.420 C 
HETATM   12  N3  UNL     1      22.881   0.820  51.814  1.00  0.00     0.114 N 
HETATM   13  C17 UNL     1      24.133   0.808  52.435  1.00  0.00     0.274 C 
HETATM   14  C18 UNL     1      24.296  -0.183  53.518  1.00  0.00     0.016 C 
HETATM   15  C19 UNL     1      25.253  -0.509  54.371  1.00  0.00     0.035 C 
HETATM   16  H20 UNL     1      22.825   0.110  51.051  1.00  0.00     0.319 HD
ENDROOT
BRANCH   6  17
HETATM   17  C9  UNL     1      24.932   3.985  50.402  1.00  0.00    -0.043 A 
HETATM   18  C10 UNL     1      25.784   3.145  49.828  1.00  0.00     0.009 A 
HETATM   19  C11 UNL     1      26.543   4.282  49.319  1.00  0.00     0.008 A 
HETATM   20  C12 UNL     1      25.679   5.131  49.902  1.00  0.00    -0.055 A 
HETATM   21  C13 UNL     1      25.690   6.618  49.896  1.00  0.00     0.049 C 
ENDBRANCH   6  17
BRANCH   1  22
HETATM   22  O1  UNL     1      27.649  -0.525  54.783  1.00  0.00    -0.352 OA
BRANCH  22  23
HETATM   23  C2  UNL     1      28.940  -0.022  54.564  1.00  0.00     0.171 C 
HETATM   24  C1  UNL     1      29.752  -0.908  53.666  1.00  0.00     0.034 C 
ENDBRANCH  22  23
ENDBRANCH   1  22
TORSDOF 3
ENDMDL
MODEL 2
REMARK VINA RESULT:      -8.5      1.921      2.937
REMARK  3 active torsions:
REMARK  status: ('A' for Active; 'I' for Inactive)
REMARK    1  A    between atoms: C2_2  and  O1_3 
REMARK    2  A    between atoms: O1_3  and  C3_4 
REMARK    3  A    between atoms: C8_9  and  C9_10 
ROOT
HETATM    1  C3  UNL     1      26.858   1.005  53.230  1.00  0.00     0.068 C 
HETATM    2  C4  UNL     1      26.158   1.964  52.589  1.00  0.00     0.037 C 
HETATM    3  C5  UNL     1      24.691   2.133  52.728  1.00  0.00     0.008 C 
HETATM    4  C6  UNL     1      23.721   1.225  52.973  1.00  0.00    -0.043 C 
HETATM    5  C7  UNL     1      22.442   1.978  53.004  1.00  0.00     0.051 C 
HETATM    6  C8  UNL     1      21.427   1.604  51.993  1.00  0.00     0.064 C 
HETATM    7  C14 UNL     1      20.695   0.341  52.265  1.00  0.00     0.100 C 
HETATM    8  N1  UNL     1      20.727  -0.126  53.457  1.00  0.00    -0.258 NA
HETATM    9  C15 UNL     1      20.119  -1.288  53.943  1.00  0.00     0.228 C 
HETATM   10  N2  UNL     1      21.073  -1.803  54.691  1.00  0.00    -0.253 NA
HETATM   11  C16 UNL     1      22.359  -1.077  54.783  1.00  0.00     0.420 C 
HETATM   12  N3  UNL     1      22.808  -0.941  53.454  1.00  0.00     0.114 N 
HETATM   13  C17 UNL     1      23.974  -0.231  53.157  1.00  0.00     0.274 C 
HETATM   14  C18 UNL     1      25.123  -0.494  54.048  1.00  0.00     0.016 C 
HETATM   15  C19 UNL     1      26.360  -0.038  54.163  1.00  0.00     0.035 C 
HETATM   16  H20 UNL     1      22.815  -1.889  53.017  1.00  0.00     0.319 HD
ENDROOT
BRANCH   6  17
HETATM   17  C9  UNL     1      21.870   1.726  50.588  1.00  0.00    -0.043 A 
HETATM   18  C10 UNL     1      21.834   0.992  49.484  1.00  0.00     0.009 A 
HETATM   19  C11 UNL     1      22.524   2.059  48.766  1.00  0.00     0.008 A 
HETATM   20  C12 UNL     1      22.560   2.800  49.887  1.00  0.00    -0.055 A 
HETATM   21  C13 UNL     1      23.133   4.159  50.085  1.00  0.00     0.049 C 
ENDBRANCH   6  17
BRANCH   1  22
HETATM   22  O1  UNL     1      28.237   0.975  52.996  1.00  0.00    -0.352 OA
BRANCH  22  23
HETATM   23  C2  UNL     1      29.088   0.475  53.994  1.00  0.00     0.171 C 
HETATM   24  C1  UNL     1      29.891  -0.701  53.521  1.00  0.00     0.034 C 
ENDBRANCH  22  23
ENDBRANCH   1  22
TORSDOF 3
ENDMDL
MODEL 3
REMARK VINA RESULT:      -8.0      1.783      4.547
REMARK  3 active torsions:
REMARK  status: ('A' for Active; 'I' for Inactive)
REMARK    1  A    between atoms: C2_2  and  O1_3 
REMARK    2  A    between atoms: O1_3  and  C3_4 
REMARK    3  A    between atoms: C8_9  and  C9_10 
ROOT
HETATM    1  C3  UNL     1      26.681   0.327  54.020  1.00  0.00     0.068 C 
HETATM    2  C4  UNL     1      25.698  -0.475  53.561  1.00  0.00     0.037 C 
HETATM    3  C5  UNL     1      24.631  -0.011  52.639  1.00  0.00     0.008 C 
HETATM    4  C6  UNL     1      24.061   1.205  52.498  1.00  0.00    -0.043 C 
HETATM    5  C7  UNL     1      23.052   1.070  51.417  1.00  0.00     0.051 C 
HETATM    6  C8  UNL     1      21.643   1.338  51.787  1.00  0.00     0.064 C 
HETATM    7  C14 UNL     1      21.289   2.771  51.945  1.00  0.00     0.100 C 
HETATM    8  N1  UNL     1      22.074   3.643  51.431  1.00  0.00    -0.258 NA
HETATM    9  C15 UNL     1      21.946   5.035  51.452  1.00  0.00     0.228 C 
HETATM   10  N2  UNL     1      23.177   5.418  51.720  1.00  0.00    -0.253 NA
HETATM   11  C16 UNL     1      24.211   4.376  51.899  1.00  0.00     0.420 C 
HETATM   12  N3  UNL     1      23.730   3.543  52.928  1.00  0.00     0.114 N 
HETATM   13  C17 UNL     1      24.429   2.396  53.314  1.00  0.00     0.274 C 
HETATM   14  C18 UNL     1      25.892   2.557  53.445  1.00  0.00     0.016 C 
HETATM   15  C19 UNL     1      26.912   1.766  53.733  1.00  0.00     0.035 C 
HETATM   16  H20 UNL     1      23.500   4.145  53.750  1.00  0.00     0.319 HD
ENDROOT
BRANCH   6  17
HETATM   17  C9  UNL     1      21.110   0.486  52.872  1.00  0.00    -0.043 A 
HETATM   18  C10 UNL     1      21.517   0.034  54.051  1.00  0.00     0.009 A 
HETATM   19  C11 UNL     1      20.245  -0.662  54.210  1.00  0.00     0.008 A 
HETATM   20  C12 UNL     1      19.835  -0.204  53.015  1.00  0.00    -0.055 A 
HETATM   21  C13 UNL     1      18.540  -0.442  52.323  1.00  0.00     0.049 C 
ENDBRANCH   6  17
BRANCH   1  22
HETATM   22  O1  UNL     1      27.615  -0.258  54.882  1.00  0.00    -0.352 OA
BRANCH  22  23
HETATM   23  C2  UNL     1      28.981  -0.162  54.577  1.00  0.00     0.171 C 
HETATM   24  C1  UNL     1      29.381  -1.084  53.464  1.00  0.00     0.034 C 
ENDBRANCH  22  23
ENDBRANCH   1  22
TORSDOF 3
ENDMDL
MODEL 4
REMARK VINA RESULT:      -7.9      1.497      1.685
REMARK  3 active torsions:
REMARK  status: ('A' for Active; 'I' for Inactive)
REMARK    1  A    between atoms: C2_2  and  O1_3 
REMARK    2  A    between atoms: O1_3  and  C3_4 
REMARK    3  A    between atoms: C8_9  and  C9_10 
ROOT
HETATM    1  C3  UNL     1      25.089   0.102  53.756  1.00  0.00     0.068 C 
HETATM    2  C4  UNL     1      25.668   1.290  53.483  1.00  0.00     0.037 C 
HETATM    3  C5  UNL     1      24.900   2.541  53.268  1.00  0.00     0.008 C 
HETATM    4  C6  UNL     1      23.661   2.736  52.767  1.00  0.00    -0.043 C 
HETATM    5  C7  UNL     1      23.425   4.202  52.794  1.00  0.00     0.051 C 
HETATM    6  C8  UNL     1      23.187   4.860  51.489  1.00  0.00     0.064 C 
HETATM    7  C14 UNL     1      21.837   4.649  50.908  1.00  0.00     0.100 C 
HETATM    8  N1  UNL     1      20.905   4.242  51.687  1.00  0.00    -0.258 NA
HETATM    9  C15 UNL     1      19.570   3.978  51.368  1.00  0.00     0.228 C 
HETATM   10  N2  UNL     1      19.353   2.851  52.013  1.00  0.00    -0.253 NA
HETATM   11  C16 UNL     1      20.464   2.267  52.796  1.00  0.00     0.420 C 
HETATM   12  N3  UNL     1      21.522   2.104  51.879  1.00  0.00     0.114 N 
HETATM   13  C17 UNL     1      22.772   1.637  52.297  1.00  0.00     0.274 C 
HETATM   14  C18 UNL     1      22.744   0.497  53.236  1.00  0.00     0.016 C 
HETATM   15  C19 UNL     1      23.645  -0.213  53.896  1.00  0.00     0.035 C 
HETATM   16  H20 UNL     1      21.163   1.558  51.065  1.00  0.00     0.319 HD
ENDROOT
BRANCH   6  17
HETATM   17  C9  UNL     1      24.275   4.699  50.501  1.00  0.00    -0.043 A 
HETATM   18  C10 UNL     1      24.752   3.739  49.718  1.00  0.00     0.009 A 
HETATM   19  C11 UNL     1      25.764   4.665  49.221  1.00  0.00     0.008 A 
HETATM   20  C12 UNL     1      25.280   5.635  50.014  1.00  0.00    -0.055 A 
HETATM   21  C13 UNL     1      25.752   7.038  50.162  1.00  0.00     0.049 C 
ENDBRANCH   6  17
BRANCH   1  22
HETATM   22  O1  UNL     1      25.949  -0.987  53.933  1.00  0.00    -0.352 OA
BRANCH  22  23
HETATM   23  C2  UNL     1      27.116  -1.069  53.158  1.00  0.00     0.171 C 
HETATM   24  C1  UNL     1      27.210  -2.364  52.407  1.00  0.00     0.034 C 
ENDBRANCH  22  23
ENDBRANCH   1  22
TORSDOF 3
ENDMDL
MODEL 5
REMARK VINA RESULT:      -7.8      2.614      5.607
REMARK  3 active torsions:
REMARK  status: ('A' for Active; 'I' for Inactive)
REMARK    1  A    between atoms: C2_2  and  O1_3 
REMARK    2  A    between atoms: O1_3  and  C3_4 
REMARK    3  A    between atoms: C8_9  and  C9_10 
ROOT
HETATM    1  C3  UNL     1      26.535   5.527  48.833  1.00  0.00     0.068 C 
HETATM    2  C4  UNL     1      26.846   4.271  49.219  1.00  0.00     0.037 C 
HETATM    3  C5  UNL     1      25.832   3.276  49.648  1.00  0.00     0.008 C 
HETATM    4  C6  UNL     1      24.637   3.446  50.255  1.00  0.00    -0.043 C 
HETATM    5  C7  UNL     1      24.065   2.087  50.436  1.00  0.00     0.051 C 
HETATM    6  C8  UNL     1      23.810   1.656  51.830  1.00  0.00     0.064 C 
HETATM    7  C14 UNL     1      22.610   2.252  52.470  1.00  0.00     0.100 C 
HETATM    8  N1  UNL     1      21.727   2.784  51.711  1.00  0.00    -0.258 NA
HETATM    9  C15 UNL     1      20.528   3.399  52.085  1.00  0.00     0.228 C 
HETATM   10  N2  UNL     1      20.518   4.467  51.314  1.00  0.00    -0.253 NA
HETATM   11  C16 UNL     1      21.651   4.672  50.386  1.00  0.00     0.420 C 
HETATM   12  N3  UNL     1      22.803   4.674  51.198  1.00  0.00     0.114 N 
HETATM   13  C17 UNL     1      24.080   4.773  50.637  1.00  0.00     0.274 C 
HETATM   14  C18 UNL     1      24.226   5.775  49.561  1.00  0.00     0.016 C 
HETATM   15  C19 UNL     1      25.197   6.166  48.753  1.00  0.00     0.035 C 
HETATM   16  H20 UNL     1      22.663   5.377  51.956  1.00  0.00     0.319 HD
ENDROOT
BRANCH   6  17
HETATM   17  C9  UNL     1      24.998   1.656  52.711  1.00  0.00    -0.043 A 
HETATM   18  C10 UNL     1      25.471   2.384  53.714  1.00  0.00     0.009 A 
HETATM   19  C11 UNL     1      26.633   1.503  53.788  1.00  0.00     0.008 A 
HETATM   20  C12 UNL     1      26.151   0.769  52.771  1.00  0.00    -0.055 A 
HETATM   21  C13 UNL     1      26.745  -0.437  52.132  1.00  0.00     0.049 C 
ENDBRANCH   6  17
BRANCH   1  22
HETATM   22  O1  UNL     1      27.603   6.348  48.455  1.00  0.00    -0.352 OA
BRANCH  22  23
HETATM   23  C2  UNL     1      28.858   5.768  48.215  1.00  0.00     0.171 C 
HETATM   24  C1  UNL     1      29.798   6.711  47.526  1.00  0.00     0.034 C 
ENDBRANCH  22  23
ENDBRANCH   1  22
TORSDOF 3
ENDMDL
MODEL 6
REMARK VINA RESULT:      -7.6      2.942      5.590
REMARK  3 active torsions:
REMARK  status: ('A' for Active; 'I' for Inactive)
REMARK    1  A    between atoms: C2_2  and  O1_3 
REMARK    2  A    between atoms: O1_3  and  C3_4 
REMARK    3  A    between atoms: C8_9  and  C9_10 
ROOT
HETATM    1  C3  UNL     1      20.366  -0.532  53.439  1.00  0.00     0.068 C 
HETATM    2  C4  UNL     1      20.493   0.428  52.499  1.00  0.00     0.037 C 
HETATM    3  C5  UNL     1      21.788   0.782  51.866  1.00  0.00     0.008 C 
HETATM    4  C6  UNL     1      23.047   0.724  52.350  1.00  0.00    -0.043 C 
HETATM    5  C7  UNL     1      23.935   1.204  51.261  1.00  0.00     0.051 C 
HETATM    6  C8  UNL     1      24.736   2.417  51.545  1.00  0.00     0.064 C 
HETATM    7  C14 UNL     1      25.917   2.208  52.422  1.00  0.00     0.100 C 
HETATM    8  N1  UNL     1      26.348   1.011  52.572  1.00  0.00    -0.258 NA
HETATM    9  C15 UNL     1      27.432   0.577  53.340  1.00  0.00     0.228 C 
HETATM   10  N2  UNL     1      26.942  -0.498  53.921  1.00  0.00    -0.253 NA
HETATM   11  C16 UNL     1      25.546  -0.883  53.619  1.00  0.00     0.420 C 
HETATM   12  N3  UNL     1      24.768   0.244  53.953  1.00  0.00     0.114 N 
HETATM   13  C17 UNL     1      23.389   0.260  53.723  1.00  0.00     0.274 C 
HETATM   14  C18 UNL     1      22.667  -0.974  54.096  1.00  0.00     0.016 C 
HETATM   15  C19 UNL     1      21.418  -1.403  54.022  1.00  0.00     0.035 C 
HETATM   16  H20 UNL     1      24.995   0.514  54.935  1.00  0.00     0.319 HD
ENDROOT
BRANCH   6  17
HETATM   17  C9  UNL     1      23.950   3.615  51.908  1.00  0.00    -0.043 A 
HETATM   18  C10 UNL     1      23.734   4.352  52.990  1.00  0.00     0.009 A 
HETATM   19  C11 UNL     1      22.845   5.210  52.213  1.00  0.00     0.008 A 
HETATM   20  C12 UNL     1      23.066   4.461  51.119  1.00  0.00    -0.055 A 
HETATM   21  C13 UNL     1      22.511   4.631  49.749  1.00  0.00     0.049 C 
ENDBRANCH   6  17
BRANCH   1  22
HETATM   22  O1  UNL     1      19.078  -0.749  53.941  1.00  0.00    -0.352 OA
BRANCH  22  23
HETATM   23  C2  UNL     1      18.121  -1.370  53.123  1.00  0.00     0.171 C 
HETATM   24  C1  UNL     1      17.774  -2.749  53.598  1.00  0.00     0.034 C 
ENDBRANCH  22  23
ENDBRANCH   1  22
TORSDOF 3
ENDMDL
MODEL 7
REMARK VINA RESULT:      -7.3      6.455      9.219
REMARK  3 active torsions:
REMARK  status: ('A' for Active; 'I' for Inactive)
REMARK    1  A    between atoms: C2_2  and  O1_3 
REMARK    2  A    between atoms: O1_3  and  C3_4 
REMARK    3  A    between atoms: C8_9  and  C9_10 
ROOT
HETATM    1  C3  UNL     1      33.102   5.401  48.140  1.00  0.00     0.068 C 
HETATM    2  C4  UNL     1      31.991   4.897  47.562  1.00  0.00     0.037 C 
HETATM    3  C5  UNL     1      30.805   5.721  47.223  1.00  0.00     0.008 C 
HETATM    4  C6  UNL     1      30.311   6.833  47.808  1.00  0.00    -0.043 C 
HETATM    5  C7  UNL     1      29.105   7.214  47.030  1.00  0.00     0.051 C 
HETATM    6  C8  UNL     1      27.819   7.225  47.764  1.00  0.00     0.064 C 
HETATM    7  C14 UNL     1      27.610   8.387  48.664  1.00  0.00     0.100 C 
HETATM    8  N1  UNL     1      28.345   9.422  48.488  1.00  0.00    -0.258 NA
HETATM    9  C15 UNL     1      28.328  10.622  49.206  1.00  0.00     0.228 C 
HETATM   10  N2  UNL     1      29.613  10.860  49.367  1.00  0.00    -0.253 NA
HETATM   11  C16 UNL     1      30.581   9.895  48.802  1.00  0.00     0.420 C 
HETATM   12  N3  UNL     1      30.246   8.652  49.374  1.00  0.00     0.114 N 
HETATM   13  C17 UNL     1      30.919   7.484  49.003  1.00  0.00     0.274 C 
HETATM   14  C18 UNL     1      32.387   7.603  48.892  1.00  0.00     0.016 C 
HETATM   15  C19 UNL     1      33.381   6.802  48.545  1.00  0.00     0.035 C 
HETATM   16  H20 UNL     1      30.225   8.768  50.411  1.00  0.00     0.319 HD
ENDROOT
BRANCH   6  17
HETATM   17  C9  UNL     1      27.442   5.937  48.384  1.00  0.00    -0.043 A 
HETATM   18  C10 UNL     1      28.018   4.770  48.641  1.00  0.00     0.009 A 
HETATM   19  C11 UNL     1      26.771   4.299  49.236  1.00  0.00     0.008 A 
HETATM   20  C12 UNL     1      26.190   5.482  48.975  1.00  0.00    -0.055 A 
HETATM   21  C13 UNL     1      24.800   5.920  49.270  1.00  0.00     0.049 C 
ENDBRANCH   6  17
BRANCH   1  22
HETATM   22  O1  UNL     1      34.138   4.497  48.398  1.00  0.00    -0.352 OA
BRANCH  22  23
HETATM   23  C2  UNL     1      34.193   3.296  47.674  1.00  0.00     0.171 C 
HETATM   24  C1  UNL     1      35.085   3.397  46.472  1.00  0.00     0.034 C 
ENDBRANCH  22  23
ENDBRANCH   1  22
TORSDOF 3
ENDMDL
MODEL 8
REMARK VINA RESULT:      -7.3      4.212      7.297
REMARK  3 active torsions:
REMARK  status: ('A' for Active; 'I' for Inactive)
REMARK    1  A    between atoms: C2_2  and  O1_3 
REMARK    2  A    between atoms: O1_3  and  C3_4 
REMARK    3  A    between atoms: C8_9  and  C9_10 
ROOT
HETATM    1  C3  UNL     1      17.051  -0.026  51.493  1.00  0.00     0.068 C 
HETATM    2  C4  UNL     1      17.905   0.612  50.665  1.00  0.00     0.037 C 
HETATM    3  C5  UNL     1      19.378   0.441  50.725  1.00  0.00     0.008 C 
HETATM    4  C6  UNL     1      20.188   0.162  51.770  1.00  0.00    -0.043 C 
HETATM    5  C7  UNL     1      21.568   0.111  51.226  1.00  0.00     0.051 C 
HETATM    6  C8  UNL     1      22.533   1.094  51.771  1.00  0.00     0.064 C 
HETATM    7  C14 UNL     1      23.052   0.789  53.128  1.00  0.00     0.100 C 
HETATM    8  N1  UNL     1      22.922  -0.408  53.565  1.00  0.00    -0.258 NA
HETATM    9  C15 UNL     1      23.331  -0.923  54.799  1.00  0.00     0.228 C 
HETATM   10  N2  UNL     1      22.293  -1.655  55.146  1.00  0.00    -0.253 NA
HETATM   11  C16 UNL     1      21.135  -1.709  54.227  1.00  0.00     0.420 C 
HETATM   12  N3  UNL     1      20.741  -0.368  54.044  1.00  0.00     0.114 N 
HETATM   13  C17 UNL     1      19.706  -0.035  53.165  1.00  0.00     0.274 C 
HETATM   14  C18 UNL     1      18.512  -0.903  53.230  1.00  0.00     0.016 C 
HETATM   15  C19 UNL     1      17.360  -0.983  52.585  1.00  0.00     0.035 C 
HETATM   16  H20 UNL     1      20.593   0.056  54.987  1.00  0.00     0.319 HD
ENDROOT
BRANCH   6  17
HETATM   17  C9  UNL     1      22.143   2.511  51.604  1.00  0.00    -0.043 A 
HETATM   18  C10 UNL     1      21.822   3.535  52.383  1.00  0.00     0.009 A 
HETATM   19  C11 UNL     1      21.642   4.365  51.196  1.00  0.00     0.008 A 
HETATM   20  C12 UNL     1      21.967   3.326  50.409  1.00  0.00    -0.055 A 
HETATM   21  C13 UNL     1      22.049   3.273  48.925  1.00  0.00     0.049 C 
ENDBRANCH   6  17
BRANCH   1  22
HETATM   22  O1  UNL     1      15.689   0.238  51.311  1.00  0.00    -0.352 OA
BRANCH  22  23
HETATM   23  C2  UNL     1      14.813   0.088  52.396  1.00  0.00     0.171 C 
HETATM   24  C1  UNL     1      14.338   1.406  52.932  1.00  0.00     0.034 C 
ENDBRANCH  22  23
ENDBRANCH   1  22
TORSDOF 3
ENDMDL
MODEL 9
REMARK VINA RESULT:      -7.2      2.907      6.241
REMARK  3 active torsions:
REMARK  status: ('A' for Active; 'I' for Inactive)
REMARK    1  A    between atoms: C2_2  and  O1_3 
REMARK    2  A    between atoms: O1_3  and  C3_4 
REMARK    3  A    between atoms: C8_9  and  C9_10 
ROOT
HETATM    1  C3  UNL     1      24.979   5.177  49.342  1.00  0.00     0.068 C 
HETATM    2  C4  UNL     1      23.854   5.009  50.069  1.00  0.00     0.037 C 
HETATM    3  C5  UNL     1      23.802   4.206  51.316  1.00  0.00     0.008 C 
HETATM    4  C6  UNL     1      24.520   3.128  51.697  1.00  0.00    -0.043 C 
HETATM    5  C7  UNL     1      24.028   2.755  53.048  1.00  0.00     0.051 C 
HETATM    6  C8  UNL     1      23.431   1.407  53.187  1.00  0.00     0.064 C 
HETATM    7  C14 UNL     1      24.400   0.283  53.225  1.00  0.00     0.100 C 
HETATM    8  N1  UNL     1      25.624   0.555  53.483  1.00  0.00    -0.258 NA
HETATM    9  C15 UNL     1      26.703  -0.331  53.570  1.00  0.00     0.228 C 
HETATM   10  N2  UNL     1      27.644   0.321  52.921  1.00  0.00    -0.253 NA
HETATM   11  C16 UNL     1      27.315   1.648  52.356  1.00  0.00     0.420 C 
HETATM   12  N3  UNL     1      26.208   1.431  51.512  1.00  0.00     0.114 N 
HETATM   13  C17 UNL     1      25.579   2.497  50.861  1.00  0.00     0.274 C 
HETATM   14  C18 UNL     1      26.483   3.493  50.252  1.00  0.00     0.016 C 
HETATM   15  C19 UNL     1      26.337   4.635  49.600  1.00  0.00     0.035 C 
HETATM   16  H20 UNL     1      26.455   0.668  50.845  1.00  0.00     0.319 HD
ENDROOT
BRANCH   6  17
HETATM   17  C9  UNL     1      22.271   1.144  52.307  1.00  0.00    -0.043 A 
HETATM   18  C10 UNL     1      21.878   0.198  51.464  1.00  0.00     0.009 A 
HETATM   19  C11 UNL     1      20.660   0.958  51.200  1.00  0.00     0.008 A 
HETATM   20  C12 UNL     1      21.061   1.915  52.054  1.00  0.00    -0.055 A 
HETATM   21  C13 UNL     1      20.367   3.175  52.431  1.00  0.00     0.049 C 
ENDBRANCH   6  17
BRANCH   1  22
HETATM   22  O1  UNL     1      24.868   5.962  48.190  1.00  0.00    -0.352 OA
BRANCH  22  23
HETATM   23  C2  UNL     1      24.660   7.344  48.322  1.00  0.00     0.171 C 
HETATM   24  C1  UNL     1      25.949   8.108  48.395  1.00  0.00     0.034 C 
ENDBRANCH  22  23
ENDBRANCH   1  22
TORSDOF 3
ENDMDL
