MODEL 1
REMARK VINA RESULT:      -7.5      0.000      0.000
REMARK  7 active torsions:
REMARK  status: ('A' for Active; 'I' for Inactive)
REMARK       I    between atoms: C1_2  and  N1_3 
REMARK    1  A    between atoms: C1_2  and  C8_11 
REMARK    2  A    between atoms: N1_3  and  C2_4 
REMARK    3  A    between atoms: C10_13  and  N2_14 
REMARK    4  A    between atoms: N2_14  and  C11_15 
REMARK    5  A    between atoms: N2_14  and  C13_18 
REMARK    6  A    between atoms: C11_15  and  C12_16 
REMARK    7  A    between atoms: C13_18  and  C14_19 
ROOT
HETATM    1  C8  UNL     1      23.434  -0.529  53.556  1.00  0.00     0.045 A 
HETATM    2  C9  UNL     1      22.404  -0.106  52.886  1.00  0.00     0.020 A 
HETATM    3  C10 UNL     1      21.230  -0.335  53.451  1.00  0.00     0.042 A 
HETATM    4  C15 UNL     1      21.504  -1.004  54.689  1.00  0.00     0.031 A 
HETATM    5  C16 UNL     1      22.838  -1.115  54.738  1.00  0.00     0.020 A 
ENDROOT
BRANCH   1   6
HETATM    6  C1  UNL     1      24.888  -0.612  53.545  1.00  0.00     0.257 C 
HETATM    7  O1  UNL     1      25.550  -1.021  54.552  1.00  0.00    -0.267 OA
HETATM    8  N1  UNL     1      25.783  -0.296  52.527  1.00  0.00    -0.320 N 
HETATM    9  H1  UNL     1      25.358   0.054  51.616  1.00  0.00     0.169 HD
BRANCH   8  10
HETATM   10  C2  UNL     1      27.130  -0.515  52.938  1.00  0.00     0.073 A 
HETATM   11  C3  UNL     1      27.828   0.555  53.510  1.00  0.00     0.033 A 
HETATM   12  C4  UNL     1      29.119   0.406  53.939  1.00  0.00     0.002 A 
HETATM   13  C5  UNL     1      29.778  -0.819  53.823  1.00  0.00     0.003 A 
HETATM   14  C6  UNL     1      29.074  -1.856  53.259  1.00  0.00     0.044 A 
HETATM   15  C7  UNL     1      27.773  -1.751  52.810  1.00  0.00     0.143 A 
HETATM   16  F1  UNL     1      27.076  -2.762  52.269  1.00  0.00    -0.204 F 
ENDBRANCH   8  10
ENDBRANCH   1   6
BRANCH   3  17
HETATM   17  N2  UNL     1      20.213   0.176  52.597  1.00  0.00    -0.378 N 
BRANCH  17  18
HETATM   18  C11 UNL     1      20.253   1.558  52.115  1.00  0.00     0.138 C 
BRANCH  18  19
HETATM   19  C12 UNL     1      19.876   1.497  50.632  1.00  0.00     0.134 C 
HETATM   20 CL1  UNL     1      21.248   0.932  49.636  1.00  0.00    -0.129 Cl
ENDBRANCH  18  19
ENDBRANCH  17  18
BRANCH  17  21
HETATM   21  C13 UNL     1      19.029  -0.511  52.114  1.00  0.00     0.138 C 
BRANCH  21  22
HETATM   22  C14 UNL     1      18.091  -0.808  53.262  1.00  0.00     0.134 C 
HETATM   23 CL2  UNL     1      18.184  -2.558  53.666  1.00  0.00    -0.129 Cl
ENDBRANCH  21  22
ENDBRANCH  17  21
ENDBRANCH   3  17
TORSDOF 7
ENDMDL
MODEL 2
REMARK VINA RESULT:      -7.5      1.117      2.452
REMARK  7 active torsions:
REMARK  status: ('A' for Active; 'I' for Inactive)
REMARK       I    between atoms: C1_2  and  N1_3 
REMARK    1  A    between atoms: C1_2  and  C8_11 
REMARK    2  A    between atoms: N1_3  and  C2_4 
REMARK    3  A    between atoms: C10_13  and  N2_14 
REMARK    4  A    between atoms: N2_14  and  C11_15 
REMARK    5  A    between atoms: N2_14  and  C13_18 
REMARK    6  A    between atoms: C11_15  and  C12_16 
REMARK    7  A    between atoms: C13_18  and  C14_19 
ROOT
HETATM    1  C8  UNL     1      23.690  -0.223  53.482  1.00  0.00     0.045 A 
HETATM    2  C9  UNL     1      22.717   0.385  52.871  1.00  0.00     0.020 A 
HETATM    3  C10 UNL     1      21.515   0.190  53.387  1.00  0.00     0.042 A 
HETATM    4  C15 UNL     1      21.699  -0.670  54.520  1.00  0.00     0.031 A 
HETATM    5  C16 UNL     1      23.016  -0.911  54.564  1.00  0.00     0.020 A 
ENDROOT
BRANCH   1   6
HETATM    6  C1  UNL     1      25.129  -0.439  53.472  1.00  0.00     0.257 C 
HETATM    7  O1  UNL     1      25.752  -0.894  54.485  1.00  0.00    -0.267 OA
HETATM    8  N1  UNL     1      26.048  -0.221  52.450  1.00  0.00    -0.320 N 
HETATM    9  H1  UNL     1      25.655   0.154  51.535  1.00  0.00     0.169 HD
BRANCH   8  10
HETATM   10  C2  UNL     1      27.370  -0.557  52.864  1.00  0.00     0.073 A 
HETATM   11  C3  UNL     1      28.176   0.459  53.388  1.00  0.00     0.033 A 
HETATM   12  C4  UNL     1      29.450   0.199  53.818  1.00  0.00     0.002 A 
HETATM   13  C5  UNL     1      29.981  -1.090  53.749  1.00  0.00     0.003 A 
HETATM   14  C6  UNL     1      29.172  -2.074  53.231  1.00  0.00     0.044 A 
HETATM   15  C7  UNL     1      27.884  -1.856  52.784  1.00  0.00     0.143 A 
HETATM   16  F1  UNL     1      27.085  -2.813  52.288  1.00  0.00    -0.204 F 
ENDBRANCH   8  10
ENDBRANCH   1   6
BRANCH   3  17
HETATM   17  N2  UNL     1      20.568   0.909  52.606  1.00  0.00    -0.378 N 
BRANCH  17  18
HETATM   18  C11 UNL     1      19.866   0.272  51.490  1.00  0.00     0.138 C 
BRANCH  18  19
HETATM   19  C12 UNL     1      18.413   0.107  51.947  1.00  0.00     0.134 C 
HETATM   20 CL1  UNL     1      18.241  -1.267  53.077  1.00  0.00    -0.129 Cl
ENDBRANCH  18  19
ENDBRANCH  17  18
BRANCH  17  21
HETATM   21  C13 UNL     1      20.182   2.302  52.738  1.00  0.00     0.138 C 
BRANCH  21  22
HETATM   22  C14 UNL     1      20.726   3.109  51.580  1.00  0.00     0.134 C 
HETATM   23 CL2  UNL     1      22.226   3.953  52.099  1.00  0.00    -0.129 Cl
ENDBRANCH  21  22
ENDBRANCH  17  21
ENDBRANCH   3  17
TORSDOF 7
ENDMDL
MODEL 3
REMARK VINA RESULT:      -7.3      1.504      2.814
REMARK  7 active torsions:
REMARK  status: ('A' for Active; 'I' for Inactive)
REMARK       I    between atoms: C1_2  and  N1_3 
REMARK    1  A    between atoms: C1_2  and  C8_11 
REMARK    2  A    between atoms: N1_3  and  C2_4 
REMARK    3  A    between atoms: C10_13  and  N2_14 
REMARK    4  A    between atoms: N2_14  and  C11_15 
REMARK    5  A    between atoms: N2_14  and  C13_18 
REMARK    6  A    between atoms: C11_15  and  C12_16 
REMARK    7  A    between atoms: C13_18  and  C14_19 
ROOT
HETATM    1  C8  UNL     1      23.683  -0.259  53.500  1.00  0.00     0.045 A 
HETATM    2  C9  UNL     1      22.723   0.354  52.875  1.00  0.00     0.020 A 
HETATM    3  C10 UNL     1      21.515   0.181  53.385  1.00  0.00     0.042 A 
HETATM    4  C15 UNL     1      21.681  -0.668  54.529  1.00  0.00     0.031 A 
HETATM    5  C16 UNL     1      22.994  -0.926  54.585  1.00  0.00     0.020 A 
ENDROOT
BRANCH   1   6
HETATM    6  C1  UNL     1      25.120  -0.494  53.502  1.00  0.00     0.257 C 
HETATM    7  O1  UNL     1      25.730  -0.950  54.523  1.00  0.00    -0.267 OA
HETATM    8  N1  UNL     1      26.050  -0.294  52.486  1.00  0.00    -0.320 N 
HETATM    9  H1  UNL     1      25.668   0.080  51.565  1.00  0.00     0.169 HD
BRANCH   8  10
HETATM   10  C2  UNL     1      27.364  -0.645  52.912  1.00  0.00     0.073 A 
HETATM   11  C3  UNL     1      27.766  -1.979  52.780  1.00  0.00     0.033 A 
HETATM   12  C4  UNL     1      29.020  -2.378  53.156  1.00  0.00     0.002 A 
HETATM   13  C5  UNL     1      29.938  -1.465  53.678  1.00  0.00     0.003 A 
HETATM   14  C6  UNL     1      29.522  -0.160  53.799  1.00  0.00     0.044 A 
HETATM   15  C7  UNL     1      28.267   0.286  53.435  1.00  0.00     0.143 A 
HETATM   16  F1  UNL     1      27.859   1.560  53.539  1.00  0.00    -0.204 F 
ENDBRANCH   8  10
ENDBRANCH   1   6
BRANCH   3  17
HETATM   17  N2  UNL     1      20.583   0.903  52.590  1.00  0.00    -0.378 N 
BRANCH  17  18
HETATM   18  C11 UNL     1      19.938   0.286  51.429  1.00  0.00     0.138 C 
BRANCH  18  19
HETATM   19  C12 UNL     1      18.467   0.103  51.814  1.00  0.00     0.134 C 
HETATM   20 CL1  UNL     1      18.268  -1.206  53.015  1.00  0.00    -0.129 Cl
ENDBRANCH  18  19
ENDBRANCH  17  18
BRANCH  17  21
HETATM   21  C13 UNL     1      20.161   2.283  52.748  1.00  0.00     0.138 C 
BRANCH  21  22
HETATM   22  C14 UNL     1      20.719   3.133  51.629  1.00  0.00     0.134 C 
HETATM   23 CL2  UNL     1      22.258   3.890  52.170  1.00  0.00    -0.129 Cl
ENDBRANCH  21  22
ENDBRANCH  17  21
ENDBRANCH   3  17
TORSDOF 7
ENDMDL
MODEL 4
REMARK VINA RESULT:      -7.0      1.734      2.095
REMARK  7 active torsions:
REMARK  status: ('A' for Active; 'I' for Inactive)
REMARK       I    between atoms: C1_2  and  N1_3 
REMARK    1  A    between atoms: C1_2  and  C8_11 
REMARK    2  A    between atoms: N1_3  and  C2_4 
REMARK    3  A    between atoms: C10_13  and  N2_14 
REMARK    4  A    between atoms: N2_14  and  C11_15 
REMARK    5  A    between atoms: N2_14  and  C13_18 
REMARK    6  A    between atoms: C11_15  and  C12_16 
REMARK    7  A    between atoms: C13_18  and  C14_19 
ROOT
HETATM    1  C8  UNL     1      23.620   0.510  53.122  1.00  0.00     0.045 A 
HETATM    2  C9  UNL     1      22.778   1.361  52.618  1.00  0.00     0.020 A 
HETATM    3  C10 UNL     1      21.509   1.153  52.929  1.00  0.00     0.042 A 
HETATM    4  C15 UNL     1      21.488  -0.005  53.774  1.00  0.00     0.031 A 
HETATM    5  C16 UNL     1      22.768  -0.383  53.880  1.00  0.00     0.020 A 
ENDROOT
BRANCH   1   6
HETATM    6  C1  UNL     1      25.031   0.158  53.196  1.00  0.00     0.257 C 
HETATM    7  O1  UNL     1      25.561  -0.293  54.262  1.00  0.00    -0.267 OA
HETATM    8  N1  UNL     1      26.012   0.228  52.211  1.00  0.00    -0.320 N 
HETATM    9  H1  UNL     1      25.699   0.584  51.258  1.00  0.00     0.169 HD
BRANCH   8  10
HETATM   10  C2  UNL     1      27.275  -0.206  52.708  1.00  0.00     0.073 A 
HETATM   11  C3  UNL     1      28.142   0.756  53.237  1.00  0.00     0.033 A 
HETATM   12  C4  UNL     1      29.363   0.402  53.745  1.00  0.00     0.002 A 
HETATM   13  C5  UNL     1      29.778  -0.930  53.753  1.00  0.00     0.003 A 
HETATM   14  C6  UNL     1      28.911  -1.859  53.229  1.00  0.00     0.044 A 
HETATM   15  C7  UNL     1      27.673  -1.547  52.705  1.00  0.00     0.143 A 
HETATM   16  F1  UNL     1      26.816  -2.450  52.202  1.00  0.00    -0.204 F 
ENDBRANCH   8  10
ENDBRANCH   1   6
BRANCH   3  17
HETATM   17  N2  UNL     1      20.721   2.157  52.300  1.00  0.00    -0.378 N 
BRANCH  17  18
HETATM   18  C11 UNL     1      21.062   3.576  52.424  1.00  0.00     0.138 C 
BRANCH  18  19
HETATM   19  C12 UNL     1      20.829   4.187  51.039  1.00  0.00     0.134 C 
HETATM   20 CL1  UNL     1      22.334   4.203  50.075  1.00  0.00    -0.129 Cl
ENDBRANCH  18  19
ENDBRANCH  17  18
BRANCH  17  21
HETATM   21  C13 UNL     1      19.514   1.978  51.514  1.00  0.00     0.138 C 
BRANCH  21  22
HETATM   22  C14 UNL     1      19.612   0.718  50.683  1.00  0.00     0.134 C 
HETATM   23 CL2  UNL     1      20.928   0.907  49.473  1.00  0.00    -0.129 Cl
ENDBRANCH  21  22
ENDBRANCH  17  21
ENDBRANCH   3  17
TORSDOF 7
ENDMDL
MODEL 5
REMARK VINA RESULT:      -6.8      2.020      3.250
REMARK  7 active torsions:
REMARK  status: ('A' for Active; 'I' for Inactive)
REMARK       I    between atoms: C1_2  and  N1_3 
REMARK    1  A    between atoms: C1_2  and  C8_11 
REMARK    2  A    between atoms: N1_3  and  C2_4 
REMARK    3  A    between atoms: C10_13  and  N2_14 
REMARK    4  A    between atoms: N2_14  and  C11_15 
REMARK    5  A    between atoms: N2_14  and  C13_18 
REMARK    6  A    between atoms: C11_15  and  C12_16 
REMARK    7  A    between atoms: C13_18  and  C14_19 
ROOT
HETATM    1  C8  UNL     1      24.049   1.328  52.209  1.00  0.00     0.045 A 
HETATM    2  C9  UNL     1      22.896   1.093  51.658  1.00  0.00     0.020 A 
HETATM    3  C10 UNL     1      22.070   2.125  51.613  1.00  0.00     0.042 A 
HETATM    4  C15 UNL     1      22.767   3.224  52.214  1.00  0.00     0.031 A 
HETATM    5  C16 UNL     1      23.959   2.728  52.570  1.00  0.00     0.020 A 
ENDROOT
BRANCH   1   6
HETATM    6  C1  UNL     1      25.325   0.724  52.565  1.00  0.00     0.257 C 
HETATM    7  O1  UNL     1      26.397   0.981  51.928  1.00  0.00    -0.267 OA
HETATM    8  N1  UNL     1      25.622  -0.176  53.584  1.00  0.00    -0.320 N 
HETATM    9  H1  UNL     1      24.810  -0.471  54.205  1.00  0.00     0.169 HD
BRANCH   8  10
HETATM   10  C2  UNL     1      27.004  -0.526  53.578  1.00  0.00     0.073 A 
HETATM   11  C3  UNL     1      27.884   0.248  54.343  1.00  0.00     0.033 A 
HETATM   12  C4  UNL     1      29.221  -0.044  54.391  1.00  0.00     0.002 A 
HETATM   13  C5  UNL     1      29.745  -1.125  53.682  1.00  0.00     0.003 A 
HETATM   14  C6  UNL     1      28.863  -1.872  52.937  1.00  0.00     0.044 A 
HETATM   15  C7  UNL     1      27.510  -1.613  52.857  1.00  0.00     0.143 A 
HETATM   16  F1  UNL     1      26.642  -2.344  52.142  1.00  0.00    -0.204 F 
ENDBRANCH   8  10
ENDBRANCH   1   6
BRANCH   3  17
HETATM   17  N2  UNL     1      20.860   1.706  50.993  1.00  0.00    -0.378 N 
BRANCH  17  18
HETATM   18  C11 UNL     1      19.577   1.801  51.693  1.00  0.00     0.138 C 
BRANCH  18  19
HETATM   19  C12 UNL     1      19.090   0.361  51.876  1.00  0.00     0.134 C 
HETATM   20 CL1  UNL     1      19.918  -0.434  53.247  1.00  0.00    -0.129 Cl
ENDBRANCH  18  19
ENDBRANCH  17  18
BRANCH  17  21
HETATM   21  C13 UNL     1      20.692   1.121  49.675  1.00  0.00     0.138 C 
BRANCH  21  22
HETATM   22  C14 UNL     1      20.871   2.177  48.607  1.00  0.00     0.134 C 
HETATM   23 CL2  UNL     1      22.534   2.061  47.933  1.00  0.00    -0.129 Cl
ENDBRANCH  21  22
ENDBRANCH  17  21
ENDBRANCH   3  17
TORSDOF 7
ENDMDL
MODEL 6
REMARK VINA RESULT:      -6.5      2.326      2.681
REMARK  7 active torsions:
REMARK  status: ('A' for Active; 'I' for Inactive)
REMARK       I    between atoms: C1_2  and  N1_3 
REMARK    1  A    between atoms: C1_2  and  C8_11 
REMARK    2  A    between atoms: N1_3  and  C2_4 
REMARK    3  A    between atoms: C10_13  and  N2_14 
REMARK    4  A    between atoms: N2_14  and  C11_15 
REMARK    5  A    between atoms: N2_14  and  C13_18 
REMARK    6  A    between atoms: C11_15  and  C12_16 
REMARK    7  A    between atoms: C13_18  and  C14_19 
ROOT
HETATM    1  C8  UNL     1      24.067   1.440  51.930  1.00  0.00     0.045 A 
HETATM    2  C9  UNL     1      22.968   1.243  51.267  1.00  0.00     0.020 A 
HETATM    3  C10 UNL     1      22.145   2.279  51.214  1.00  0.00     0.042 A 
HETATM    4  C15 UNL     1      22.785   3.336  51.942  1.00  0.00     0.031 A 
HETATM    5  C16 UNL     1      23.942   2.814  52.369  1.00  0.00     0.020 A 
ENDROOT
BRANCH   1   6
HETATM    6  C1  UNL     1      25.308   0.811  52.358  1.00  0.00     0.257 C 
HETATM    7  O1  UNL     1      26.419   1.041  51.779  1.00  0.00    -0.267 OA
HETATM    8  N1  UNL     1      25.531  -0.089  53.396  1.00  0.00    -0.320 N 
HETATM    9  H1  UNL     1      24.679  -0.363  53.973  1.00  0.00     0.169 HD
BRANCH   8  10
HETATM   10  C2  UNL     1      26.903  -0.468  53.466  1.00  0.00     0.073 A 
HETATM   11  C3  UNL     1      27.762   0.307  54.253  1.00  0.00     0.033 A 
HETATM   12  C4  UNL     1      29.088  -0.012  54.375  1.00  0.00     0.002 A 
HETATM   13  C5  UNL     1      29.621  -1.123  53.721  1.00  0.00     0.003 A 
HETATM   14  C6  UNL     1      28.760  -1.871  52.953  1.00  0.00     0.044 A 
HETATM   15  C7  UNL     1      27.418  -1.585  52.800  1.00  0.00     0.143 A 
HETATM   16  F1  UNL     1      26.569  -2.316  52.062  1.00  0.00    -0.204 F 
ENDBRANCH   8  10
ENDBRANCH   1   6
BRANCH   3  17
HETATM   17  N2  UNL     1      20.996   1.902  50.466  1.00  0.00    -0.378 N 
BRANCH  17  18
HETATM   18  C11 UNL     1      21.116   1.113  49.238  1.00  0.00     0.138 C 
BRANCH  18  19
HETATM   19  C12 UNL     1      21.137   2.125  48.088  1.00  0.00     0.134 C 
HETATM   20 CL1  UNL     1      22.743   2.184  47.305  1.00  0.00    -0.129 Cl
ENDBRANCH  18  19
ENDBRANCH  17  18
BRANCH  17  21
HETATM   21  C13 UNL     1      19.609   2.233  50.739  1.00  0.00     0.138 C 
BRANCH  21  22
HETATM   22  C14 UNL     1      19.217   1.751  52.118  1.00  0.00     0.134 C 
HETATM   23 CL2  UNL     1      19.435  -0.031  52.207  1.00  0.00    -0.129 Cl
ENDBRANCH  21  22
ENDBRANCH  17  21
ENDBRANCH   3  17
TORSDOF 7
ENDMDL
MODEL 7
REMARK VINA RESULT:      -6.4      3.088      4.079
REMARK  7 active torsions:
REMARK  status: ('A' for Active; 'I' for Inactive)
REMARK       I    between atoms: C1_2  and  N1_3 
REMARK    1  A    between atoms: C1_2  and  C8_11 
REMARK    2  A    between atoms: N1_3  and  C2_4 
REMARK    3  A    between atoms: C10_13  and  N2_14 
REMARK    4  A    between atoms: N2_14  and  C11_15 
REMARK    5  A    between atoms: N2_14  and  C13_18 
REMARK    6  A    between atoms: C11_15  and  C12_16 
REMARK    7  A    between atoms: C13_18  and  C14_19 
ROOT
HETATM    1  C8  UNL     1      24.306   1.647  51.848  1.00  0.00     0.045 A 
HETATM    2  C9  UNL     1      23.803   2.723  51.322  1.00  0.00     0.020 A 
HETATM    3  C10 UNL     1      22.490   2.710  51.155  1.00  0.00     0.042 A 
HETATM    4  C15 UNL     1      22.036   1.443  51.648  1.00  0.00     0.031 A 
HETATM    5  C16 UNL     1      23.142   0.811  52.061  1.00  0.00     0.020 A 
ENDROOT
BRANCH   1   6
HETATM    6  C1  UNL     1      25.548   1.021  52.279  1.00  0.00     0.257 C 
HETATM    7  O1  UNL     1      26.615   1.087  51.588  1.00  0.00    -0.267 OA
HETATM    8  N1  UNL     1      25.814   0.289  53.433  1.00  0.00    -0.320 N 
HETATM    9  H1  UNL     1      25.003   0.164  54.110  1.00  0.00     0.169 HD
BRANCH   8  10
HETATM   10  C2  UNL     1      27.168  -0.156  53.461  1.00  0.00     0.073 A 
HETATM   11  C3  UNL     1      28.127   0.686  54.036  1.00  0.00     0.033 A 
HETATM   12  C4  UNL     1      29.442   0.311  54.108  1.00  0.00     0.002 A 
HETATM   13  C5  UNL     1      29.865  -0.923  53.614  1.00  0.00     0.003 A 
HETATM   14  C6  UNL     1      28.907  -1.735  53.054  1.00  0.00     0.044 A 
HETATM   15  C7  UNL     1      27.572  -1.397  52.958  1.00  0.00     0.143 A 
HETATM   16  F1  UNL     1      26.629  -2.188  52.422  1.00  0.00    -0.204 F 
ENDBRANCH   8  10
ENDBRANCH   1   6
BRANCH   3  17
HETATM   17  N2  UNL     1      22.100   3.945  50.568  1.00  0.00    -0.378 N 
BRANCH  17  18
HETATM   18  C11 UNL     1      21.592   5.047  51.388  1.00  0.00     0.138 C 
BRANCH  18  19
HETATM   19  C12 UNL     1      22.343   6.298  50.923  1.00  0.00     0.134 C 
HETATM   20 CL1  UNL     1      21.213   7.631  50.547  1.00  0.00    -0.129 Cl
ENDBRANCH  18  19
ENDBRANCH  17  18
BRANCH  17  21
HETATM   21  C13 UNL     1      22.100   4.301  49.160  1.00  0.00     0.138 C 
BRANCH  21  22
HETATM   22  C14 UNL     1      21.352   3.261  48.357  1.00  0.00     0.134 C 
HETATM   23 CL2  UNL     1      22.527   2.093  47.658  1.00  0.00    -0.129 Cl
ENDBRANCH  21  22
ENDBRANCH  17  21
ENDBRANCH   3  17
TORSDOF 7
ENDMDL
MODEL 8
REMARK VINA RESULT:      -6.4      2.797      4.040
REMARK  7 active torsions:
REMARK  status: ('A' for Active; 'I' for Inactive)
REMARK       I    between atoms: C1_2  and  N1_3 
REMARK    1  A    between atoms: C1_2  and  C8_11 
REMARK    2  A    between atoms: N1_3  and  C2_4 
REMARK    3  A    between atoms: C10_13  and  N2_14 
REMARK    4  A    between atoms: N2_14  and  C11_15 
REMARK    5  A    between atoms: N2_14  and  C13_18 
REMARK    6  A    between atoms: C11_15  and  C12_16 
REMARK    7  A    between atoms: C13_18  and  C14_19 
ROOT
HETATM    1  C8  UNL     1      24.339   1.798  51.755  1.00  0.00     0.045 A 
HETATM    2  C9  UNL     1      23.519   1.891  50.752  1.00  0.00     0.020 A 
HETATM    3  C10 UNL     1      22.476   2.682  50.945  1.00  0.00     0.042 A 
HETATM    4  C15 UNL     1      22.614   3.211  52.270  1.00  0.00     0.031 A 
HETATM    5  C16 UNL     1      23.741   2.667  52.747  1.00  0.00     0.020 A 
ENDROOT
BRANCH   1   6
HETATM    6  C1  UNL     1      25.575   1.175  52.208  1.00  0.00     0.257 C 
HETATM    7  O1  UNL     1      26.622   1.144  51.484  1.00  0.00    -0.267 OA
HETATM    8  N1  UNL     1      25.854   0.542  53.415  1.00  0.00    -0.320 N 
HETATM    9  H1  UNL     1      25.060   0.505  54.123  1.00  0.00     0.169 HD
BRANCH   8  10
HETATM   10  C2  UNL     1      27.194   0.059  53.447  1.00  0.00     0.073 A 
HETATM   11  C3  UNL     1      28.188   0.900  53.962  1.00  0.00     0.033 A 
HETATM   12  C4  UNL     1      29.492   0.490  54.034  1.00  0.00     0.002 A 
HETATM   13  C5  UNL     1      29.870  -0.781  53.600  1.00  0.00     0.003 A 
HETATM   14  C6  UNL     1      28.879  -1.591  53.098  1.00  0.00     0.044 A 
HETATM   15  C7  UNL     1      27.553  -1.219  53.004  1.00  0.00     0.143 A 
HETATM   16  F1  UNL     1      26.579  -2.008  52.526  1.00  0.00    -0.204 F 
ENDBRANCH   8  10
ENDBRANCH   1   6
BRANCH   3  17
HETATM   17  N2  UNL     1      21.678   2.669  49.767  1.00  0.00    -0.378 N 
BRANCH  17  18
HETATM   18  C11 UNL     1      21.206   1.411  49.186  1.00  0.00     0.138 C 
BRANCH  18  19
HETATM   19  C12 UNL     1      19.827   1.155  49.802  1.00  0.00     0.134 C 
HETATM   20 CL1  UNL     1      19.962   0.291  51.361  1.00  0.00    -0.129 Cl
ENDBRANCH  18  19
ENDBRANCH  17  18
BRANCH  17  21
HETATM   21  C13 UNL     1      21.250   3.804  48.970  1.00  0.00     0.138 C 
BRANCH  21  22
HETATM   22  C14 UNL     1      22.156   3.975  47.772  1.00  0.00     0.134 C 
HETATM   23 CL2  UNL     1      23.311   5.316  48.090  1.00  0.00    -0.129 Cl
ENDBRANCH  21  22
ENDBRANCH  17  21
ENDBRANCH   3  17
TORSDOF 7
ENDMDL
MODEL 9
REMARK VINA RESULT:      -6.3      3.119      3.867
REMARK  7 active torsions:
REMARK  status: ('A' for Active; 'I' for Inactive)
REMARK       I    between atoms: C1_2  and  N1_3 
REMARK    1  A    between atoms: C1_2  and  C8_11 
REMARK    2  A    between atoms: N1_3  and  C2_4 
REMARK    3  A    between atoms: C10_13  and  N2_14 
REMARK    4  A    between atoms: N2_14  and  C11_15 
REMARK    5  A    between atoms: N2_14  and  C13_18 
REMARK    6  A    between atoms: C11_15  and  C12_16 
REMARK    7  A    between atoms: C13_18  and  C14_19 
ROOT
HETATM    1  C8  UNL     1      24.574   2.316  51.904  1.00  0.00     0.045 A 
HETATM    2  C9  UNL     1      23.687   2.376  50.957  1.00  0.00     0.020 A 
HETATM    3  C10 UNL     1      22.716   3.255  51.145  1.00  0.00     0.042 A 
HETATM    4  C15 UNL     1      22.989   3.890  52.401  1.00  0.00     0.031 A 
HETATM    5  C16 UNL     1      24.111   3.312  52.848  1.00  0.00     0.020 A 
ENDROOT
BRANCH   1   6
HETATM    6  C1  UNL     1      25.797   1.649  52.327  1.00  0.00     0.257 C 
HETATM    7  O1  UNL     1      26.734   1.371  51.510  1.00  0.00    -0.267 OA
HETATM    8  N1  UNL     1      26.173   1.214  53.594  1.00  0.00    -0.320 N 
HETATM    9  H1  UNL     1      25.478   1.394  54.380  1.00  0.00     0.169 HD
BRANCH   8  10
HETATM   10  C2  UNL     1      27.457   0.597  53.568  1.00  0.00     0.073 A 
HETATM   11  C3  UNL     1      27.522  -0.782  53.340  1.00  0.00     0.033 A 
HETATM   12  C4  UNL     1      28.726  -1.433  53.288  1.00  0.00     0.002 A 
HETATM   13  C5  UNL     1      29.925  -0.739  53.456  1.00  0.00     0.003 A 
HETATM   14  C6  UNL     1      29.838   0.614  53.679  1.00  0.00     0.044 A 
HETATM   15  C7  UNL     1      28.648   1.310  53.742  1.00  0.00     0.143 A 
HETATM   16  F1  UNL     1      28.557   2.633  53.948  1.00  0.00    -0.204 F 
ENDBRANCH   8  10
ENDBRANCH   1   6
BRANCH   3  17
HETATM   17  N2  UNL     1      21.831   3.193  50.033  1.00  0.00    -0.378 N 
BRANCH  17  18
HETATM   18  C11 UNL     1      21.628   4.352  49.161  1.00  0.00     0.138 C 
BRANCH  18  19
HETATM   19  C12 UNL     1      22.777   4.324  48.150  1.00  0.00     0.134 C 
HETATM   20 CL1  UNL     1      24.103   5.416  48.644  1.00  0.00    -0.129 Cl
ENDBRANCH  18  19
ENDBRANCH  17  18
BRANCH  17  21
HETATM   21  C13 UNL     1      21.009   2.073  49.612  1.00  0.00     0.138 C 
BRANCH  21  22
HETATM   22  C14 UNL     1      20.230   1.524  50.786  1.00  0.00     0.134 C 
HETATM   23 CL2  UNL     1      21.028   0.025  51.378  1.00  0.00    -0.129 Cl
ENDBRANCH  21  22
ENDBRANCH  17  21
ENDBRANCH   3  17
TORSDOF 7
ENDMDL
