MODEL 1
REMARK VINA RESULT:      -9.4      0.000      0.000
REMARK  4 active torsions:
REMARK  status: ('A' for Active; 'I' for Inactive)
REMARK    1  A    between atoms: C2_2  and  N1_3 
REMARK    2  A    between atoms: C2_2  and  C9_12 
REMARK    3  A    between atoms: N1_3  and  C3_4 
REMARK    4  A    between atoms: C12_15  and  C13_16 
ROOT
HETATM    1  C13 UNL     1      19.407  -0.595  52.662  1.00  0.00    -0.026 A 
HETATM    2  C14 UNL     1      19.053   0.108  51.529  1.00  0.00     0.014 A 
HETATM    3  C15 UNL     1      17.750   0.078  51.053  1.00  0.00     0.023 A 
HETATM    4  C16 UNL     1      16.838  -0.682  51.767  1.00  0.00     0.044 A 
HETATM    5  C17 UNL     1      15.464  -0.737  51.298  1.00  0.00     0.099 C 
HETATM    6  N4  UNL     1      14.351  -0.778  50.933  1.00  0.00    -0.191 NA
HETATM    7  C18 UNL     1      17.181  -1.390  52.901  1.00  0.00     0.023 A 
HETATM    8  C19 UNL     1      18.478  -1.355  53.364  1.00  0.00     0.014 A 
ENDROOT
BRANCH   1   9
HETATM    9  C12 UNL     1      20.784  -0.567  53.168  1.00  0.00    -0.026 A 
HETATM   10  C11 UNL     1      21.188  -1.176  54.338  1.00  0.00     0.013 A 
HETATM   11  C10 UNL     1      22.492  -1.128  54.784  1.00  0.00     0.010 A 
HETATM   12  C9  UNL     1      23.438  -0.439  54.024  1.00  0.00    -0.036 A 
HETATM   13  C21 UNL     1      23.028   0.173  52.846  1.00  0.00     0.010 A 
HETATM   14  C20 UNL     1      21.717   0.128  52.393  1.00  0.00     0.013 A 
BRANCH  12  15
HETATM   15  C2  UNL     1      24.819  -0.402  54.516  1.00  0.00     0.112 C 
HETATM   16  C1  UNL     1      24.924  -1.223  55.777  1.00  0.00     0.037 C 
BRANCH  15  17
HETATM   17  N1  UNL     1      25.743  -0.826  53.505  1.00  0.00    -0.366 N 
HETATM   18  H5  UNL     1      25.369  -1.384  52.679  1.00  0.00     0.161 HD
BRANCH  17  19
HETATM   19  C3  UNL     1      27.138  -0.570  53.496  1.00  0.00     0.138 A 
HETATM   20  N2  UNL     1      28.006  -1.594  53.434  1.00  0.00    -0.224 NA
HETATM   21  C4  UNL     1      29.339  -1.436  53.422  1.00  0.00     0.235 A 
HETATM   22  N3  UNL     1      29.849  -0.189  53.475  1.00  0.00    -0.241 NA
HETATM   23  C5  UNL     1      29.051   0.891  53.539  1.00  0.00     0.072 A 
HETATM   24  C6  UNL     1      27.671   0.701  53.550  1.00  0.00     0.038 A 
HETATM   25  C8  UNL     1      28.735   2.324  53.613  1.00  0.00     0.034 A 
HETATM   26  C7  UNL     1      27.419   2.129  53.622  1.00  0.00     0.020 A 
ENDBRANCH  17  19
ENDBRANCH  15  17
ENDBRANCH  12  15
ENDBRANCH   1   9
TORSDOF 4
ENDMDL
MODEL 2
REMARK VINA RESULT:      -9.3      1.769      2.935
REMARK  4 active torsions:
REMARK  status: ('A' for Active; 'I' for Inactive)
REMARK    1  A    between atoms: C2_2  and  N1_3 
REMARK    2  A    between atoms: C2_2  and  C9_12 
REMARK    3  A    between atoms: N1_3  and  C3_4 
REMARK    4  A    between atoms: C12_15  and  C13_16 
ROOT
HETATM    1  C13 UNL     1      20.166   0.128  52.080  1.00  0.00    -0.026 A 
HETATM    2  C14 UNL     1      19.762  -0.559  53.207  1.00  0.00     0.014 A 
HETATM    3  C15 UNL     1      18.469  -1.051  53.313  1.00  0.00     0.023 A 
HETATM    4  C16 UNL     1      17.619  -0.818  52.244  1.00  0.00     0.044 A 
HETATM    5  C17 UNL     1      16.257  -1.318  52.321  1.00  0.00     0.099 C 
HETATM    6  N4  UNL     1      15.160  -1.727  52.369  1.00  0.00    -0.191 NA
HETATM    7  C18 UNL     1      18.011  -0.131  51.113  1.00  0.00     0.023 A 
HETATM    8  C19 UNL     1      19.297   0.354  51.018  1.00  0.00     0.014 A 
ENDROOT
BRANCH   1   9
HETATM    9  C12 UNL     1      21.532   0.651  51.964  1.00  0.00    -0.026 A 
HETATM   10  C11 UNL     1      22.511   0.469  52.919  1.00  0.00     0.013 A 
HETATM   11  C10 UNL     1      23.786   0.976  52.777  1.00  0.00     0.010 A 
HETATM   12  C9  UNL     1      24.097   1.698  51.624  1.00  0.00    -0.036 A 
HETATM   13  C21 UNL     1      23.109   1.879  50.664  1.00  0.00     0.010 A 
HETATM   14  C20 UNL     1      21.825   1.372  50.803  1.00  0.00     0.013 A 
BRANCH  12  15
HETATM   15  C2  UNL     1      25.459   2.227  51.493  1.00  0.00     0.112 C 
HETATM   16  C1  UNL     1      25.433   3.472  50.642  1.00  0.00     0.037 C 
BRANCH  15  17
HETATM   17  N1  UNL     1      26.057   2.451  52.777  1.00  0.00    -0.366 N 
HETATM   18  H5  UNL     1      25.587   3.139  53.440  1.00  0.00     0.161 HD
BRANCH  17  19
HETATM   19  C3  UNL     1      27.237   1.833  53.262  1.00  0.00     0.138 A 
HETATM   20  N2  UNL     1      28.164   2.569  53.900  1.00  0.00    -0.224 NA
HETATM   21  C4  UNL     1      29.307   2.061  54.387  1.00  0.00     0.235 A 
HETATM   22  N3  UNL     1      29.552   0.743  54.235  1.00  0.00    -0.241 NA
HETATM   23  C5  UNL     1      28.679  -0.063  53.610  1.00  0.00     0.072 A 
HETATM   24  C6  UNL     1      27.499   0.488  53.113  1.00  0.00     0.038 A 
HETATM   25  C8  UNL     1      28.170  -1.335  53.075  1.00  0.00     0.034 A 
HETATM   26  C7  UNL     1      27.047  -0.796  52.607  1.00  0.00     0.020 A 
ENDBRANCH  17  19
ENDBRANCH  15  17
ENDBRANCH  12  15
ENDBRANCH   1   9
TORSDOF 4
ENDMDL
MODEL 3
REMARK VINA RESULT:      -9.1      4.343      8.061
REMARK  4 active torsions:
REMARK  status: ('A' for Active; 'I' for Inactive)
REMARK    1  A    between atoms: C2_2  and  N1_3 
REMARK    2  A    between atoms: C2_2  and  C9_12 
REMARK    3  A    between atoms: N1_3  and  C3_4 
REMARK    4  A    between atoms: C12_15  and  C13_16 
ROOT
HETATM    1  C13 UNL     1      25.473   4.573  49.809  1.00  0.00    -0.026 A 
HETATM    2  C14 UNL     1      25.245   5.918  49.601  1.00  0.00     0.014 A 
HETATM    3  C15 UNL     1      26.173   6.699  48.927  1.00  0.00     0.023 A 
HETATM    4  C16 UNL     1      27.321   6.065  48.481  1.00  0.00     0.044 A 
HETATM    5  C17 UNL     1      28.315   6.852  47.771  1.00  0.00     0.099 C 
HETATM    6  N4  UNL     1      29.118   7.477  47.188  1.00  0.00    -0.191 NA
HETATM    7  C18 UNL     1      27.560   4.721  48.684  1.00  0.00     0.023 A 
HETATM    8  C19 UNL     1      26.633   3.955  49.355  1.00  0.00     0.014 A 
ENDROOT
BRANCH   1   9
HETATM    9  C12 UNL     1      24.494   3.744  50.522  1.00  0.00    -0.026 A 
HETATM   10  C11 UNL     1      24.169   3.907  51.852  1.00  0.00     0.013 A 
HETATM   11  C10 UNL     1      23.244   3.107  52.491  1.00  0.00     0.010 A 
HETATM   12  C9  UNL     1      22.615   2.096  51.764  1.00  0.00    -0.036 A 
HETATM   13  C21 UNL     1      22.945   1.934  50.424  1.00  0.00     0.010 A 
HETATM   14  C20 UNL     1      23.875   2.735  49.778  1.00  0.00     0.013 A 
BRANCH  12  15
HETATM   15  C2  UNL     1      21.635   1.258  52.462  1.00  0.00     0.112 C 
HETATM   16  C1  UNL     1      20.326   1.288  51.713  1.00  0.00     0.037 C 
BRANCH  15  17
HETATM   17  N1  UNL     1      22.129  -0.075  52.651  1.00  0.00    -0.366 N 
HETATM   18  H5  UNL     1      21.743  -0.850  52.032  1.00  0.00     0.161 HD
BRANCH  17  19
HETATM   19  C3  UNL     1      23.104  -0.471  53.602  1.00  0.00     0.138 A 
HETATM   20  N2  UNL     1      22.719  -1.031  54.762  1.00  0.00    -0.224 NA
HETATM   21  C4  UNL     1      23.578  -1.431  55.713  1.00  0.00     0.235 A 
HETATM   22  N3  UNL     1      24.901  -1.270  55.506  1.00  0.00    -0.241 NA
HETATM   23  C5  UNL     1      25.370  -0.719  54.375  1.00  0.00     0.072 A 
HETATM   24  C6  UNL     1      24.459  -0.311  53.403  1.00  0.00     0.038 A 
HETATM   25  C8  UNL     1      26.399  -0.234  53.443  1.00  0.00     0.034 A 
HETATM   26  C7  UNL     1      25.519   0.150  52.523  1.00  0.00     0.020 A 
ENDBRANCH  17  19
ENDBRANCH  15  17
ENDBRANCH  12  15
ENDBRANCH   1   9
TORSDOF 4
ENDMDL
MODEL 4
REMARK VINA RESULT:      -8.8      5.916      8.034
REMARK  4 active torsions:
REMARK  status: ('A' for Active; 'I' for Inactive)
REMARK    1  A    between atoms: C2_2  and  N1_3 
REMARK    2  A    between atoms: C2_2  and  C9_12 
REMARK    3  A    between atoms: N1_3  and  C3_4 
REMARK    4  A    between atoms: C12_15  and  C13_16 
ROOT
HETATM    1  C13 UNL     1      24.373   1.934  51.826  1.00  0.00    -0.026 A 
HETATM    2  C14 UNL     1      23.001   1.790  51.836  1.00  0.00     0.014 A 
HETATM    3  C15 UNL     1      22.392   0.851  52.656  1.00  0.00     0.023 A 
HETATM    4  C16 UNL     1      23.222   0.080  53.452  1.00  0.00     0.044 A 
HETATM    5  C17 UNL     1      22.619  -0.914  54.324  1.00  0.00     0.099 C 
HETATM    6  N4  UNL     1      22.141  -1.710  55.039  1.00  0.00    -0.191 NA
HETATM    7  C18 UNL     1      24.597   0.214  53.450  1.00  0.00     0.023 A 
HETATM    8  C19 UNL     1      25.191   1.149  52.631  1.00  0.00     0.014 A 
ENDROOT
BRANCH   1   9
HETATM    9  C12 UNL     1      25.022   2.925  50.959  1.00  0.00    -0.026 A 
HETATM   10  C11 UNL     1      26.205   2.704  50.287  1.00  0.00     0.013 A 
HETATM   11  C10 UNL     1      26.788   3.660  49.480  1.00  0.00     0.010 A 
HETATM   12  C9  UNL     1      26.155   4.896  49.340  1.00  0.00    -0.036 A 
HETATM   13  C21 UNL     1      24.963   5.115  50.019  1.00  0.00     0.010 A 
HETATM   14  C20 UNL     1      24.374   4.157  50.831  1.00  0.00     0.013 A 
BRANCH  12  15
HETATM   15  C2  UNL     1      26.791   5.897  48.477  1.00  0.00     0.112 C 
HETATM   16  C1  UNL     1      25.845   7.053  48.271  1.00  0.00     0.037 C 
BRANCH  15  17
HETATM   17  N1  UNL     1      28.058   6.311  49.005  1.00  0.00    -0.366 N 
HETATM   18  H5  UNL     1      28.095   6.672  50.006  1.00  0.00     0.161 HD
BRANCH  17  19
HETATM   19  C3  UNL     1      29.294   6.286  48.312  1.00  0.00     0.138 A 
HETATM   20  N2  UNL     1      30.262   5.437  48.700  1.00  0.00    -0.224 NA
HETATM   21  C4  UNL     1      31.459   5.353  48.098  1.00  0.00     0.235 A 
HETATM   22  N3  UNL     1      31.718   6.156  47.046  1.00  0.00    -0.241 NA
HETATM   23  C5  UNL     1      30.806   7.032  46.593  1.00  0.00     0.072 A 
HETATM   24  C6  UNL     1      29.571   7.101  47.235  1.00  0.00     0.038 A 
HETATM   25  C8  UNL     1      30.276   8.087  45.717  1.00  0.00     0.034 A 
HETATM   26  C7  UNL     1      29.101   8.142  46.338  1.00  0.00     0.020 A 
ENDBRANCH  17  19
ENDBRANCH  15  17
ENDBRANCH  12  15
ENDBRANCH   1   9
TORSDOF 4
ENDMDL
MODEL 5
REMARK VINA RESULT:      -8.8      5.524      9.334
REMARK  4 active torsions:
REMARK  status: ('A' for Active; 'I' for Inactive)
REMARK    1  A    between atoms: C2_2  and  N1_3 
REMARK    2  A    between atoms: C2_2  and  C9_12 
REMARK    3  A    between atoms: N1_3  and  C3_4 
REMARK    4  A    between atoms: C12_15  and  C13_16 
ROOT
HETATM    1  C13 UNL     1      27.156   6.018  48.510  1.00  0.00    -0.026 A 
HETATM    2  C14 UNL     1      28.495   5.789  48.269  1.00  0.00     0.014 A 
HETATM    3  C15 UNL     1      29.245   6.684  47.520  1.00  0.00     0.023 A 
HETATM    4  C16 UNL     1      28.586   7.802  47.035  1.00  0.00     0.044 A 
HETATM    5  C17 UNL     1      29.340   8.762  46.246  1.00  0.00     0.099 C 
HETATM    6  N4  UNL     1      29.942   9.547  45.618  1.00  0.00    -0.191 NA
HETATM    7  C18 UNL     1      27.247   8.042  47.270  1.00  0.00     0.023 A 
HETATM    8  C19 UNL     1      26.512   7.146  48.014  1.00  0.00     0.014 A 
ENDROOT
BRANCH   1   9
HETATM    9  C12 UNL     1      26.359   5.073  49.302  1.00  0.00    -0.026 A 
HETATM   10  C11 UNL     1      25.186   5.405  49.945  1.00  0.00     0.013 A 
HETATM   11  C10 UNL     1      24.462   4.490  50.683  1.00  0.00     0.010 A 
HETATM   12  C9  UNL     1      24.936   3.181  50.780  1.00  0.00    -0.036 A 
HETATM   13  C21 UNL     1      26.119   2.850  50.130  1.00  0.00     0.010 A 
HETATM   14  C20 UNL     1      26.849   3.767  49.388  1.00  0.00     0.013 A 
BRANCH  12  15
HETATM   15  C2  UNL     1      24.151   2.224  51.567  1.00  0.00     0.112 C 
HETATM   16  C1  UNL     1      22.797   2.043  50.929  1.00  0.00     0.037 C 
BRANCH  15  17
HETATM   17  N1  UNL     1      24.853   0.984  51.729  1.00  0.00    -0.366 N 
HETATM   18  H5  UNL     1      24.969   0.354  50.879  1.00  0.00     0.161 HD
BRANCH  17  19
HETATM   19  C3  UNL     1      25.419   0.503  52.937  1.00  0.00     0.138 A 
HETATM   20  N2  UNL     1      24.690  -0.277  53.755  1.00  0.00    -0.224 NA
HETATM   21  C4  UNL     1      25.152  -0.770  54.914  1.00  0.00     0.235 A 
HETATM   22  N3  UNL     1      26.413  -0.477  55.292  1.00  0.00    -0.241 NA
HETATM   23  C5  UNL     1      27.209   0.296  54.534  1.00  0.00     0.072 A 
HETATM   24  C6  UNL     1      26.707   0.797  53.335  1.00  0.00     0.038 A 
HETATM   25  C8  UNL     1      28.443   1.011  54.178  1.00  0.00     0.034 A 
HETATM   26  C7  UNL     1      27.952   1.482  53.035  1.00  0.00     0.020 A 
ENDBRANCH  17  19
ENDBRANCH  15  17
ENDBRANCH  12  15
ENDBRANCH   1   9
TORSDOF 4
ENDMDL
MODEL 6
REMARK VINA RESULT:      -8.7      4.778      8.901
REMARK  4 active torsions:
REMARK  status: ('A' for Active; 'I' for Inactive)
REMARK    1  A    between atoms: C2_2  and  N1_3 
REMARK    2  A    between atoms: C2_2  and  C9_12 
REMARK    3  A    between atoms: N1_3  and  C3_4 
REMARK    4  A    between atoms: C12_15  and  C13_16 
ROOT
HETATM    1  C13 UNL     1      25.638   4.885  49.446  1.00  0.00    -0.026 A 
HETATM    2  C14 UNL     1      26.800   4.171  49.233  1.00  0.00     0.014 A 
HETATM    3  C15 UNL     1      27.892   4.763  48.614  1.00  0.00     0.023 A 
HETATM    4  C16 UNL     1      27.755   6.086  48.229  1.00  0.00     0.044 A 
HETATM    5  C17 UNL     1      28.878   6.737  47.578  1.00  0.00     0.099 C 
HETATM    6  N4  UNL     1      29.783   7.274  47.061  1.00  0.00    -0.191 NA
HETATM    7  C18 UNL     1      26.597   6.810  48.437  1.00  0.00     0.023 A 
HETATM    8  C19 UNL     1      25.519   6.213  49.051  1.00  0.00     0.014 A 
ENDROOT
BRANCH   1   9
HETATM    9  C12 UNL     1      24.480   4.264  50.100  1.00  0.00    -0.026 A 
HETATM   10  C11 UNL     1      23.833   3.144  49.620  1.00  0.00     0.013 A 
HETATM   11  C10 UNL     1      22.745   2.587  50.260  1.00  0.00     0.010 A 
HETATM   12  C9  UNL     1      22.283   3.178  51.437  1.00  0.00    -0.036 A 
HETATM   13  C21 UNL     1      22.937   4.305  51.918  1.00  0.00     0.010 A 
HETATM   14  C20 UNL     1      24.031   4.869  51.277  1.00  0.00     0.013 A 
BRANCH  12  15
HETATM   15  C2  UNL     1      21.127   2.569  52.102  1.00  0.00     0.112 C 
HETATM   16  C1  UNL     1      19.861   3.210  51.592  1.00  0.00     0.037 C 
BRANCH  15  17
HETATM   17  N1  UNL     1      21.125   1.144  51.941  1.00  0.00    -0.366 N 
HETATM   18  H5  UNL     1      20.807   0.740  51.009  1.00  0.00     0.161 HD
BRANCH  17  19
HETATM   19  C3  UNL     1      21.513   0.198  52.924  1.00  0.00     0.138 A 
HETATM   20  N2  UNL     1      20.583  -0.573  53.515  1.00  0.00    -0.224 NA
HETATM   21  C4  UNL     1      20.868  -1.490  54.453  1.00  0.00     0.235 A 
HETATM   22  N3  UNL     1      22.151  -1.658  54.833  1.00  0.00    -0.241 NA
HETATM   23  C5  UNL     1      23.141  -0.928  54.293  1.00  0.00     0.072 A 
HETATM   24  C6  UNL     1      22.821   0.017  53.321  1.00  0.00     0.038 A 
HETATM   25  C8  UNL     1      24.529  -0.484  54.097  1.00  0.00     0.034 A 
HETATM   26  C7  UNL     1      24.209   0.414  53.170  1.00  0.00     0.020 A 
ENDBRANCH  17  19
ENDBRANCH  15  17
ENDBRANCH  12  15
ENDBRANCH   1   9
TORSDOF 4
ENDMDL
MODEL 7
REMARK VINA RESULT:      -8.6      5.709     10.186
REMARK  4 active torsions:
REMARK  status: ('A' for Active; 'I' for Inactive)
REMARK    1  A    between atoms: C2_2  and  N1_3 
REMARK    2  A    between atoms: C2_2  and  C9_12 
REMARK    3  A    between atoms: N1_3  and  C3_4 
REMARK    4  A    between atoms: C12_15  and  C13_16 
ROOT
HETATM    1  C13 UNL     1      27.751   6.065  48.248  1.00  0.00    -0.026 A 
HETATM    2  C14 UNL     1      27.625   7.323  47.695  1.00  0.00     0.014 A 
HETATM    3  C15 UNL     1      28.715   7.957  47.117  1.00  0.00     0.023 A 
HETATM    4  C16 UNL     1      29.917   7.271  47.125  1.00  0.00     0.044 A 
HETATM    5  C17 UNL     1      31.081   7.905  46.528  1.00  0.00     0.099 C 
HETATM    6  N4  UNL     1      32.022   8.404  46.040  1.00  0.00    -0.191 NA
HETATM    7  C18 UNL     1      30.057   6.012  47.676  1.00  0.00     0.023 A 
HETATM    8  C19 UNL     1      28.968   5.392  48.248  1.00  0.00     0.014 A 
ENDROOT
BRANCH   1   9
HETATM    9  C12 UNL     1      26.601   5.391  48.861  1.00  0.00    -0.026 A 
HETATM   10  C11 UNL     1      25.352   5.960  48.988  1.00  0.00     0.013 A 
HETATM   11  C10 UNL     1      24.292   5.296  49.571  1.00  0.00     0.010 A 
HETATM   12  C9  UNL     1      24.493   4.001  50.050  1.00  0.00    -0.036 A 
HETATM   13  C21 UNL     1      25.753   3.430  49.921  1.00  0.00     0.010 A 
HETATM   14  C20 UNL     1      26.821   4.094  49.335  1.00  0.00     0.013 A 
BRANCH  12  15
HETATM   15  C2  UNL     1      23.353   3.314  50.666  1.00  0.00     0.112 C 
HETATM   16  C1  UNL     1      22.989   2.108  49.836  1.00  0.00     0.037 C 
BRANCH  15  17
HETATM   17  N1  UNL     1      23.624   2.978  52.033  1.00  0.00    -0.366 N 
HETATM   18  H5  UNL     1      23.871   3.765  52.707  1.00  0.00     0.161 HD
BRANCH  17  19
HETATM   19  C3  UNL     1      23.593   1.675  52.590  1.00  0.00     0.138 A 
HETATM   20  N2  UNL     1      22.441   1.181  53.076  1.00  0.00    -0.224 NA
HETATM   21  C4  UNL     1      22.330  -0.041  53.620  1.00  0.00     0.235 A 
HETATM   22  N3  UNL     1      23.423  -0.827  53.687  1.00  0.00    -0.241 NA
HETATM   23  C5  UNL     1      24.614  -0.411  53.225  1.00  0.00     0.072 A 
HETATM   24  C6  UNL     1      24.704   0.861  52.666  1.00  0.00     0.038 A 
HETATM   25  C8  UNL     1      26.049  -0.516  52.923  1.00  0.00     0.034 A 
HETATM   26  C7  UNL     1      26.121   0.700  52.391  1.00  0.00     0.020 A 
ENDBRANCH  17  19
ENDBRANCH  15  17
ENDBRANCH  12  15
ENDBRANCH   1   9
TORSDOF 4
ENDMDL
MODEL 8
REMARK VINA RESULT:      -8.5      2.768     10.797
REMARK  4 active torsions:
REMARK  status: ('A' for Active; 'I' for Inactive)
REMARK    1  A    between atoms: C2_2  and  N1_3 
REMARK    2  A    between atoms: C2_2  and  C9_12 
REMARK    3  A    between atoms: N1_3  and  C3_4 
REMARK    4  A    between atoms: C12_15  and  C13_16 
ROOT
HETATM    1  C13 UNL     1      20.973  -0.563  53.307  1.00  0.00    -0.026 A 
HETATM    2  C14 UNL     1      21.911   0.092  52.535  1.00  0.00     0.014 A 
HETATM    3  C15 UNL     1      23.251   0.090  52.894  1.00  0.00     0.023 A 
HETATM    4  C16 UNL     1      23.591  -0.595  54.049  1.00  0.00     0.044 A 
HETATM    5  C17 UNL     1      24.986  -0.618  54.455  1.00  0.00     0.099 C 
HETATM    6  N4  UNL     1      26.110  -0.651  54.785  1.00  0.00    -0.191 NA
HETATM    7  C18 UNL     1      22.661  -1.253  54.829  1.00  0.00     0.023 A 
HETATM    8  C19 UNL     1      21.333  -1.244  54.465  1.00  0.00     0.014 A 
ENDROOT
BRANCH   1   9
HETATM    9  C12 UNL     1      19.554  -0.563  52.932  1.00  0.00    -0.026 A 
HETATM   10  C11 UNL     1      19.013   0.255  51.963  1.00  0.00     0.013 A 
HETATM   11  C10 UNL     1      17.673   0.229  51.637  1.00  0.00     0.010 A 
HETATM   12  C9  UNL     1      16.834  -0.658  52.312  1.00  0.00    -0.036 A 
HETATM   13  C21 UNL     1      17.382  -1.481  53.288  1.00  0.00     0.010 A 
HETATM   14  C20 UNL     1      18.729  -1.458  53.620  1.00  0.00     0.013 A 
BRANCH  12  15
HETATM   15  C2  UNL     1      15.413  -0.670  51.949  1.00  0.00     0.112 C 
HETATM   16  C1  UNL     1      15.106  -1.924  51.170  1.00  0.00     0.037 C 
BRANCH  15  17
HETATM   17  N1  UNL     1      14.579  -0.523  53.106  1.00  0.00    -0.366 N 
HETATM   18  H5  UNL     1      14.507  -1.340  53.785  1.00  0.00     0.161 HD
BRANCH  17  19
HETATM   19  C3  UNL     1      13.823   0.628  53.444  1.00  0.00     0.138 A 
HETATM   20  N2  UNL     1      14.129   1.815  52.891  1.00  0.00    -0.224 NA
HETATM   21  C4  UNL     1      13.465   2.950  53.159  1.00  0.00     0.235 A 
HETATM   22  N3  UNL     1      12.433   2.914  54.027  1.00  0.00    -0.241 NA
HETATM   23  C5  UNL     1      12.063   1.769  54.625  1.00  0.00     0.072 A 
HETATM   24  C6  UNL     1      12.767   0.604  54.330  1.00  0.00     0.038 A 
HETATM   25  C8  UNL     1      11.257   0.916  55.511  1.00  0.00     0.034 A 
HETATM   26  C7  UNL     1      11.938  -0.189  55.220  1.00  0.00     0.020 A 
ENDBRANCH  17  19
ENDBRANCH  15  17
ENDBRANCH  12  15
ENDBRANCH   1   9
TORSDOF 4
ENDMDL
MODEL 9
REMARK VINA RESULT:      -8.5      6.005      8.183
REMARK  4 active torsions:
REMARK  status: ('A' for Active; 'I' for Inactive)
REMARK    1  A    between atoms: C2_2  and  N1_3 
REMARK    2  A    between atoms: C2_2  and  C9_12 
REMARK    3  A    between atoms: N1_3  and  C3_4 
REMARK    4  A    between atoms: C12_15  and  C13_16 
ROOT
HETATM    1  C13 UNL     1      24.281   2.084  51.927  1.00  0.00    -0.026 A 
HETATM    2  C14 UNL     1      25.103   1.092  52.423  1.00  0.00     0.014 A 
HETATM    3  C15 UNL     1      24.594   0.086  53.230  1.00  0.00     0.023 A 
HETATM    4  C16 UNL     1      23.237   0.129  53.507  1.00  0.00     0.044 A 
HETATM    5  C17 UNL     1      22.669  -0.909  54.350  1.00  0.00     0.099 C 
HETATM    6  N4  UNL     1      22.199  -1.748  55.020  1.00  0.00    -0.191 NA
HETATM    7  C18 UNL     1      22.405   1.116  53.018  1.00  0.00     0.023 A 
HETATM    8  C19 UNL     1      22.921   2.111  52.217  1.00  0.00     0.014 A 
ENDROOT
BRANCH   1   9
HETATM    9  C12 UNL     1      24.816   3.151  51.073  1.00  0.00    -0.026 A 
HETATM   10  C11 UNL     1      24.214   4.380  50.908  1.00  0.00     0.013 A 
HETATM   11  C10 UNL     1      24.745   5.360  50.095  1.00  0.00     0.010 A 
HETATM   12  C9  UNL     1      25.935   5.098  49.415  1.00  0.00    -0.036 A 
HETATM   13  C21 UNL     1      26.539   3.858  49.584  1.00  0.00     0.010 A 
HETATM   14  C20 UNL     1      26.008   2.869  50.400  1.00  0.00     0.013 A 
BRANCH  12  15
HETATM   15  C2  UNL     1      26.483   6.154  48.558  1.00  0.00     0.112 C 
HETATM   16  C1  UNL     1      25.354   6.997  48.019  1.00  0.00     0.037 C 
BRANCH  15  17
HETATM   17  N1  UNL     1      27.466   6.932  49.254  1.00  0.00    -0.366 N 
HETATM   18  H5  UNL     1      27.302   7.152  50.282  1.00  0.00     0.161 HD
BRANCH  17  19
HETATM   19  C3  UNL     1      28.662   7.449  48.695  1.00  0.00     0.138 A 
HETATM   20  N2  UNL     1      28.857   8.779  48.645  1.00  0.00    -0.224 NA
HETATM   21  C4  UNL     1      29.960   9.347  48.131  1.00  0.00     0.235 A 
HETATM   22  N3  UNL     1      30.932   8.554  47.636  1.00  0.00    -0.241 NA
HETATM   23  C5  UNL     1      30.817   7.216  47.647  1.00  0.00     0.072 A 
HETATM   24  C6  UNL     1      29.663   6.650  48.185  1.00  0.00     0.038 A 
HETATM   25  C8  UNL     1      31.238   5.829  47.398  1.00  0.00     0.034 A 
HETATM   26  C7  UNL     1      30.132   5.302  47.916  1.00  0.00     0.020 A 
ENDBRANCH  17  19
ENDBRANCH  15  17
ENDBRANCH  12  15
ENDBRANCH   1   9
TORSDOF 4
ENDMDL
