MODEL 1
REMARK VINA RESULT:      -8.6      0.000      0.000
REMARK  5 active torsions:
REMARK  status: ('A' for Active; 'I' for Inactive)
REMARK       I    between atoms: C1_2  and  N1_3 
REMARK    1  A    between atoms: C1_2  and  C15_18 
REMARK    2  A    between atoms: N1_3  and  C2_4 
REMARK    3  A    between atoms: C6_8  and  C7_9 
REMARK    4  A    between atoms: C7_9  and  O2_10 
REMARK    5  A    between atoms: C7_9  and  C8_11 
ROOT
HETATM    1  C2  UNL     1      23.823   1.896  51.566  1.00  0.00     0.035 A 
HETATM    2  C3  UNL     1      24.259   2.550  50.433  1.00  0.00     0.029 A 
HETATM    3  C4  UNL     1      25.572   2.954  50.346  1.00  0.00     0.003 A 
HETATM    4  C5  UNL     1      26.448   2.703  51.389  1.00  0.00     0.010 A 
HETATM    5  C6  UNL     1      26.002   2.042  52.532  1.00  0.00    -0.023 A 
HETATM    6  C14 UNL     1      24.702   1.643  52.620  1.00  0.00     0.039 A 
ENDROOT
BRANCH   1   7
HETATM    7  N1  UNL     1      22.462   1.504  51.603  1.00  0.00    -0.322 N 
HETATM    8  C1  UNL     1      21.264   2.155  51.978  1.00  0.00     0.273 C 
HETATM    9  O1  UNL     1      21.232   3.330  52.387  1.00  0.00    -0.266 OA
HETATM   10  H1  UNL     1      22.486   0.499  51.253  1.00  0.00     0.169 HD
BRANCH   8  11
HETATM   11  C15 UNL     1      20.023   1.392  51.872  1.00  0.00     0.108 A 
HETATM   12  C16 UNL     1      18.965   1.503  51.080  1.00  0.00     0.086 A 
HETATM   13  C17 UNL     1      18.279   0.363  51.684  1.00  0.00     0.132 A 
HETATM   14  N2  UNL     1      17.215  -0.398  51.693  1.00  0.00    -0.243 NA
HETATM   15  N3  UNL     1      19.411   0.275  52.504  1.00  0.00    -0.323 N 
HETATM   16  C18 UNL     1      17.201  -1.449  52.652  1.00  0.00     0.116 A 
HETATM   17  C19 UNL     1      18.245  -1.585  53.460  1.00  0.00     0.013 A 
HETATM   18  C20 UNL     1      19.474  -0.772  53.512  1.00  0.00     0.160 A 
ENDBRANCH   8  11
ENDBRANCH   1   7
BRANCH   5  19
HETATM   19  C7  UNL     1      26.869   1.743  53.674  1.00  0.00     0.184 C 
BRANCH  19  20
HETATM   20  O2  UNL     1      27.633   2.828  54.092  1.00  0.00    -0.386 OA
HETATM   21  H6  UNL     1      27.140   3.469  54.666  1.00  0.00     0.210 HD
ENDBRANCH  19  20
BRANCH  19  22
HETATM   22  C8  UNL     1      27.676   0.508  53.505  1.00  0.00    -0.025 A 
HETATM   23  C9  UNL     1      27.134  -0.719  53.126  1.00  0.00     0.010 A 
HETATM   24  C10 UNL     1      27.927  -1.840  52.984  1.00  0.00     0.001 A 
HETATM   25  C11 UNL     1      29.294  -1.775  53.214  1.00  0.00     0.000 A 
HETATM   26  C12 UNL     1      29.878  -0.588  53.589  1.00  0.00     0.001 A 
HETATM   27  C13 UNL     1      29.042   0.501  53.718  1.00  0.00     0.010 A 
ENDBRANCH  19  22
ENDBRANCH   5  19
TORSDOF 5
ENDMDL
MODEL 2
REMARK VINA RESULT:      -8.6      1.256      1.988
REMARK  5 active torsions:
REMARK  status: ('A' for Active; 'I' for Inactive)
REMARK       I    between atoms: C1_2  and  N1_3 
REMARK    1  A    between atoms: C1_2  and  C15_18 
REMARK    2  A    between atoms: N1_3  and  C2_4 
REMARK    3  A    between atoms: C6_8  and  C7_9 
REMARK    4  A    between atoms: C7_9  and  O2_10 
REMARK    5  A    between atoms: C7_9  and  C8_11 
ROOT
HETATM    1  C2  UNL     1      23.874   1.608  51.893  1.00  0.00     0.035 A 
HETATM    2  C3  UNL     1      24.180   2.295  50.737  1.00  0.00     0.029 A 
HETATM    3  C4  UNL     1      25.452   2.791  50.561  1.00  0.00     0.003 A 
HETATM    4  C5  UNL     1      26.415   2.601  51.537  1.00  0.00     0.010 A 
HETATM    5  C6  UNL     1      26.100   1.907  52.703  1.00  0.00    -0.023 A 
HETATM    6  C14 UNL     1      24.842   1.415  52.880  1.00  0.00     0.039 A 
ENDROOT
BRANCH   1   7
HETATM    7  N1  UNL     1      22.550   1.119  52.023  1.00  0.00    -0.322 N 
HETATM    8  C1  UNL     1      21.981  -0.016  52.647  1.00  0.00     0.273 C 
HETATM    9  O1  UNL     1      22.659  -0.865  53.254  1.00  0.00    -0.266 OA
HETATM   10  H1  UNL     1      21.969   1.843  51.505  1.00  0.00     0.169 HD
BRANCH   8  11
HETATM   11  C15 UNL     1      20.532  -0.175  52.559  1.00  0.00     0.108 A 
HETATM   12  C16 UNL     1      19.636  -0.707  53.378  1.00  0.00     0.086 A 
HETATM   13  C17 UNL     1      18.515  -0.421  52.485  1.00  0.00     0.132 A 
HETATM   14  N2  UNL     1      17.225  -0.501  52.282  1.00  0.00    -0.243 NA
HETATM   15  N3  UNL     1      19.488   0.132  51.643  1.00  0.00    -0.323 N 
HETATM   16  C18 UNL     1      16.745   0.039  51.057  1.00  0.00     0.116 A 
HETATM   17  C19 UNL     1      17.619   0.577  50.216  1.00  0.00     0.013 A 
HETATM   18  C20 UNL     1      19.079   0.705  50.370  1.00  0.00     0.160 A 
ENDBRANCH   8  11
ENDBRANCH   1   7
BRANCH   5  19
HETATM   19  C7  UNL     1      27.066   1.667  53.778  1.00  0.00     0.184 C 
BRANCH  19  20
HETATM   20  O2  UNL     1      27.827   2.785  54.103  1.00  0.00    -0.386 OA
HETATM   21  H6  UNL     1      28.783   2.585  54.277  1.00  0.00     0.210 HD
ENDBRANCH  19  20
BRANCH  19  22
HETATM   22  C8  UNL     1      27.895   0.451  53.578  1.00  0.00    -0.025 A 
HETATM   23  C9  UNL     1      29.277   0.424  53.757  1.00  0.00     0.010 A 
HETATM   24  C10 UNL     1      30.004  -0.731  53.558  1.00  0.00     0.001 A 
HETATM   25  C11 UNL     1      29.374  -1.907  53.172  1.00  0.00     0.000 A 
HETATM   26  C12 UNL     1      28.013  -1.934  52.983  1.00  0.00     0.001 A 
HETATM   27  C13 UNL     1      27.334  -0.752  53.194  1.00  0.00     0.010 A 
ENDBRANCH  19  22
ENDBRANCH   5  19
TORSDOF 5
ENDMDL
MODEL 3
REMARK VINA RESULT:      -8.6      1.971      2.855
REMARK  5 active torsions:
REMARK  status: ('A' for Active; 'I' for Inactive)
REMARK       I    between atoms: C1_2  and  N1_3 
REMARK    1  A    between atoms: C1_2  and  C15_18 
REMARK    2  A    between atoms: N1_3  and  C2_4 
REMARK    3  A    between atoms: C6_8  and  C7_9 
REMARK    4  A    between atoms: C7_9  and  O2_10 
REMARK    5  A    between atoms: C7_9  and  C8_11 
ROOT
HETATM    1  C2  UNL     1      22.429  -0.595  53.644  1.00  0.00     0.035 A 
HETATM    2  C3  UNL     1      22.433  -1.215  54.876  1.00  0.00     0.029 A 
HETATM    3  C4  UNL     1      23.612  -1.323  55.577  1.00  0.00     0.003 A 
HETATM    4  C5  UNL     1      24.786  -0.811  55.049  1.00  0.00     0.010 A 
HETATM    5  C6  UNL     1      24.776  -0.185  53.804  1.00  0.00    -0.023 A 
HETATM    6  C14 UNL     1      23.610  -0.078  53.108  1.00  0.00     0.039 A 
ENDROOT
BRANCH   1   7
HETATM    7  N1  UNL     1      21.188  -0.512  52.965  1.00  0.00    -0.322 N 
HETATM    8  C1  UNL     1      20.331   0.557  52.615  1.00  0.00     0.273 C 
HETATM    9  O1  UNL     1      20.581   1.744  52.895  1.00  0.00    -0.266 OA
HETATM   10  H1  UNL     1      20.972  -1.526  52.725  1.00  0.00     0.169 HD
BRANCH   8  11
HETATM   11  C15 UNL     1      19.104   0.227  51.895  1.00  0.00     0.108 A 
HETATM   12  C16 UNL     1      18.646   0.567  50.698  1.00  0.00     0.086 A 
HETATM   13  C17 UNL     1      17.413  -0.202  50.851  1.00  0.00     0.132 A 
HETATM   14  N2  UNL     1      16.278  -0.573  50.317  1.00  0.00    -0.243 NA
HETATM   15  N3  UNL     1      17.927  -0.542  52.109  1.00  0.00    -0.323 N 
HETATM   16  C18 UNL     1      15.460  -1.427  51.106  1.00  0.00     0.116 A 
HETATM   17  C19 UNL     1      15.891  -1.785  52.309  1.00  0.00     0.013 A 
HETATM   18  C20 UNL     1      17.150  -1.411  52.978  1.00  0.00     0.160 A 
ENDBRANCH   8  11
ENDBRANCH   1   7
BRANCH   5  19
HETATM   19  C7  UNL     1      25.976   0.380  53.182  1.00  0.00     0.184 C 
BRANCH  19  20
HETATM   20  O2  UNL     1      25.749   0.918  51.920  1.00  0.00    -0.386 OA
HETATM   21  H6  UNL     1      25.199   1.744  51.927  1.00  0.00     0.210 HD
ENDBRANCH  19  20
BRANCH  19  22
HETATM   22  C8  UNL     1      27.151  -0.530  53.212  1.00  0.00    -0.025 A 
HETATM   23  C9  UNL     1      27.120  -1.840  52.740  1.00  0.00     0.010 A 
HETATM   24  C10 UNL     1      28.238  -2.647  52.790  1.00  0.00     0.001 A 
HETATM   25  C11 UNL     1      29.433  -2.171  53.315  1.00  0.00     0.000 A 
HETATM   26  C12 UNL     1      29.515  -0.885  53.793  1.00  0.00     0.001 A 
HETATM   27  C13 UNL     1      28.369  -0.121  53.721  1.00  0.00     0.010 A 
ENDBRANCH  19  22
ENDBRANCH   5  19
TORSDOF 5
ENDMDL
MODEL 4
REMARK VINA RESULT:      -8.5      3.818      7.472
REMARK  5 active torsions:
REMARK  status: ('A' for Active; 'I' for Inactive)
REMARK       I    between atoms: C1_2  and  N1_3 
REMARK    1  A    between atoms: C1_2  and  C15_18 
REMARK    2  A    between atoms: N1_3  and  C2_4 
REMARK    3  A    between atoms: C6_8  and  C7_9 
REMARK    4  A    between atoms: C7_9  and  O2_10 
REMARK    5  A    between atoms: C7_9  and  C8_11 
ROOT
HETATM    1  C2  UNL     1      24.960   2.712  51.375  1.00  0.00     0.035 A 
HETATM    2  C3  UNL     1      23.679   2.291  51.088  1.00  0.00     0.029 A 
HETATM    3  C4  UNL     1      23.118   1.274  51.827  1.00  0.00     0.003 A 
HETATM    4  C5  UNL     1      23.835   0.681  52.852  1.00  0.00     0.010 A 
HETATM    5  C6  UNL     1      25.129   1.110  53.138  1.00  0.00    -0.023 A 
HETATM    6  C14 UNL     1      25.686   2.116  52.406  1.00  0.00     0.039 A 
ENDROOT
BRANCH   1   7
HETATM    7  N1  UNL     1      25.489   3.761  50.582  1.00  0.00    -0.322 N 
HETATM    8  C1  UNL     1      26.481   3.825  49.577  1.00  0.00     0.273 C 
HETATM    9  O1  UNL     1      27.120   2.829  49.192  1.00  0.00    -0.266 OA
HETATM   10  H1  UNL     1      24.945   4.614  50.910  1.00  0.00     0.169 HD
BRANCH   8  11
HETATM   11  C15 UNL     1      26.749   5.131  48.979  1.00  0.00     0.108 A 
HETATM   12  C16 UNL     1      25.983   6.189  48.753  1.00  0.00     0.086 A 
HETATM   13  C17 UNL     1      27.070   6.962  48.155  1.00  0.00     0.132 A 
HETATM   14  N2  UNL     1      27.441   8.088  47.602  1.00  0.00    -0.243 NA
HETATM   15  N3  UNL     1      27.850   5.826  48.408  1.00  0.00    -0.323 N 
HETATM   16  C18 UNL     1      28.805   8.177  47.208  1.00  0.00     0.116 A 
HETATM   17  C19 UNL     1      29.596   7.133  47.421  1.00  0.00     0.013 A 
HETATM   18  C20 UNL     1      29.256   5.837  48.034  1.00  0.00     0.160 A 
ENDBRANCH   8  11
ENDBRANCH   1   7
BRANCH   5  19
HETATM   19  C7  UNL     1      25.948   0.531  54.205  1.00  0.00     0.184 C 
BRANCH  19  20
HETATM   20  O2  UNL     1      26.498   1.479  55.062  1.00  0.00    -0.386 OA
HETATM   21  H6  UNL     1      25.929   2.281  55.194  1.00  0.00     0.210 HD
ENDBRANCH  19  20
BRANCH  19  22
HETATM   22  C8  UNL     1      26.951  -0.453  53.724  1.00  0.00    -0.025 A 
HETATM   23  C9  UNL     1      26.622  -1.581  52.973  1.00  0.00     0.010 A 
HETATM   24  C10 UNL     1      27.591  -2.467  52.550  1.00  0.00     0.001 A 
HETATM   25  C11 UNL     1      28.928  -2.258  52.861  1.00  0.00     0.000 A 
HETATM   26  C12 UNL     1      29.304  -1.160  53.598  1.00  0.00     0.001 A 
HETATM   27  C13 UNL     1      28.297  -0.306  53.997  1.00  0.00     0.010 A 
ENDBRANCH  19  22
ENDBRANCH   5  19
TORSDOF 5
ENDMDL
MODEL 5
REMARK VINA RESULT:      -8.4      3.202      6.485
REMARK  5 active torsions:
REMARK  status: ('A' for Active; 'I' for Inactive)
REMARK       I    between atoms: C1_2  and  N1_3 
REMARK    1  A    between atoms: C1_2  and  C15_18 
REMARK    2  A    between atoms: N1_3  and  C2_4 
REMARK    3  A    between atoms: C6_8  and  C7_9 
REMARK    4  A    between atoms: C7_9  and  O2_10 
REMARK    5  A    between atoms: C7_9  and  C8_11 
ROOT
HETATM    1  C2  UNL     1      23.283   1.921  51.798  1.00  0.00     0.035 A 
HETATM    2  C3  UNL     1      22.030   1.599  51.320  1.00  0.00     0.029 A 
HETATM    3  C4  UNL     1      21.432   0.427  51.722  1.00  0.00     0.003 A 
HETATM    4  C5  UNL     1      22.083  -0.422  52.601  1.00  0.00     0.010 A 
HETATM    5  C6  UNL     1      23.348  -0.092  53.080  1.00  0.00    -0.023 A 
HETATM    6  C14 UNL     1      23.943   1.068  52.683  1.00  0.00     0.039 A 
ENDROOT
BRANCH   1   7
HETATM    7  N1  UNL     1      23.853   3.139  51.351  1.00  0.00    -0.322 N 
HETATM    8  C1  UNL     1      23.595   4.501  51.628  1.00  0.00     0.273 C 
HETATM    9  O1  UNL     1      22.706   4.876  52.414  1.00  0.00    -0.266 OA
HETATM   10  H1  UNL     1      24.614   2.822  50.679  1.00  0.00     0.169 HD
BRANCH   8  11
HETATM   11  C15 UNL     1      24.424   5.494  50.948  1.00  0.00     0.108 A 
HETATM   12  C16 UNL     1      24.427   6.820  50.958  1.00  0.00     0.086 A 
HETATM   13  C17 UNL     1      25.549   6.914  50.026  1.00  0.00     0.132 A 
HETATM   14  N2  UNL     1      26.359   7.696  49.359  1.00  0.00    -0.243 NA
HETATM   15  N3  UNL     1      25.517   5.514  50.039  1.00  0.00    -0.323 N 
HETATM   16  C18 UNL     1      27.331   7.050  48.546  1.00  0.00     0.116 A 
HETATM   17  C19 UNL     1      27.351   5.724  48.515  1.00  0.00     0.013 A 
HETATM   18  C20 UNL     1      26.478   4.778  49.233  1.00  0.00     0.160 A 
ENDBRANCH   8  11
ENDBRANCH   1   7
BRANCH   5  19
HETATM   19  C7  UNL     1      24.098  -0.939  54.011  1.00  0.00     0.184 C 
BRANCH  19  20
HETATM   20  O2  UNL     1      23.569  -0.956  55.298  1.00  0.00    -0.386 OA
HETATM   21  H6  UNL     1      24.221  -1.220  55.998  1.00  0.00     0.210 HD
ENDBRANCH  19  20
BRANCH  19  22
HETATM   22  C8  UNL     1      25.563  -0.692  53.999  1.00  0.00    -0.025 A 
HETATM   23  C9  UNL     1      26.225   0.053  54.973  1.00  0.00     0.010 A 
HETATM   24  C10 UNL     1      27.588   0.255  54.917  1.00  0.00     0.001 A 
HETATM   25  C11 UNL     1      28.343  -0.283  53.884  1.00  0.00     0.000 A 
HETATM   26  C12 UNL     1      27.738  -1.027  52.899  1.00  0.00     0.001 A 
HETATM   27  C13 UNL     1      26.373  -1.198  53.001  1.00  0.00     0.010 A 
ENDBRANCH  19  22
ENDBRANCH   5  19
TORSDOF 5
ENDMDL
MODEL 6
REMARK VINA RESULT:      -8.3      3.354      6.583
REMARK  5 active torsions:
REMARK  status: ('A' for Active; 'I' for Inactive)
REMARK       I    between atoms: C1_2  and  N1_3 
REMARK    1  A    between atoms: C1_2  and  C15_18 
REMARK    2  A    between atoms: N1_3  and  C2_4 
REMARK    3  A    between atoms: C6_8  and  C7_9 
REMARK    4  A    between atoms: C7_9  and  O2_10 
REMARK    5  A    between atoms: C7_9  and  C8_11 
ROOT
HETATM    1  C2  UNL     1      24.314   1.664  51.781  1.00  0.00     0.035 A 
HETATM    2  C3  UNL     1      22.957   1.443  51.667  1.00  0.00     0.029 A 
HETATM    3  C4  UNL     1      22.377   0.411  52.371  1.00  0.00     0.003 A 
HETATM    4  C5  UNL     1      23.150  -0.396  53.187  1.00  0.00     0.010 A 
HETATM    5  C6  UNL     1      24.520  -0.168  53.298  1.00  0.00    -0.023 A 
HETATM    6  C14 UNL     1      25.096   0.851  52.602  1.00  0.00     0.039 A 
ENDROOT
BRANCH   1   7
HETATM    7  N1  UNL     1      24.859   2.738  51.034  1.00  0.00    -0.322 N 
HETATM    8  C1  UNL     1      26.176   3.160  50.743  1.00  0.00     0.273 C 
HETATM    9  O1  UNL     1      27.186   2.564  51.162  1.00  0.00    -0.266 OA
HETATM   10  H1  UNL     1      23.997   3.249  50.675  1.00  0.00     0.169 HD
BRANCH   8  11
HETATM   11  C15 UNL     1      26.332   4.351  49.913  1.00  0.00     0.108 A 
HETATM   12  C16 UNL     1      27.115   4.630  48.880  1.00  0.00     0.086 A 
HETATM   13  C17 UNL     1      26.588   5.985  48.729  1.00  0.00     0.132 A 
HETATM   14  N2  UNL     1      26.630   7.111  48.064  1.00  0.00    -0.243 NA
HETATM   15  N3  UNL     1      25.776   5.657  49.822  1.00  0.00    -0.323 N 
HETATM   16  C18 UNL     1      25.742   8.133  48.500  1.00  0.00     0.116 A 
HETATM   17  C19 UNL     1      24.947   7.884  49.533  1.00  0.00     0.013 A 
HETATM   18  C20 UNL     1      24.841   6.648  50.330  1.00  0.00     0.160 A 
ENDBRANCH   8  11
ENDBRANCH   1   7
BRANCH   5  19
HETATM   19  C7  UNL     1      25.401  -0.980  54.141  1.00  0.00     0.184 C 
BRANCH  19  20
HETATM   20  O2  UNL     1      24.999  -1.042  55.471  1.00  0.00    -0.386 OA
HETATM   21  H6  UNL     1      24.029  -0.882  55.606  1.00  0.00     0.210 HD
ENDBRANCH  19  20
BRANCH  19  22
HETATM   22  C8  UNL     1      26.842  -0.648  53.996  1.00  0.00    -0.025 A 
HETATM   23  C9  UNL     1      27.700  -1.313  53.122  1.00  0.00     0.010 A 
HETATM   24  C10 UNL     1      29.032  -0.967  53.024  1.00  0.00     0.001 A 
HETATM   25  C11 UNL     1      29.557   0.060  53.797  1.00  0.00     0.000 A 
HETATM   26  C12 UNL     1      28.752   0.747  54.674  1.00  0.00     0.001 A 
HETATM   27  C13 UNL     1      27.429   0.362  54.734  1.00  0.00     0.010 A 
ENDBRANCH  19  22
ENDBRANCH   5  19
TORSDOF 5
ENDMDL
MODEL 7
REMARK VINA RESULT:      -8.3      4.054      7.592
REMARK  5 active torsions:
REMARK  status: ('A' for Active; 'I' for Inactive)
REMARK       I    between atoms: C1_2  and  N1_3 
REMARK    1  A    between atoms: C1_2  and  C15_18 
REMARK    2  A    between atoms: N1_3  and  C2_4 
REMARK    3  A    between atoms: C6_8  and  C7_9 
REMARK    4  A    between atoms: C7_9  and  O2_10 
REMARK    5  A    between atoms: C7_9  and  C8_11 
ROOT
HETATM    1  C2  UNL     1      25.411   2.749  50.941  1.00  0.00     0.035 A 
HETATM    2  C3  UNL     1      24.119   2.435  50.575  1.00  0.00     0.029 A 
HETATM    3  C4  UNL     1      23.405   1.525  51.321  1.00  0.00     0.003 A 
HETATM    4  C5  UNL     1      23.980   0.931  52.432  1.00  0.00     0.010 A 
HETATM    5  C6  UNL     1      25.286   1.252  52.797  1.00  0.00    -0.023 A 
HETATM    6  C14 UNL     1      25.995   2.151  52.059  1.00  0.00     0.039 A 
ENDROOT
BRANCH   1   7
HETATM    7  N1  UNL     1      26.100   3.690  50.137  1.00  0.00    -0.322 N 
HETATM    8  C1  UNL     1      25.815   5.007  49.707  1.00  0.00     0.273 C 
HETATM    9  O1  UNL     1      24.771   5.609  50.018  1.00  0.00    -0.266 OA
HETATM   10  H1  UNL     1      26.993   3.178  49.870  1.00  0.00     0.169 HD
BRANCH   8  11
HETATM   11  C15 UNL     1      26.807   5.667  48.862  1.00  0.00     0.108 A 
HETATM   12  C16 UNL     1      28.047   5.350  48.516  1.00  0.00     0.086 A 
HETATM   13  C17 UNL     1      28.221   6.547  47.696  1.00  0.00     0.132 A 
HETATM   14  N2  UNL     1      29.014   7.238  46.919  1.00  0.00    -0.243 NA
HETATM   15  N3  UNL     1      26.909   6.851  48.081  1.00  0.00    -0.323 N 
HETATM   16  C18 UNL     1      28.485   8.450  46.396  1.00  0.00     0.116 A 
HETATM   17  C19 UNL     1      27.246   8.795  46.725  1.00  0.00     0.013 A 
HETATM   18  C20 UNL     1      26.295   8.074  47.590  1.00  0.00     0.160 A 
ENDBRANCH   8  11
ENDBRANCH   1   7
BRANCH   5  19
HETATM   19  C7  UNL     1      25.960   0.664  53.957  1.00  0.00     0.184 C 
BRANCH  19  20
HETATM   20  O2  UNL     1      26.438   1.609  54.860  1.00  0.00    -0.386 OA
HETATM   21  H6  UNL     1      26.472   2.531  54.498  1.00  0.00     0.210 HD
ENDBRANCH  19  20
BRANCH  19  22
HETATM   22  C8  UNL     1      26.981  -0.356  53.604  1.00  0.00    -0.025 A 
HETATM   23  C9  UNL     1      26.691  -1.518  52.892  1.00  0.00     0.010 A 
HETATM   24  C10 UNL     1      27.675  -2.437  52.589  1.00  0.00     0.001 A 
HETATM   25  C11 UNL     1      28.989  -2.226  52.987  1.00  0.00     0.000 A 
HETATM   26  C12 UNL     1      29.326  -1.095  53.692  1.00  0.00     0.001 A 
HETATM   27  C13 UNL     1      28.305  -0.210  53.969  1.00  0.00     0.010 A 
ENDBRANCH  19  22
ENDBRANCH   5  19
TORSDOF 5
ENDMDL
MODEL 8
REMARK VINA RESULT:      -8.2      3.160      5.134
REMARK  5 active torsions:
REMARK  status: ('A' for Active; 'I' for Inactive)
REMARK       I    between atoms: C1_2  and  N1_3 
REMARK    1  A    between atoms: C1_2  and  C15_18 
REMARK    2  A    between atoms: N1_3  and  C2_4 
REMARK    3  A    between atoms: C6_8  and  C7_9 
REMARK    4  A    between atoms: C7_9  and  O2_10 
REMARK    5  A    between atoms: C7_9  and  C8_11 
ROOT
HETATM    1  C2  UNL     1      23.376   1.152  51.573  1.00  0.00     0.035 A 
HETATM    2  C3  UNL     1      22.424   0.329  52.139  1.00  0.00     0.029 A 
HETATM    3  C4  UNL     1      22.677  -0.263  53.355  1.00  0.00     0.003 A 
HETATM    4  C5  UNL     1      23.877  -0.032  54.006  1.00  0.00     0.010 A 
HETATM    5  C6  UNL     1      24.834   0.801  53.430  1.00  0.00    -0.023 A 
HETATM    6  C14 UNL     1      24.587   1.387  52.226  1.00  0.00     0.039 A 
ENDROOT
BRANCH   1   7
HETATM    7  N1  UNL     1      23.064   1.734  50.319  1.00  0.00    -0.322 N 
HETATM    8  C1  UNL     1      22.733   3.044  49.902  1.00  0.00     0.273 C 
HETATM    9  O1  UNL     1      22.657   4.006  50.689  1.00  0.00    -0.266 OA
HETATM   10  H1  UNL     1      23.129   0.914  49.645  1.00  0.00     0.169 HD
BRANCH   8  11
HETATM   11  C15 UNL     1      22.473   3.251  48.480  1.00  0.00     0.108 A 
HETATM   12  C16 UNL     1      22.198   2.417  47.486  1.00  0.00     0.086 A 
HETATM   13  C17 UNL     1      22.105   3.485  46.493  1.00  0.00     0.132 A 
HETATM   14  N2  UNL     1      21.891   3.807  45.244  1.00  0.00    -0.243 NA
HETATM   15  N3  UNL     1      22.399   4.338  47.566  1.00  0.00    -0.323 N 
HETATM   16  C18 UNL     1      21.962   5.191  44.928  1.00  0.00     0.116 A 
HETATM   17  C19 UNL     1      22.237   6.050  45.901  1.00  0.00     0.013 A 
HETATM   18  C20 UNL     1      22.490   5.769  47.326  1.00  0.00     0.160 A 
ENDBRANCH   8  11
ENDBRANCH   1   7
BRANCH   5  19
HETATM   19  C7  UNL     1      26.125   1.091  54.059  1.00  0.00     0.184 C 
BRANCH  19  20
HETATM   20  O2  UNL     1      26.560   2.398  53.861  1.00  0.00    -0.386 OA
HETATM   21  H6  UNL     1      25.853   3.011  53.532  1.00  0.00     0.210 HD
ENDBRANCH  19  20
BRANCH  19  22
HETATM   22  C8  UNL     1      27.178   0.088  53.757  1.00  0.00    -0.025 A 
HETATM   23  C9  UNL     1      26.947  -1.069  53.016  1.00  0.00     0.010 A 
HETATM   24  C10 UNL     1      27.959  -1.972  52.762  1.00  0.00     0.001 A 
HETATM   25  C11 UNL     1      29.244  -1.751  53.241  1.00  0.00     0.000 A 
HETATM   26  C12 UNL     1      29.524  -0.624  53.976  1.00  0.00     0.001 A 
HETATM   27  C13 UNL     1      28.477   0.246  54.202  1.00  0.00     0.010 A 
ENDBRANCH  19  22
ENDBRANCH   5  19
TORSDOF 5
ENDMDL
MODEL 9
REMARK VINA RESULT:      -7.9      4.235      7.676
REMARK  5 active torsions:
REMARK  status: ('A' for Active; 'I' for Inactive)
REMARK       I    between atoms: C1_2  and  N1_3 
REMARK    1  A    between atoms: C1_2  and  C15_18 
REMARK    2  A    between atoms: N1_3  and  C2_4 
REMARK    3  A    between atoms: C6_8  and  C7_9 
REMARK    4  A    between atoms: C7_9  and  O2_10 
REMARK    5  A    between atoms: C7_9  and  C8_11 
ROOT
HETATM    1  C2  UNL     1      24.755   3.200  51.858  1.00  0.00     0.035 A 
HETATM    2  C3  UNL     1      23.906   3.657  52.844  1.00  0.00     0.029 A 
HETATM    3  C4  UNL     1      23.152   4.786  52.620  1.00  0.00     0.003 A 
HETATM    4  C5  UNL     1      23.244   5.457  51.412  1.00  0.00     0.010 A 
HETATM    5  C6  UNL     1      24.102   4.991  50.419  1.00  0.00    -0.023 A 
HETATM    6  C14 UNL     1      24.850   3.874  50.639  1.00  0.00     0.039 A 
ENDROOT
BRANCH   1   7
HETATM    7  N1  UNL     1      25.508   2.034  52.142  1.00  0.00    -0.322 N 
HETATM    8  C1  UNL     1      25.169   0.718  52.528  1.00  0.00     0.273 C 
HETATM    9  O1  UNL     1      23.993   0.344  52.697  1.00  0.00    -0.266 OA
HETATM   10  H1  UNL     1      26.514   2.351  51.997  1.00  0.00     0.169 HD
BRANCH   8  11
HETATM   11  C15 UNL     1      26.264  -0.227  52.731  1.00  0.00     0.108 A 
HETATM   12  C16 UNL     1      26.349  -1.544  52.607  1.00  0.00     0.086 A 
HETATM   13  C17 UNL     1      27.756  -1.583  53.000  1.00  0.00     0.132 A 
HETATM   14  N2  UNL     1      28.815  -2.319  53.217  1.00  0.00    -0.243 NA
HETATM   15  N3  UNL     1      27.631  -0.193  53.121  1.00  0.00    -0.323 N 
HETATM   16  C18 UNL     1      29.989  -1.629  53.626  1.00  0.00     0.116 A 
HETATM   17  C19 UNL     1      29.935  -0.309  53.760  1.00  0.00     0.013 A 
HETATM   18  C20 UNL     1      28.787   0.587  53.536  1.00  0.00     0.160 A 
ENDBRANCH   8  11
ENDBRANCH   1   7
BRANCH   5  19
HETATM   19  C7  UNL     1      24.252   5.646  49.118  1.00  0.00     0.184 C 
BRANCH  19  20
HETATM   20  O2  UNL     1      23.537   5.028  48.097  1.00  0.00    -0.386 OA
HETATM   21  H6  UNL     1      22.570   5.247  48.093  1.00  0.00     0.210 HD
ENDBRANCH  19  20
BRANCH  19  22
HETATM   22  C8  UNL     1      25.664   5.918  48.743  1.00  0.00    -0.025 A 
HETATM   23  C9  UNL     1      26.109   7.149  48.266  1.00  0.00     0.010 A 
HETATM   24  C10 UNL     1      27.432   7.352  47.930  1.00  0.00     0.001 A 
HETATM   25  C11 UNL     1      28.361   6.328  48.060  1.00  0.00     0.000 A 
HETATM   26  C12 UNL     1      27.972   5.095  48.526  1.00  0.00     0.001 A 
HETATM   27  C13 UNL     1      26.639   4.945  48.847  1.00  0.00     0.010 A 
ENDBRANCH  19  22
ENDBRANCH   5  19
TORSDOF 5
ENDMDL
