MODEL 1
REMARK VINA RESULT:      -9.6      0.000      0.000
REMARK  6 active torsions:
REMARK  status: ('A' for Active; 'I' for Inactive)
REMARK    1  A    between atoms: C2_2  and  C3_3 
REMARK    2  A    between atoms: C3_3  and  C4_5 
REMARK    3  A    between atoms: C6_7  and  N1_8 
REMARK    4  A    between atoms: C10_12  and  C11_13 
REMARK    5  A    between atoms: C20_24  and  O2_25 
REMARK    6  A    between atoms: C23_28  and  N4_29 
ROOT
HETATM    1  C4  UNL     1      26.617   0.453  52.890  1.00  0.00    -0.001 C 
HETATM    2  C5  UNL     1      25.433  -0.139  52.908  1.00  0.00     0.045 C 
HETATM    3  C6  UNL     1      24.168   0.577  52.665  1.00  0.00     0.087 C 
HETATM    4  C20 UNL     1      23.917   1.702  52.003  1.00  0.00     0.098 C 
HETATM    5  C22 UNL     1      24.952   2.501  51.335  1.00  0.00     0.064 C 
HETATM    6  C23 UNL     1      26.244   2.549  51.620  1.00  0.00     0.011 C 
HETATM    7  C25 UNL     1      27.051   1.852  52.654  1.00  0.00     0.099 C 
ENDROOT
BRANCH   3   8
HETATM    8  N1  UNL     1      23.014  -0.035  53.235  1.00  0.00    -0.263 N 
HETATM    9  C7  UNL     1      23.320  -0.825  54.430  1.00  0.00     0.179 A 
HETATM   10  C8  UNL     1      22.119  -1.455  55.012  1.00  0.00    -0.003 A 
HETATM   11  C9  UNL     1      20.902  -1.335  54.532  1.00  0.00     0.032 A 
HETATM   12  C10 UNL     1      20.717  -0.512  53.321  1.00  0.00     0.089 A 
HETATM   13  N3  UNL     1      21.727   0.070  52.758  1.00  0.00    -0.171 NA
BRANCH  12  14
HETATM   14  C11 UNL     1      19.403  -0.334  52.734  1.00  0.00     0.022 A 
HETATM   15  C12 UNL     1      19.061   0.782  51.974  1.00  0.00     0.105 A 
HETATM   16  N2  UNL     1      17.775   0.590  51.607  1.00  0.00    -0.359 N 
HETATM   17  C13 UNL     1      17.014   1.509  50.803  1.00  0.00     0.156 C 
HETATM   18  C14 UNL     1      17.317  -0.569  52.097  1.00  0.00     0.045 A 
HETATM   19  C15 UNL     1      16.120  -1.266  52.051  1.00  0.00     0.030 A 
HETATM   20  C19 UNL     1      18.316  -1.180  52.814  1.00  0.00     0.005 A 
HETATM   21  C16 UNL     1      15.975  -2.492  52.695  1.00  0.00     0.002 A 
HETATM   22  C17 UNL     1      17.013  -3.079  53.412  1.00  0.00     0.001 A 
HETATM   23  C18 UNL     1      18.209  -2.392  53.463  1.00  0.00     0.014 A 
ENDBRANCH  12  14
ENDBRANCH   3   8
BRANCH   4  24
HETATM   24  O2  UNL     1      22.636   2.175  51.915  1.00  0.00    -0.354 OA
HETATM   25  C21 UNL     1      22.264   3.514  51.780  1.00  0.00     0.210 C 
ENDBRANCH   4  24
BRANCH   1  26
HETATM   26  C3  UNL     1      27.684  -0.505  53.163  1.00  0.00     0.174 C 
HETATM   27  O1  UNL     1      27.619  -1.761  53.124  1.00  0.00    -0.288 OA
BRANCH  26  28
HETATM   28  C2  UNL     1      29.014  -0.031  53.532  1.00  0.00     0.029 C 
HETATM   29  C1  UNL     1      30.002  -0.916  53.625  1.00  0.00     0.035 C 
ENDBRANCH  26  28
ENDBRANCH   1  26
BRANCH   6  30
HETATM   30  N4  UNL     1      26.991   3.442  50.768  1.00  0.00    -0.397 N 
HETATM   31  C24 UNL     1      26.328   3.717  49.501  1.00  0.00     0.146 C 
HETATM   32  H21 UNL     1      27.885   3.726  51.236  1.00  0.00     0.158 HD
ENDBRANCH   6  30
TORSDOF 6
ENDMDL
MODEL 2
REMARK VINA RESULT:      -9.3      0.752      2.029
REMARK  6 active torsions:
REMARK  status: ('A' for Active; 'I' for Inactive)
REMARK    1  A    between atoms: C2_2  and  C3_3 
REMARK    2  A    between atoms: C3_3  and  C4_5 
REMARK    3  A    between atoms: C6_7  and  N1_8 
REMARK    4  A    between atoms: C10_12  and  C11_13 
REMARK    5  A    between atoms: C20_24  and  O2_25 
REMARK    6  A    between atoms: C23_28  and  N4_29 
ROOT
HETATM    1  C4  UNL     1      26.609   0.393  52.885  1.00  0.00    -0.001 C 
HETATM    2  C5  UNL     1      25.423  -0.194  52.891  1.00  0.00     0.045 C 
HETATM    3  C6  UNL     1      24.160   0.533  52.674  1.00  0.00     0.087 C 
HETATM    4  C20 UNL     1      23.911   1.677  52.046  1.00  0.00     0.098 C 
HETATM    5  C22 UNL     1      24.946   2.491  51.397  1.00  0.00     0.064 C 
HETATM    6  C23 UNL     1      26.239   2.526  51.678  1.00  0.00     0.011 C 
HETATM    7  C25 UNL     1      27.048   1.796  52.688  1.00  0.00     0.099 C 
ENDROOT
BRANCH   3   8
HETATM    8  N1  UNL     1      23.006  -0.092  53.231  1.00  0.00    -0.263 N 
HETATM    9  C7  UNL     1      23.301  -0.852  54.447  1.00  0.00     0.179 A 
HETATM   10  C8  UNL     1      22.100  -1.494  55.016  1.00  0.00    -0.003 A 
HETATM   11  C9  UNL     1      20.892  -1.408  54.507  1.00  0.00     0.032 A 
HETATM   12  C10 UNL     1      20.717  -0.613  53.276  1.00  0.00     0.089 A 
HETATM   13  N3  UNL     1      21.728  -0.022  52.723  1.00  0.00    -0.171 NA
BRANCH  12  14
HETATM   14  C11 UNL     1      19.414  -0.473  52.658  1.00  0.00     0.022 A 
HETATM   15  C12 UNL     1      18.267  -1.078  53.169  1.00  0.00     0.105 A 
HETATM   16  N2  UNL     1      17.267  -0.721  52.334  1.00  0.00    -0.359 N 
HETATM   17  C13 UNL     1      15.895  -1.129  52.489  1.00  0.00     0.156 C 
HETATM   18  C14 UNL     1      17.733   0.060  51.350  1.00  0.00     0.045 A 
HETATM   19  C15 UNL     1      17.193   0.701  50.248  1.00  0.00     0.030 A 
HETATM   20  C19 UNL     1      19.084   0.238  51.522  1.00  0.00     0.005 A 
HETATM   21  C16 UNL     1      17.990   1.462  49.396  1.00  0.00     0.002 A 
HETATM   22  C17 UNL     1      19.357   1.620  49.604  1.00  0.00     0.001 A 
HETATM   23  C18 UNL     1      19.903   0.984  50.700  1.00  0.00     0.014 A 
ENDBRANCH  12  14
ENDBRANCH   3   8
BRANCH   4  24
HETATM   24  O2  UNL     1      22.631   2.157  51.976  1.00  0.00    -0.354 OA
HETATM   25  C21 UNL     1      22.247   3.491  52.124  1.00  0.00     0.210 C 
ENDBRANCH   4  24
BRANCH   1  26
HETATM   26  C3  UNL     1      27.673  -0.576  53.126  1.00  0.00     0.174 C 
HETATM   27  O1  UNL     1      27.613  -1.829  53.017  1.00  0.00    -0.288 OA
BRANCH  26  28
HETATM   28  C2  UNL     1      28.995  -0.120  53.547  1.00  0.00     0.029 C 
HETATM   29  C1  UNL     1      29.982  -1.009  53.618  1.00  0.00     0.035 C 
ENDBRANCH  26  28
ENDBRANCH   1  26
BRANCH   6  30
HETATM   30  N4  UNL     1      26.986   3.441  50.849  1.00  0.00    -0.397 N 
HETATM   31  C24 UNL     1      26.449   3.565  49.501  1.00  0.00     0.146 C 
HETATM   32  H21 UNL     1      27.787   3.847  51.388  1.00  0.00     0.158 HD
ENDBRANCH   6  30
TORSDOF 6
ENDMDL
MODEL 3
REMARK VINA RESULT:      -9.3      3.115      8.264
REMARK  6 active torsions:
REMARK  status: ('A' for Active; 'I' for Inactive)
REMARK    1  A    between atoms: C2_2  and  C3_3 
REMARK    2  A    between atoms: C3_3  and  C4_5 
REMARK    3  A    between atoms: C6_7  and  N1_8 
REMARK    4  A    between atoms: C10_12  and  C11_13 
REMARK    5  A    between atoms: C20_24  and  O2_25 
REMARK    6  A    between atoms: C23_28  and  N4_29 
ROOT
HETATM    1  C4  UNL     1      26.337   0.510  52.762  1.00  0.00    -0.001 C 
HETATM    2  C5  UNL     1      25.886   1.592  52.146  1.00  0.00     0.045 C 
HETATM    3  C6  UNL     1      24.465   1.803  51.819  1.00  0.00     0.087 C 
HETATM    4  C20 UNL     1      23.362   1.303  52.367  1.00  0.00     0.098 C 
HETATM    5  C22 UNL     1      23.368   0.369  53.500  1.00  0.00     0.064 C 
HETATM    6  C23 UNL     1      24.337  -0.459  53.859  1.00  0.00     0.011 C 
HETATM    7  C25 UNL     1      25.679  -0.715  53.276  1.00  0.00     0.099 C 
ENDROOT
BRANCH   3   8
HETATM    8  N1  UNL     1      24.226   2.691  50.730  1.00  0.00    -0.263 N 
HETATM    9  C7  UNL     1      23.156   2.229  49.843  1.00  0.00     0.179 A 
HETATM   10  C8  UNL     1      22.917   3.155  48.719  1.00  0.00    -0.003 A 
HETATM   11  C9  UNL     1      23.575   4.274  48.516  1.00  0.00     0.032 A 
HETATM   12  C10 UNL     1      24.633   4.635  49.480  1.00  0.00     0.089 A 
HETATM   13  N3  UNL     1      24.896   3.869  50.489  1.00  0.00    -0.171 NA
BRANCH  12  14
HETATM   14  C11 UNL     1      25.400   5.855  49.320  1.00  0.00     0.022 A 
HETATM   15  C12 UNL     1      24.870   7.118  49.574  1.00  0.00     0.105 A 
HETATM   16  N2  UNL     1      25.872   7.988  49.318  1.00  0.00    -0.359 N 
HETATM   17  C13 UNL     1      25.759   9.417  49.451  1.00  0.00     0.156 C 
HETATM   18  C14 UNL     1      26.972   7.334  48.925  1.00  0.00     0.045 A 
HETATM   19  C15 UNL     1      28.256   7.686  48.543  1.00  0.00     0.030 A 
HETATM   20  C19 UNL     1      26.713   5.986  48.914  1.00  0.00     0.005 A 
HETATM   21  C16 UNL     1      29.190   6.719  48.181  1.00  0.00     0.002 A 
HETATM   22  C17 UNL     1      28.889   5.360  48.184  1.00  0.00     0.001 A 
HETATM   23  C18 UNL     1      27.612   5.001  48.563  1.00  0.00     0.014 A 
ENDBRANCH  12  14
ENDBRANCH   3   8
BRANCH   4  24
HETATM   24  O2  UNL     1      22.133   1.655  51.879  1.00  0.00    -0.354 OA
HETATM   25  C21 UNL     1      20.914   1.507  52.543  1.00  0.00     0.210 C 
ENDBRANCH   4  24
BRANCH   1  26
HETATM   26  C3  UNL     1      27.783   0.581  52.951  1.00  0.00     0.174 C 
HETATM   27  O1  UNL     1      28.531   1.581  52.795  1.00  0.00    -0.288 OA
BRANCH  26  28
HETATM   28  C2  UNL     1      28.523  -0.605  53.370  1.00  0.00     0.029 C 
HETATM   29  C1  UNL     1      29.844  -0.518  53.499  1.00  0.00     0.035 C 
ENDBRANCH  26  28
ENDBRANCH   1  26
BRANCH   6  30
HETATM   30  N4  UNL     1      24.021  -1.246  55.025  1.00  0.00    -0.397 N 
HETATM   31  C24 UNL     1      22.590  -1.375  55.262  1.00  0.00     0.146 C 
HETATM   32  H21 UNL     1      24.901  -1.581  55.486  1.00  0.00     0.158 HD
ENDBRANCH   6  30
TORSDOF 6
ENDMDL
MODEL 4
REMARK VINA RESULT:      -9.0      3.527      6.698
REMARK  6 active torsions:
REMARK  status: ('A' for Active; 'I' for Inactive)
REMARK    1  A    between atoms: C2_2  and  C3_3 
REMARK    2  A    between atoms: C3_3  and  C4_5 
REMARK    3  A    between atoms: C6_7  and  N1_8 
REMARK    4  A    between atoms: C10_12  and  C11_13 
REMARK    5  A    between atoms: C20_24  and  O2_25 
REMARK    6  A    between atoms: C23_28  and  N4_29 
ROOT
HETATM    1  C4  UNL     1      26.358   5.892  49.066  1.00  0.00    -0.001 C 
HETATM    2  C5  UNL     1      25.480   4.926  48.847  1.00  0.00     0.045 C 
HETATM    3  C6  UNL     1      24.061   5.020  49.231  1.00  0.00     0.087 C 
HETATM    4  C20 UNL     1      23.280   6.077  49.427  1.00  0.00     0.098 C 
HETATM    5  C22 UNL     1      23.738   7.465  49.280  1.00  0.00     0.064 C 
HETATM    6  C23 UNL     1      24.974   7.923  49.393  1.00  0.00     0.011 C 
HETATM    7  C25 UNL     1      26.257   7.234  49.689  1.00  0.00     0.099 C 
ENDROOT
BRANCH   3   8
HETATM    8  N1  UNL     1      23.409   3.768  49.429  1.00  0.00    -0.263 N 
HETATM    9  C7  UNL     1      22.558   3.384  48.300  1.00  0.00     0.179 A 
HETATM   10  C8  UNL     1      21.887   2.087  48.516  1.00  0.00    -0.003 A 
HETATM   11  C9  UNL     1      22.023   1.342  49.588  1.00  0.00     0.032 A 
HETATM   12  C10 UNL     1      22.910   1.833  50.662  1.00  0.00     0.089 A 
HETATM   13  N3  UNL     1      23.530   2.963  50.540  1.00  0.00    -0.171 NA
BRANCH  12  14
HETATM   14  C11 UNL     1      23.109   1.064  51.874  1.00  0.00     0.022 A 
HETATM   15  C12 UNL     1      22.053   0.625  52.671  1.00  0.00     0.105 A 
HETATM   16  N2  UNL     1      22.627  -0.046  53.693  1.00  0.00    -0.359 N 
HETATM   17  C13 UNL     1      21.897  -0.674  54.763  1.00  0.00     0.156 C 
HETATM   18  C14 UNL     1      23.960  -0.041  53.568  1.00  0.00     0.045 A 
HETATM   19  C15 UNL     1      25.029  -0.549  54.288  1.00  0.00     0.030 A 
HETATM   20  C19 UNL     1      24.301   0.651  52.433  1.00  0.00     0.005 A 
HETATM   21  C16 UNL     1      26.341  -0.354  53.862  1.00  0.00     0.002 A 
HETATM   22  C17 UNL     1      26.646   0.353  52.702  1.00  0.00     0.001 A 
HETATM   23  C18 UNL     1      25.586   0.862  51.980  1.00  0.00     0.014 A 
ENDBRANCH  12  14
ENDBRANCH   3   8
BRANCH   4  24
HETATM   24  O2  UNL     1      21.971   5.907  49.786  1.00  0.00    -0.354 OA
HETATM   25  C21 UNL     1      21.382   6.344  50.974  1.00  0.00     0.210 C 
ENDBRANCH   4  24
BRANCH   1  26
HETATM   26  C3  UNL     1      27.681   5.517  48.579  1.00  0.00     0.174 C 
HETATM   27  O1  UNL     1      28.212   4.376  48.594  1.00  0.00    -0.288 OA
BRANCH  26  28
HETATM   28  C2  UNL     1      28.556   6.526  47.989  1.00  0.00     0.029 C 
HETATM   29  C1  UNL     1      29.849   6.248  47.856  1.00  0.00     0.035 C 
ENDBRANCH  26  28
ENDBRANCH   1  26
BRANCH   6  30
HETATM   30  N4  UNL     1      25.083   9.347  49.190  1.00  0.00    -0.397 N 
HETATM   31  C24 UNL     1      26.458   9.803  49.039  1.00  0.00     0.146 C 
HETATM   32  H21 UNL     1      24.132   9.787  49.191  1.00  0.00     0.158 HD
ENDBRANCH   6  30
TORSDOF 6
ENDMDL
MODEL 5
REMARK VINA RESULT:      -8.9      3.367      6.238
REMARK  6 active torsions:
REMARK  status: ('A' for Active; 'I' for Inactive)
REMARK    1  A    between atoms: C2_2  and  C3_3 
REMARK    2  A    between atoms: C3_3  and  C4_5 
REMARK    3  A    between atoms: C6_7  and  N1_8 
REMARK    4  A    between atoms: C10_12  and  C11_13 
REMARK    5  A    between atoms: C20_24  and  O2_25 
REMARK    6  A    between atoms: C23_28  and  N4_29 
ROOT
HETATM    1  C4  UNL     1      26.370   5.953  49.108  1.00  0.00    -0.001 C 
HETATM    2  C5  UNL     1      25.513   4.963  48.919  1.00  0.00     0.045 C 
HETATM    3  C6  UNL     1      24.100   5.027  49.330  1.00  0.00     0.087 C 
HETATM    4  C20 UNL     1      23.297   6.067  49.529  1.00  0.00     0.098 C 
HETATM    5  C22 UNL     1      23.717   7.464  49.356  1.00  0.00     0.064 C 
HETATM    6  C23 UNL     1      24.943   7.954  49.438  1.00  0.00     0.011 C 
HETATM    7  C25 UNL     1      26.248   7.301  49.717  1.00  0.00     0.099 C 
ENDROOT
BRANCH   3   8
HETATM    8  N1  UNL     1      23.483   3.761  49.557  1.00  0.00    -0.263 N 
HETATM    9  C7  UNL     1      22.549   3.385  48.493  1.00  0.00     0.179 A 
HETATM   10  C8  UNL     1      21.916   2.075  48.738  1.00  0.00    -0.003 A 
HETATM   11  C9  UNL     1      22.149   1.312  49.782  1.00  0.00     0.032 A 
HETATM   12  C10 UNL     1      23.112   1.798  50.789  1.00  0.00     0.089 A 
HETATM   13  N3  UNL     1      23.704   2.939  50.639  1.00  0.00    -0.171 NA
BRANCH  12  14
HETATM   14  C11 UNL     1      23.419   1.011  51.967  1.00  0.00     0.022 A 
HETATM   15  C12 UNL     1      24.715   0.859  52.455  1.00  0.00     0.105 A 
HETATM   16  N2  UNL     1      24.600   0.071  53.547  1.00  0.00    -0.359 N 
HETATM   17  C13 UNL     1      25.706  -0.345  54.369  1.00  0.00     0.156 C 
HETATM   18  C14 UNL     1      23.319  -0.264  53.750  1.00  0.00     0.045 A 
HETATM   19  C15 UNL     1      22.623  -1.023  54.677  1.00  0.00     0.030 A 
HETATM   20  C19 UNL     1      22.545   0.311  52.773  1.00  0.00     0.005 A 
HETATM   21  C16 UNL     1      21.241  -1.171  54.593  1.00  0.00     0.002 A 
HETATM   22  C17 UNL     1      20.491  -0.571  53.587  1.00  0.00     0.001 A 
HETATM   23  C18 UNL     1      21.176   0.187  52.660  1.00  0.00     0.014 A 
ENDBRANCH  12  14
ENDBRANCH   3   8
BRANCH   4  24
HETATM   24  O2  UNL     1      21.999   5.869  49.916  1.00  0.00    -0.354 OA
HETATM   25  C21 UNL     1      21.396   6.393  51.061  1.00  0.00     0.210 C 
ENDBRANCH   4  24
BRANCH   1  26
HETATM   26  C3  UNL     1      27.693   5.605  48.599  1.00  0.00     0.174 C 
HETATM   27  O1  UNL     1      28.205   4.459  48.509  1.00  0.00    -0.288 OA
BRANCH  26  28
HETATM   28  C2  UNL     1      28.590   6.651  48.118  1.00  0.00     0.029 C 
HETATM   29  C1  UNL     1      29.766   6.297  47.610  1.00  0.00     0.035 C 
ENDBRANCH  26  28
ENDBRANCH   1  26
BRANCH   6  30
HETATM   30  N4  UNL     1      25.013   9.377  49.215  1.00  0.00    -0.397 N 
HETATM   31  C24 UNL     1      25.076   9.737  47.806  1.00  0.00     0.146 C 
HETATM   32  H21 UNL     1      25.004   9.888  50.130  1.00  0.00     0.158 HD
ENDBRANCH   6  30
TORSDOF 6
ENDMDL
MODEL 6
REMARK VINA RESULT:      -8.9      3.421      6.923
REMARK  6 active torsions:
REMARK  status: ('A' for Active; 'I' for Inactive)
REMARK    1  A    between atoms: C2_2  and  C3_3 
REMARK    2  A    between atoms: C3_3  and  C4_5 
REMARK    3  A    between atoms: C6_7  and  N1_8 
REMARK    4  A    between atoms: C10_12  and  C11_13 
REMARK    5  A    between atoms: C20_24  and  O2_25 
REMARK    6  A    between atoms: C23_28  and  N4_29 
ROOT
HETATM    1  C4  UNL     1      24.133  -0.195  53.834  1.00  0.00    -0.001 C 
HETATM    2  C5  UNL     1      23.658   0.726  53.010  1.00  0.00     0.045 C 
HETATM    3  C6  UNL     1      24.512   1.690  52.296  1.00  0.00     0.087 C 
HETATM    4  C20 UNL     1      25.793   1.628  51.948  1.00  0.00     0.098 C 
HETATM    5  C22 UNL     1      26.661   0.480  52.241  1.00  0.00     0.064 C 
HETATM    6  C23 UNL     1      26.523  -0.409  53.212  1.00  0.00     0.011 C 
HETATM    7  C25 UNL     1      25.502  -0.548  54.282  1.00  0.00     0.099 C 
ENDROOT
BRANCH   3   8
HETATM    8  N1  UNL     1      23.861   2.898  51.911  1.00  0.00    -0.263 N 
HETATM    9  C7  UNL     1      23.793   3.879  52.996  1.00  0.00     0.179 A 
HETATM   10  C8  UNL     1      23.116   5.125  52.588  1.00  0.00    -0.003 A 
HETATM   11  C9  UNL     1      22.623   5.354  51.392  1.00  0.00     0.032 A 
HETATM   12  C10 UNL     1      22.751   4.288  50.379  1.00  0.00     0.089 A 
HETATM   13  N3  UNL     1      23.333   3.168  50.668  1.00  0.00    -0.171 NA
BRANCH  12  14
HETATM   14  C11 UNL     1      22.231   4.468  49.037  1.00  0.00     0.022 A 
HETATM   15  C12 UNL     1      21.211   3.677  48.512  1.00  0.00     0.105 A 
HETATM   16  N2  UNL     1      21.004   4.141  47.259  1.00  0.00    -0.359 N 
HETATM   17  C13 UNL     1      20.027   3.606  46.347  1.00  0.00     0.156 C 
HETATM   18  C14 UNL     1      21.832   5.159  46.993  1.00  0.00     0.045 A 
HETATM   19  C15 UNL     1      22.068   5.994  45.914  1.00  0.00     0.030 A 
HETATM   20  C19 UNL     1      22.621   5.393  48.091  1.00  0.00     0.005 A 
HETATM   21  C16 UNL     1      23.042   6.988  45.972  1.00  0.00     0.002 A 
HETATM   22  C17 UNL     1      23.822   7.195  47.106  1.00  0.00     0.001 A 
HETATM   23  C18 UNL     1      23.593   6.367  48.185  1.00  0.00     0.014 A 
ENDBRANCH  12  14
ENDBRANCH   3   8
BRANCH   4  24
HETATM   24  O2  UNL     1      26.375   2.670  51.278  1.00  0.00    -0.354 OA
HETATM   25  C21 UNL     1      26.478   2.798  49.892  1.00  0.00     0.210 C 
ENDBRANCH   4  24
BRANCH   1  26
HETATM   26  C3  UNL     1      23.054  -1.004  54.392  1.00  0.00     0.174 C 
HETATM   27  O1  UNL     1      22.990  -1.514  55.541  1.00  0.00    -0.288 OA
BRANCH  26  28
HETATM   28  C2  UNL     1      21.874  -1.302  53.587  1.00  0.00     0.029 C 
HETATM   29  C1  UNL     1      20.748  -1.640  54.209  1.00  0.00     0.035 C 
ENDBRANCH  26  28
ENDBRANCH   1  26
BRANCH   6  30
HETATM   30  N4  UNL     1      27.555  -1.417  53.224  1.00  0.00    -0.397 N 
HETATM   31  C24 UNL     1      28.886  -0.875  53.458  1.00  0.00     0.146 C 
HETATM   32  H21 UNL     1      27.138  -2.364  53.057  1.00  0.00     0.158 HD
ENDBRANCH   6  30
TORSDOF 6
ENDMDL
MODEL 7
REMARK VINA RESULT:      -8.8      3.180      5.737
REMARK  6 active torsions:
REMARK  status: ('A' for Active; 'I' for Inactive)
REMARK    1  A    between atoms: C2_2  and  C3_3 
REMARK    2  A    between atoms: C3_3  and  C4_5 
REMARK    3  A    between atoms: C6_7  and  N1_8 
REMARK    4  A    between atoms: C10_12  and  C11_13 
REMARK    5  A    between atoms: C20_24  and  O2_25 
REMARK    6  A    between atoms: C23_28  and  N4_29 
ROOT
HETATM    1  C4  UNL     1      27.157   5.865  48.596  1.00  0.00    -0.001 C 
HETATM    2  C5  UNL     1      26.772   4.663  48.996  1.00  0.00     0.045 C 
HETATM    3  C6  UNL     1      25.408   4.367  49.467  1.00  0.00     0.087 C 
HETATM    4  C20 UNL     1      24.251   4.972  49.222  1.00  0.00     0.098 C 
HETATM    5  C22 UNL     1      24.116   6.150  48.355  1.00  0.00     0.064 C 
HETATM    6  C23 UNL     1      25.044   7.048  48.066  1.00  0.00     0.011 C 
HETATM    7  C25 UNL     1      26.463   7.171  48.490  1.00  0.00     0.099 C 
ENDROOT
BRANCH   3   8
HETATM    8  N1  UNL     1      25.305   3.242  50.337  1.00  0.00    -0.263 N 
HETATM    9  C7  UNL     1      26.605   2.792  50.842  1.00  0.00     0.179 A 
HETATM   10  C8  UNL     1      26.488   1.627  51.740  1.00  0.00    -0.003 A 
HETATM   11  C9  UNL     1      25.358   1.042  52.066  1.00  0.00     0.032 A 
HETATM   12  C10 UNL     1      24.110   1.585  51.493  1.00  0.00     0.089 A 
HETATM   13  N3  UNL     1      24.139   2.605  50.698  1.00  0.00    -0.171 NA
BRANCH  12  14
HETATM   14  C11 UNL     1      22.826   0.991  51.808  1.00  0.00     0.022 A 
HETATM   15  C12 UNL     1      21.685   1.210  51.038  1.00  0.00     0.105 A 
HETATM   16  N2  UNL     1      20.704   0.500  51.638  1.00  0.00    -0.359 N 
HETATM   17  C13 UNL     1      19.343   0.440  51.170  1.00  0.00     0.156 C 
HETATM   18  C14 UNL     1      21.176  -0.132  52.720  1.00  0.00     0.045 A 
HETATM   19  C15 UNL     1      20.653  -0.972  53.690  1.00  0.00     0.030 A 
HETATM   20  C19 UNL     1      22.511   0.154  52.859  1.00  0.00     0.005 A 
HETATM   21  C16 UNL     1      21.451  -1.470  54.716  1.00  0.00     0.002 A 
HETATM   22  C17 UNL     1      22.802  -1.157  54.823  1.00  0.00     0.001 A 
HETATM   23  C18 UNL     1      23.331  -0.321  53.861  1.00  0.00     0.014 A 
ENDBRANCH  12  14
ENDBRANCH   3   8
BRANCH   4  24
HETATM   24  O2  UNL     1      23.096   4.502  49.787  1.00  0.00    -0.354 OA
HETATM   25  C21 UNL     1      21.799   4.762  49.340  1.00  0.00     0.210 C 
ENDBRANCH   4  24
BRANCH   1  26
HETATM   26  C3  UNL     1      28.557   5.855  48.186  1.00  0.00     0.174 C 
HETATM   27  O1  UNL     1      29.359   4.885  48.208  1.00  0.00    -0.288 OA
BRANCH  26  28
HETATM   28  C2  UNL     1      29.178   7.074  47.677  1.00  0.00     0.029 C 
HETATM   29  C1  UNL     1      30.460   7.298  47.950  1.00  0.00     0.035 C 
ENDBRANCH  26  28
ENDBRANCH   1  26
BRANCH   6  30
HETATM   30  N4  UNL     1      24.584   8.089  47.179  1.00  0.00    -0.397 N 
HETATM   31  C24 UNL     1      25.664   8.894  46.626  1.00  0.00     0.146 C 
HETATM   32  H21 UNL     1      23.539   8.064  47.103  1.00  0.00     0.158 HD
ENDBRANCH   6  30
TORSDOF 6
ENDMDL
MODEL 8
REMARK VINA RESULT:      -8.7      4.420      7.889
REMARK  6 active torsions:
REMARK  status: ('A' for Active; 'I' for Inactive)
REMARK    1  A    between atoms: C2_2  and  C3_3 
REMARK    2  A    between atoms: C3_3  and  C4_5 
REMARK    3  A    between atoms: C6_7  and  N1_8 
REMARK    4  A    between atoms: C10_12  and  C11_13 
REMARK    5  A    between atoms: C20_24  and  O2_25 
REMARK    6  A    between atoms: C23_28  and  N4_29 
ROOT
HETATM    1  C4  UNL     1      28.460   7.184  48.378  1.00  0.00    -0.001 C 
HETATM    2  C5  UNL     1      27.415   6.373  48.350  1.00  0.00     0.045 C 
HETATM    3  C6  UNL     1      26.263   6.507  49.260  1.00  0.00     0.087 C 
HETATM    4  C20 UNL     1      25.792   7.560  49.919  1.00  0.00     0.098 C 
HETATM    5  C22 UNL     1      26.391   8.899  49.849  1.00  0.00     0.064 C 
HETATM    6  C23 UNL     1      27.644   9.208  49.555  1.00  0.00     0.011 C 
HETATM    7  C25 UNL     1      28.814   8.358  49.214  1.00  0.00     0.099 C 
ENDROOT
BRANCH   3   8
HETATM    8  N1  UNL     1      25.526   5.305  49.474  1.00  0.00    -0.263 N 
HETATM    9  C7  UNL     1      24.325   5.218  48.641  1.00  0.00     0.179 A 
HETATM   10  C8  UNL     1      23.569   3.971  48.871  1.00  0.00    -0.003 A 
HETATM   11  C9  UNL     1      23.915   3.031  49.721  1.00  0.00     0.032 A 
HETATM   12  C10 UNL     1      25.148   3.232  50.507  1.00  0.00     0.089 A 
HETATM   13  N3  UNL     1      25.860   4.302  50.356  1.00  0.00    -0.171 NA
BRANCH  12  14
HETATM   14  C11 UNL     1      25.592   2.237  51.464  1.00  0.00     0.022 A 
HETATM   15  C12 UNL     1      26.934   2.047  51.787  1.00  0.00     0.105 A 
HETATM   16  N2  UNL     1      26.948   1.050  52.698  1.00  0.00    -0.359 N 
HETATM   17  C13 UNL     1      28.141   0.526  53.309  1.00  0.00     0.156 C 
HETATM   18  C14 UNL     1      25.703   0.623  52.947  1.00  0.00     0.045 A 
HETATM   19  C15 UNL     1      25.124  -0.338  53.758  1.00  0.00     0.030 A 
HETATM   20  C19 UNL     1      24.821   1.349  52.186  1.00  0.00     0.005 A 
HETATM   21  C16 UNL     1      23.744  -0.529  53.776  1.00  0.00     0.002 A 
HETATM   22  C17 UNL     1      22.881   0.229  52.989  1.00  0.00     0.001 A 
HETATM   23  C18 UNL     1      23.451   1.189  52.178  1.00  0.00     0.014 A 
ENDBRANCH  12  14
ENDBRANCH   3   8
BRANCH   4  24
HETATM   24  O2  UNL     1      24.688   7.432  50.718  1.00  0.00    -0.354 OA
HETATM   25  C21 UNL     1      23.477   8.108  50.558  1.00  0.00     0.210 C 
ENDBRANCH   4  24
BRANCH   1  26
HETATM   26  C3  UNL     1      29.440   6.809  47.364  1.00  0.00     0.174 C 
HETATM   27  O1  UNL     1      29.661   7.374  46.261  1.00  0.00    -0.288 OA
BRANCH  26  28
HETATM   28  C2  UNL     1      30.306   5.653  47.577  1.00  0.00     0.029 C 
HETATM   29  C1  UNL     1      31.217   5.710  48.545  1.00  0.00     0.035 C 
ENDBRANCH  26  28
ENDBRANCH   1  26
BRANCH   6  30
HETATM   30  N4  UNL     1      27.909  10.626  49.574  1.00  0.00    -0.397 N 
HETATM   31  C24 UNL     1      29.137  10.991  48.882  1.00  0.00     0.146 C 
HETATM   32  H21 UNL     1      27.151  11.129  50.093  1.00  0.00     0.158 HD
ENDBRANCH   6  30
TORSDOF 6
ENDMDL
MODEL 9
REMARK VINA RESULT:      -8.6      4.522      8.370
REMARK  6 active torsions:
REMARK  status: ('A' for Active; 'I' for Inactive)
REMARK    1  A    between atoms: C2_2  and  C3_3 
REMARK    2  A    between atoms: C3_3  and  C4_5 
REMARK    3  A    between atoms: C6_7  and  N1_8 
REMARK    4  A    between atoms: C10_12  and  C11_13 
REMARK    5  A    between atoms: C20_24  and  O2_25 
REMARK    6  A    between atoms: C23_28  and  N4_29 
ROOT
HETATM    1  C4  UNL     1      24.181   6.440  48.067  1.00  0.00    -0.001 C 
HETATM    2  C5  UNL     1      24.584   5.586  48.994  1.00  0.00     0.045 C 
HETATM    3  C6  UNL     1      23.800   4.408  49.405  1.00  0.00     0.087 C 
HETATM    4  C20 UNL     1      22.871   3.712  48.759  1.00  0.00     0.098 C 
HETATM    5  C22 UNL     1      22.424   4.022  47.394  1.00  0.00     0.064 C 
HETATM    6  C23 UNL     1      22.472   5.191  46.776  1.00  0.00     0.011 C 
HETATM    7  C25 UNL     1      22.966   6.520  47.219  1.00  0.00     0.099 C 
ENDROOT
BRANCH   3   8
HETATM    8  N1  UNL     1      24.079   3.931  50.719  1.00  0.00    -0.263 N 
HETATM    9  C7  UNL     1      23.410   4.711  51.763  1.00  0.00     0.179 A 
HETATM   10  C8  UNL     1      23.706   4.209  53.118  1.00  0.00    -0.003 A 
HETATM   11  C9  UNL     1      24.478   3.180  53.385  1.00  0.00     0.032 A 
HETATM   12  C10 UNL     1      25.099   2.472  52.249  1.00  0.00     0.089 A 
HETATM   13  N3  UNL     1      24.883   2.858  51.033  1.00  0.00    -0.171 NA
BRANCH  12  14
HETATM   14  C11 UNL     1      25.963   1.328  52.467  1.00  0.00     0.022 A 
HETATM   15  C12 UNL     1      25.597   0.030  52.117  1.00  0.00     0.105 A 
HETATM   16  N2  UNL     1      26.646  -0.747  52.469  1.00  0.00    -0.359 N 
HETATM   17  C13 UNL     1      26.696  -2.174  52.285  1.00  0.00     0.156 C 
HETATM   18  C14 UNL     1      27.620  -0.004  53.009  1.00  0.00     0.045 A 
HETATM   19  C15 UNL     1      28.880  -0.243  53.533  1.00  0.00     0.030 A 
HETATM   20  C19 UNL     1      27.225   1.310  53.024  1.00  0.00     0.005 A 
HETATM   21  C16 UNL     1      29.661   0.797  54.031  1.00  0.00     0.002 A 
HETATM   22  C17 UNL     1      29.225   2.118  54.028  1.00  0.00     0.001 A 
HETATM   23  C18 UNL     1      27.972   2.364  53.508  1.00  0.00     0.014 A 
ENDBRANCH  12  14
ENDBRANCH   3   8
BRANCH   4  24
HETATM   24  O2  UNL     1      22.275   2.637  49.361  1.00  0.00    -0.354 OA
HETATM   25  C21 UNL     1      21.527   1.648  48.720  1.00  0.00     0.210 C 
ENDBRANCH   4  24
BRANCH   1  26
HETATM   26  C3  UNL     1      25.161   7.503  47.873  1.00  0.00     0.174 C 
HETATM   27  O1  UNL     1      25.245   8.306  46.907  1.00  0.00    -0.288 OA
BRANCH  26  28
HETATM   28  C2  UNL     1      26.202   7.727  48.871  1.00  0.00     0.029 C 
HETATM   29  C1  UNL     1      27.471   7.746  48.474  1.00  0.00     0.035 C 
ENDBRANCH  26  28
ENDBRANCH   1  26
BRANCH   6  30
HETATM   30  N4  UNL     1      21.947   5.156  45.433  1.00  0.00    -0.397 N 
HETATM   31  C24 UNL     1      21.411   3.855  45.059  1.00  0.00     0.146 C 
HETATM   32  H21 UNL     1      22.055   6.093  44.977  1.00  0.00     0.158 HD
ENDBRANCH   6  30
TORSDOF 6
ENDMDL
