MODEL 1
REMARK VINA RESULT:      -8.7      0.000      0.000
REMARK  3 active torsions:
REMARK  status: ('A' for Active; 'I' for Inactive)
REMARK    1  A    between atoms: C5_5  and  N1_6 
REMARK    2  A    between atoms: C9_11  and  C10_12 
REMARK    3  A    between atoms: C11_13  and  N3_14 
ROOT
HETATM    1  C1  UNL     1      22.664   6.607  46.470  1.00  0.00     0.050 C 
HETATM    2  C2  UNL     1      21.783   5.767  47.324  1.00  0.00    -0.036 C 
HETATM    3  C3  UNL     1      21.522   4.458  47.231  1.00  0.00    -0.015 C 
HETATM    4  C4  UNL     1      20.662   3.572  48.044  1.00  0.00     0.070 C 
HETATM    5  C5  UNL     1      21.337   2.435  48.708  1.00  0.00     0.178 C 
HETATM    6  C6  UNL     1      22.699   2.118  48.134  1.00  0.00     0.072 C 
HETATM    7  C7  UNL     1      23.576   2.935  48.967  1.00  0.00     0.004 C 
HETATM    8  C8  UNL     1      22.895   3.657  49.878  1.00  0.00     0.047 C 
HETATM    9  N2  UNL     1      23.328   4.894  50.354  1.00  0.00    -0.252 NA
HETATM   10  C9  UNL     1      22.793   6.043  50.167  1.00  0.00     0.071 C 
HETATM   11  C12 UNL     1      21.729   6.842  49.578  1.00  0.00     0.022 A 
HETATM   12  C13 UNL     1      21.218   7.759  50.469  1.00  0.00     0.017 A 
HETATM   13  C14 UNL     1      20.199   8.619  50.113  1.00  0.00     0.020 A 
HETATM   14  C15 UNL     1      19.764   8.463  48.811  1.00  0.00     0.117 A 
HETATM   15  N4  UNL     1      20.272   7.551  47.927  1.00  0.00    -0.260 NA
HETATM   16  C16 UNL     1      21.265   6.722  48.290  1.00  0.00     0.074 A 
HETATM   17  C17 UNL     1      21.722   2.771  50.129  1.00  0.00     0.062 A 
HETATM   18  C18 UNL     1      22.292   1.548  50.776  1.00  0.00     0.004 A 
HETATM   19  C19 UNL     1      21.986   0.988  51.949  1.00  0.00    -0.029 A 
HETATM   20  C20 UNL     1      22.575  -0.147  52.460  1.00  0.00     0.012 A 
HETATM   21  C21 UNL     1      22.158  -0.619  53.685  1.00  0.00     0.001 A 
HETATM   22  C22 UNL     1      21.173  -0.006  54.432  1.00  0.00     0.001 A 
HETATM   23  C23 UNL     1      20.558   1.137  53.952  1.00  0.00     0.012 A 
HETATM   24  C24 UNL     1      20.992   1.581  52.733  1.00  0.00    -0.030 A 
HETATM   25  C25 UNL     1      20.430   2.665  52.234  1.00  0.00    -0.013 A 
HETATM   26  C26 UNL     1      20.661   3.404  50.943  1.00  0.00     0.050 A 
ENDROOT
BRANCH   5  27
HETATM   27  N1  UNL     1      20.569   1.210  48.700  1.00  0.00     0.090 N 
HETATM   28  H7  UNL     1      19.932   1.234  47.852  1.00  0.00     0.313 HD
HETATM   29  H8  UNL     1      20.085   0.992  49.578  1.00  0.00     0.313 HD
ENDBRANCH   5  27
BRANCH  10  30
HETATM   30  C10 UNL     1      23.824   6.745  50.963  1.00  0.00     0.049 C 
HETATM   31  C11 UNL     1      24.958   6.912  50.347  1.00  0.00     0.082 C 
BRANCH  31  32
HETATM   32  N3  UNL     1      26.126   7.549  50.858  1.00  0.00    -0.408 N 
HETATM   33  H14 UNL     1      27.050   7.747  50.401  1.00  0.00     0.155 HD
HETATM   34  H15 UNL     1      26.589   8.014  51.660  1.00  0.00     0.155 HD
ENDBRANCH  31  32
ENDBRANCH  10  30
TORSDOF 3
ENDMDL
MODEL 2
REMARK VINA RESULT:      -8.3      2.516      4.130
REMARK  3 active torsions:
REMARK  status: ('A' for Active; 'I' for Inactive)
REMARK    1  A    between atoms: C5_5  and  N1_6 
REMARK    2  A    between atoms: C9_11  and  C10_12 
REMARK    3  A    between atoms: C11_13  and  N3_14 
ROOT
HETATM    1  C1  UNL     1      17.996   3.140  48.879  1.00  0.00     0.050 C 
HETATM    2  C2  UNL     1      18.892   3.282  50.058  1.00  0.00    -0.036 C 
HETATM    3  C3  UNL     1      19.012   2.482  51.124  1.00  0.00    -0.015 C 
HETATM    4  C4  UNL     1      19.878   2.569  52.318  1.00  0.00     0.070 C 
HETATM    5  C5  UNL     1      20.804   1.436  52.538  1.00  0.00     0.178 C 
HETATM    6  C6  UNL     1      20.441   0.194  51.755  1.00  0.00     0.072 C 
HETATM    7  C7  UNL     1      21.199   0.383  50.521  1.00  0.00     0.004 C 
HETATM    8  C8  UNL     1      21.888   1.540  50.512  1.00  0.00     0.047 C 
HETATM    9  N2  UNL     1      22.174   2.252  49.348  1.00  0.00    -0.252 NA
HETATM   10  C9  UNL     1      21.728   3.400  48.995  1.00  0.00     0.071 C 
HETATM   11  C12 UNL     1      20.896   4.559  49.287  1.00  0.00     0.022 A 
HETATM   12  C13 UNL     1      21.548   5.742  49.022  1.00  0.00     0.017 A 
HETATM   13  C14 UNL     1      20.939   6.963  49.230  1.00  0.00     0.020 A 
HETATM   14  C15 UNL     1      19.648   6.869  49.715  1.00  0.00     0.117 A 
HETATM   15  N4  UNL     1      19.003   5.693  49.978  1.00  0.00    -0.260 NA
HETATM   16  C16 UNL     1      19.610   4.512  49.770  1.00  0.00     0.074 A 
HETATM   17  C17 UNL     1      22.173   1.717  51.965  1.00  0.00     0.062 A 
HETATM   18  C18 UNL     1      23.086   0.586  52.321  1.00  0.00     0.004 A 
HETATM   19  C19 UNL     1      24.303   0.619  52.870  1.00  0.00    -0.029 A 
HETATM   20  C20 UNL     1      25.070  -0.487  53.159  1.00  0.00     0.012 A 
HETATM   21  C21 UNL     1      26.310  -0.307  53.730  1.00  0.00     0.001 A 
HETATM   22  C22 UNL     1      26.827   0.938  54.027  1.00  0.00     0.001 A 
HETATM   23  C23 UNL     1      26.088   2.073  53.751  1.00  0.00     0.012 A 
HETATM   24  C24 UNL     1      24.859   1.863  53.185  1.00  0.00    -0.030 A 
HETATM   25  C25 UNL     1      24.117   2.917  52.910  1.00  0.00    -0.013 A 
HETATM   26  C26 UNL     1      22.744   3.039  52.303  1.00  0.00     0.050 A 
ENDROOT
BRANCH   5  27
HETATM   27  N1  UNL     1      20.939   1.047  53.925  1.00  0.00     0.090 N 
HETATM   28  H7  UNL     1      21.975   0.958  54.135  1.00  0.00     0.313 HD
HETATM   29  H8  UNL     1      20.386   0.232  54.206  1.00  0.00     0.313 HD
ENDBRANCH   5  27
BRANCH  10  30
HETATM   30  C10 UNL     1      22.485   3.396  47.725  1.00  0.00     0.049 C 
HETATM   31  C11 UNL     1      21.745   3.468  46.656  1.00  0.00     0.082 C 
BRANCH  31  32
HETATM   32  N3  UNL     1      22.192   3.483  45.303  1.00  0.00    -0.408 N 
HETATM   33  H14 UNL     1      23.161   3.543  44.905  1.00  0.00     0.155 HD
HETATM   34  H15 UNL     1      21.940   3.457  44.298  1.00  0.00     0.155 HD
ENDBRANCH  31  32
ENDBRANCH  10  30
TORSDOF 3
ENDMDL
MODEL 3
REMARK VINA RESULT:      -8.0      7.505     11.568
REMARK  3 active torsions:
REMARK  status: ('A' for Active; 'I' for Inactive)
REMARK    1  A    between atoms: C5_5  and  N1_6 
REMARK    2  A    between atoms: C9_11  and  C10_12 
REMARK    3  A    between atoms: C11_13  and  N3_14 
ROOT
HETATM    1  C1  UNL     1      35.047   7.622  47.824  1.00  0.00     0.050 C 
HETATM    2  C2  UNL     1      33.642   7.388  48.255  1.00  0.00    -0.036 C 
HETATM    3  C3  UNL     1      32.848   8.172  48.993  1.00  0.00    -0.015 C 
HETATM    4  C4  UNL     1      31.453   7.995  49.451  1.00  0.00     0.070 C 
HETATM    5  C5  UNL     1      30.486   9.025  49.012  1.00  0.00     0.178 C 
HETATM    6  C6  UNL     1      31.136  10.297  48.517  1.00  0.00     0.072 C 
HETATM    7  C7  UNL     1      31.275  10.029  47.088  1.00  0.00     0.004 C 
HETATM    8  C8  UNL     1      30.825   8.806  46.748  1.00  0.00     0.047 C 
HETATM    9  N2  UNL     1      31.346   8.066  45.687  1.00  0.00    -0.252 NA
HETATM   10  C9  UNL     1      32.009   6.971  45.737  1.00  0.00     0.071 C 
HETATM   11  C12 UNL     1      32.600   5.907  46.535  1.00  0.00     0.022 A 
HETATM   12  C13 UNL     1      32.334   4.662  46.012  1.00  0.00     0.017 A 
HETATM   13  C14 UNL     1      32.802   3.512  46.615  1.00  0.00     0.020 A 
HETATM   14  C15 UNL     1      33.541   3.741  47.760  1.00  0.00     0.117 A 
HETATM   15  N4  UNL     1      33.804   4.979  48.278  1.00  0.00    -0.260 NA
HETATM   16  C16 UNL     1      33.341   6.089  47.678  1.00  0.00     0.074 A 
HETATM   17  C17 UNL     1      29.752   8.601  47.762  1.00  0.00     0.062 A 
HETATM   18  C18 UNL     1      28.713   9.629  47.441  1.00  0.00     0.004 A 
HETATM   19  C19 UNL     1      27.417   9.469  47.168  1.00  0.00    -0.029 A 
HETATM   20  C20 UNL     1      26.537  10.489  46.880  1.00  0.00     0.012 A 
HETATM   21  C21 UNL     1      25.220  10.179  46.622  1.00  0.00     0.001 A 
HETATM   22  C22 UNL     1      24.735   8.888  46.635  1.00  0.00     0.001 A 
HETATM   23  C23 UNL     1      25.587   7.836  46.919  1.00  0.00     0.012 A 
HETATM   24  C24 UNL     1      26.888   8.175  47.173  1.00  0.00    -0.030 A 
HETATM   25  C25 UNL     1      27.735   7.204  47.455  1.00  0.00    -0.013 A 
HETATM   26  C26 UNL     1      29.205   7.226  47.782  1.00  0.00     0.050 A 
ENDROOT
BRANCH   5  27
HETATM   27  N1  UNL     1      29.524   9.398  50.026  1.00  0.00     0.090 N 
HETATM   28  H7  UNL     1      29.479  10.457  50.052  1.00  0.00     0.313 HD
HETATM   29  H8  UNL     1      29.666   8.965  50.944  1.00  0.00     0.313 HD
ENDBRANCH   5  27
BRANCH  10  30
HETATM   30  C10 UNL     1      32.154   6.894  44.267  1.00  0.00     0.049 C 
HETATM   31  C11 UNL     1      31.877   8.001  43.640  1.00  0.00     0.082 C 
BRANCH  31  32
HETATM   32  N3  UNL     1      31.928   8.225  42.233  1.00  0.00    -0.408 N 
HETATM   33  H14 UNL     1      31.787   7.562  41.431  1.00  0.00     0.155 HD
HETATM   34  H15 UNL     1      32.073   8.898  41.459  1.00  0.00     0.155 HD
ENDBRANCH  31  32
ENDBRANCH  10  30
TORSDOF 3
ENDMDL
MODEL 4
REMARK VINA RESULT:      -8.0      2.353      4.954
REMARK  3 active torsions:
REMARK  status: ('A' for Active; 'I' for Inactive)
REMARK    1  A    between atoms: C5_5  and  N1_6 
REMARK    2  A    between atoms: C9_11  and  C10_12 
REMARK    3  A    between atoms: C11_13  and  N3_14 
ROOT
HETATM    1  C1  UNL     1      19.324   6.669  48.446  1.00  0.00     0.050 C 
HETATM    2  C2  UNL     1      20.772   6.401  48.661  1.00  0.00    -0.036 C 
HETATM    3  C3  UNL     1      21.557   6.789  49.672  1.00  0.00    -0.015 C 
HETATM    4  C4  UNL     1      22.992   6.557  49.940  1.00  0.00     0.070 C 
HETATM    5  C5  UNL     1      23.316   5.847  51.197  1.00  0.00     0.178 C 
HETATM    6  C6  UNL     1      22.181   5.833  52.197  1.00  0.00     0.072 C 
HETATM    7  C7  UNL     1      21.487   4.596  51.849  1.00  0.00     0.004 C 
HETATM    8  C8  UNL     1      22.058   3.961  50.807  1.00  0.00     0.047 C 
HETATM    9  N2  UNL     1      21.344   3.170  49.909  1.00  0.00    -0.252 NA
HETATM   10  C9  UNL     1      21.118   3.391  48.668  1.00  0.00     0.071 C 
HETATM   11  C12 UNL     1      21.285   4.249  47.503  1.00  0.00     0.022 A 
HETATM   12  C13 UNL     1      21.623   3.531  46.378  1.00  0.00     0.017 A 
HETATM   13  C14 UNL     1      21.829   4.151  45.162  1.00  0.00     0.020 A 
HETATM   14  C15 UNL     1      21.664   5.522  45.198  1.00  0.00     0.117 A 
HETATM   15  N4  UNL     1      21.328   6.234  46.317  1.00  0.00    -0.260 NA
HETATM   16  C16 UNL     1      21.130   5.614  47.493  1.00  0.00     0.074 A 
HETATM   17  C17 UNL     1      23.485   4.363  50.971  1.00  0.00     0.062 A 
HETATM   18  C18 UNL     1      23.922   3.726  52.252  1.00  0.00     0.004 A 
HETATM   19  C19 UNL     1      24.937   2.890  52.480  1.00  0.00    -0.029 A 
HETATM   20  C20 UNL     1      25.259   2.353  53.707  1.00  0.00     0.012 A 
HETATM   21  C21 UNL     1      26.339   1.504  53.800  1.00  0.00     0.001 A 
HETATM   22  C22 UNL     1      27.120   1.160  52.715  1.00  0.00     0.001 A 
HETATM   23  C23 UNL     1      26.829   1.678  51.467  1.00  0.00     0.012 A 
HETATM   24  C24 UNL     1      25.752   2.520  51.406  1.00  0.00    -0.030 A 
HETATM   25  C25 UNL     1      25.441   3.042  50.236  1.00  0.00    -0.013 A 
HETATM   26  C26 UNL     1      24.344   3.989  49.826  1.00  0.00     0.050 A 
ENDROOT
BRANCH   5  27
HETATM   27  N1  UNL     1      24.484   6.360  51.878  1.00  0.00     0.090 N 
HETATM   28  H7  UNL     1      24.972   7.033  51.218  1.00  0.00     0.313 HD
HETATM   29  H8  UNL     1      25.104   5.649  52.280  1.00  0.00     0.313 HD
ENDBRANCH   5  27
BRANCH  10  30
HETATM   30  C10 UNL     1      20.346   2.140  48.499  1.00  0.00     0.049 C 
HETATM   31  C11 UNL     1      19.326   2.026  49.298  1.00  0.00     0.082 C 
BRANCH  31  32
HETATM   32  N3  UNL     1      18.406   0.938  49.365  1.00  0.00    -0.408 N 
HETATM   33  H14 UNL     1      17.593   0.694  48.747  1.00  0.00     0.155 HD
HETATM   34  H15 UNL     1      18.101   0.079  49.857  1.00  0.00     0.155 HD
ENDBRANCH  31  32
ENDBRANCH  10  30
TORSDOF 3
ENDMDL
MODEL 5
REMARK VINA RESULT:      -7.9      3.459      6.540
REMARK  3 active torsions:
REMARK  status: ('A' for Active; 'I' for Inactive)
REMARK    1  A    between atoms: C5_5  and  N1_6 
REMARK    2  A    between atoms: C9_11  and  C10_12 
REMARK    3  A    between atoms: C11_13  and  N3_14 
ROOT
HETATM    1  C1  UNL     1      19.282   6.562  49.329  1.00  0.00     0.050 C 
HETATM    2  C2  UNL     1      20.615   7.219  49.391  1.00  0.00    -0.036 C 
HETATM    3  C3  UNL     1      21.595   7.050  50.286  1.00  0.00    -0.015 C 
HETATM    4  C4  UNL     1      22.932   7.669  50.400  1.00  0.00     0.070 C 
HETATM    5  C5  UNL     1      24.087   6.745  50.359  1.00  0.00     0.178 C 
HETATM    6  C6  UNL     1      23.718   5.301  50.618  1.00  0.00     0.072 C 
HETATM    7  C7  UNL     1      23.463   4.808  49.267  1.00  0.00     0.004 C 
HETATM    8  C8  UNL     1      23.612   5.767  48.332  1.00  0.00     0.047 C 
HETATM    9  N2  UNL     1      22.896   5.789  47.137  1.00  0.00    -0.252 NA
HETATM   10  C9  UNL     1      22.007   6.633  46.764  1.00  0.00     0.071 C 
HETATM   11  C12 UNL     1      21.226   7.828  47.047  1.00  0.00     0.022 A 
HETATM   12  C13 UNL     1      21.184   8.684  45.969  1.00  0.00     0.017 A 
HETATM   13  C14 UNL     1      20.495   9.879  46.024  1.00  0.00     0.020 A 
HETATM   14  C15 UNL     1      19.875  10.112  47.237  1.00  0.00     0.117 A 
HETATM   15  N4  UNL     1      19.919   9.261  48.306  1.00  0.00    -0.260 NA
HETATM   16  C16 UNL     1      20.593   8.101  48.236  1.00  0.00     0.074 A 
HETATM   17  C17 UNL     1      24.654   6.626  48.964  1.00  0.00     0.062 A 
HETATM   18  C18 UNL     1      25.882   5.772  49.015  1.00  0.00     0.004 A 
HETATM   19  C19 UNL     1      27.098   6.004  48.514  1.00  0.00    -0.029 A 
HETATM   20  C20 UNL     1      28.171   5.147  48.613  1.00  0.00     0.012 A 
HETATM   21  C21 UNL     1      29.373   5.516  48.051  1.00  0.00     0.001 A 
HETATM   22  C22 UNL     1      29.556   6.712  47.388  1.00  0.00     0.001 A 
HETATM   23  C23 UNL     1      28.503   7.600  47.267  1.00  0.00     0.012 A 
HETATM   24  C24 UNL     1      27.322   7.206  47.836  1.00  0.00    -0.030 A 
HETATM   25  C25 UNL     1      26.292   8.025  47.749  1.00  0.00    -0.013 A 
HETATM   26  C26 UNL     1      24.879   7.907  48.258  1.00  0.00     0.050 A 
ENDROOT
BRANCH   5  27
HETATM   27  N1  UNL     1      25.150   7.090  51.277  1.00  0.00     0.090 N 
HETATM   28  H7  UNL     1      24.703   7.343  52.206  1.00  0.00     0.313 HD
HETATM   29  H8  UNL     1      25.815   7.789  50.932  1.00  0.00     0.313 HD
ENDBRANCH   5  27
BRANCH  10  30
HETATM   30  C10 UNL     1      21.787   5.955  45.468  1.00  0.00     0.049 C 
HETATM   31  C11 UNL     1      21.379   4.723  45.567  1.00  0.00     0.082 C 
BRANCH  31  32
HETATM   32  N3  UNL     1      21.087   3.828  44.496  1.00  0.00    -0.408 N 
HETATM   33  H14 UNL     1      21.694   3.478  43.715  1.00  0.00     0.155 HD
HETATM   34  H15 UNL     1      20.388   3.224  44.027  1.00  0.00     0.155 HD
ENDBRANCH  31  32
ENDBRANCH  10  30
TORSDOF 3
ENDMDL
MODEL 6
REMARK VINA RESULT:      -7.7      2.233      2.689
REMARK  3 active torsions:
REMARK  status: ('A' for Active; 'I' for Inactive)
REMARK    1  A    between atoms: C5_5  and  N1_6 
REMARK    2  A    between atoms: C9_11  and  C10_12 
REMARK    3  A    between atoms: C11_13  and  N3_14 
ROOT
HETATM    1  C1  UNL     1      19.734   5.154  47.203  1.00  0.00     0.050 C 
HETATM    2  C2  UNL     1      20.119   4.796  48.594  1.00  0.00    -0.036 C 
HETATM    3  C3  UNL     1      20.038   3.611  49.210  1.00  0.00    -0.015 C 
HETATM    4  C4  UNL     1      20.402   3.195  50.581  1.00  0.00     0.070 C 
HETATM    5  C5  UNL     1      21.420   2.127  50.691  1.00  0.00     0.178 C 
HETATM    6  C6  UNL     1      21.626   1.350  49.410  1.00  0.00     0.072 C 
HETATM    7  C7  UNL     1      22.700   2.104  48.769  1.00  0.00     0.004 C 
HETATM    8  C8  UNL     1      23.081   3.173  49.494  1.00  0.00     0.047 C 
HETATM    9  N2  UNL     1      23.585   4.342  48.926  1.00  0.00    -0.252 NA
HETATM   10  C9  UNL     1      23.049   5.505  48.905  1.00  0.00     0.071 C 
HETATM   11  C12 UNL     1      21.936   6.373  49.265  1.00  0.00     0.022 A 
HETATM   12  C13 UNL     1      22.366   7.578  49.773  1.00  0.00     0.017 A 
HETATM   13  C14 UNL     1      21.472   8.549  50.178  1.00  0.00     0.020 A 
HETATM   14  C15 UNL     1      20.147   8.189  50.023  1.00  0.00     0.117 A 
HETATM   15  N4  UNL     1      19.722   6.991  49.519  1.00  0.00    -0.260 NA
HETATM   16  C16 UNL     1      20.606   6.057  49.128  1.00  0.00     0.074 A 
HETATM   17  C17 UNL     1      22.806   2.696  50.880  1.00  0.00     0.062 A 
HETATM   18  C18 UNL     1      23.764   1.568  51.099  1.00  0.00     0.004 A 
HETATM   19  C19 UNL     1      24.682   1.409  52.056  1.00  0.00    -0.029 A 
HETATM   20  C20 UNL     1      25.525   0.326  52.170  1.00  0.00     0.012 A 
HETATM   21  C21 UNL     1      26.424   0.289  53.213  1.00  0.00     0.001 A 
HETATM   22  C22 UNL     1      26.524   1.292  54.155  1.00  0.00     0.001 A 
HETATM   23  C23 UNL     1      25.695   2.396  54.074  1.00  0.00     0.012 A 
HETATM   24  C24 UNL     1      24.811   2.404  53.029  1.00  0.00    -0.030 A 
HETATM   25  C25 UNL     1      23.998   3.436  52.915  1.00  0.00    -0.013 A 
HETATM   26  C26 UNL     1      22.924   3.753  51.908  1.00  0.00     0.050 A 
ENDROOT
BRANCH   5  27
HETATM   27  N1  UNL     1      21.153   1.167  51.740  1.00  0.00     0.090 N 
HETATM   28  H7  UNL     1      20.908   0.244  51.278  1.00  0.00     0.313 HD
HETATM   29  H8  UNL     1      20.476   1.470  52.448  1.00  0.00     0.313 HD
ENDBRANCH   5  27
BRANCH  10  30
HETATM   30  C10 UNL     1      24.177   6.104  48.158  1.00  0.00     0.049 C 
HETATM   31  C11 UNL     1      25.330   6.005  48.754  1.00  0.00     0.082 C 
BRANCH  31  32
HETATM   32  N3  UNL     1      26.585   6.485  48.278  1.00  0.00    -0.408 N 
HETATM   33  H14 UNL     1      26.984   6.504  47.307  1.00  0.00     0.155 HD
HETATM   34  H15 UNL     1      27.495   6.926  48.502  1.00  0.00     0.155 HD
ENDBRANCH  31  32
ENDBRANCH  10  30
TORSDOF 3
ENDMDL
MODEL 7
REMARK VINA RESULT:      -7.7      5.056      8.404
REMARK  3 active torsions:
REMARK  status: ('A' for Active; 'I' for Inactive)
REMARK    1  A    between atoms: C5_5  and  N1_6 
REMARK    2  A    between atoms: C9_11  and  C10_12 
REMARK    3  A    between atoms: C11_13  and  N3_14 
ROOT
HETATM    1  C1  UNL     1      27.812  12.533  46.092  1.00  0.00     0.050 C 
HETATM    2  C2  UNL     1      28.157  11.345  46.917  1.00  0.00    -0.036 C 
HETATM    3  C3  UNL     1      27.761  11.039  48.158  1.00  0.00    -0.015 C 
HETATM    4  C4  UNL     1      28.068   9.882  49.025  1.00  0.00     0.070 C 
HETATM    5  C5  UNL     1      26.912   9.069  49.464  1.00  0.00     0.178 C 
HETATM    6  C6  UNL     1      25.581   9.770  49.303  1.00  0.00     0.072 C 
HETATM    7  C7  UNL     1      25.179   9.351  47.963  1.00  0.00     0.004 C 
HETATM    8  C8  UNL     1      26.096   8.559  47.374  1.00  0.00     0.047 C 
HETATM    9  N2  UNL     1      26.297   8.513  45.996  1.00  0.00    -0.252 NA
HETATM   10  C9  UNL     1      27.322   8.901  45.333  1.00  0.00     0.071 C 
HETATM   11  C12 UNL     1      28.655   9.485  45.327  1.00  0.00     0.022 A 
HETATM   12  C13 UNL     1      29.517   8.793  44.505  1.00  0.00     0.017 A 
HETATM   13  C14 UNL     1      30.834   9.180  44.353  1.00  0.00     0.020 A 
HETATM   14  C15 UNL     1      31.178  10.296  45.092  1.00  0.00     0.117 A 
HETATM   15  N4  UNL     1      30.321  10.981  45.908  1.00  0.00    -0.260 NA
HETATM   16  C16 UNL     1      29.042  10.592  46.043  1.00  0.00     0.074 A 
HETATM   17  C17 UNL     1      26.694   7.879  48.560  1.00  0.00     0.062 A 
HETATM   18  C18 UNL     1      25.589   7.042  49.123  1.00  0.00     0.004 A 
HETATM   19  C19 UNL     1      25.555   5.728  49.356  1.00  0.00    -0.029 A 
HETATM   20  C20 UNL     1      24.480   5.045  49.880  1.00  0.00     0.012 A 
HETATM   21  C21 UNL     1      24.584   3.685  50.072  1.00  0.00     0.001 A 
HETATM   22  C22 UNL     1      25.721   2.967  49.762  1.00  0.00     0.001 A 
HETATM   23  C23 UNL     1      26.822   3.617  49.233  1.00  0.00     0.012 A 
HETATM   24  C24 UNL     1      26.689   4.967  49.055  1.00  0.00    -0.030 A 
HETATM   25  C25 UNL     1      27.716   5.628  48.558  1.00  0.00    -0.013 A 
HETATM   26  C26 UNL     1      27.905   7.089  48.246  1.00  0.00     0.050 A 
ENDROOT
BRANCH   5  27
HETATM   27  N1  UNL     1      26.998   8.616  50.835  1.00  0.00     0.090 N 
HETATM   28  H7  UNL     1      26.300   9.176  51.403  1.00  0.00     0.313 HD
HETATM   29  H8  UNL     1      27.943   8.604  51.232  1.00  0.00     0.313 HD
ENDBRANCH   5  27
BRANCH  10  30
HETATM   30  C10 UNL     1      26.731   8.515  44.033  1.00  0.00     0.049 C 
HETATM   31  C11 UNL     1      25.489   8.870  43.879  1.00  0.00     0.082 C 
BRANCH  31  32
HETATM   32  N3  UNL     1      24.665   8.637  42.739  1.00  0.00    -0.408 N 
HETATM   33  H14 UNL     1      24.922   8.447  41.739  1.00  0.00     0.155 HD
HETATM   34  H15 UNL     1      23.706   8.548  42.356  1.00  0.00     0.155 HD
ENDBRANCH  31  32
ENDBRANCH  10  30
TORSDOF 3
ENDMDL
MODEL 8
REMARK VINA RESULT:      -7.5      1.985      4.592
REMARK  3 active torsions:
REMARK  status: ('A' for Active; 'I' for Inactive)
REMARK    1  A    between atoms: C5_5  and  N1_6 
REMARK    2  A    between atoms: C9_11  and  C10_12 
REMARK    3  A    between atoms: C11_13  and  N3_14 
ROOT
HETATM    1  C1  UNL     1      24.710   9.941  47.558  1.00  0.00     0.050 C 
HETATM    2  C2  UNL     1      24.834   8.461  47.643  1.00  0.00    -0.036 C 
HETATM    3  C3  UNL     1      25.433   7.721  48.583  1.00  0.00    -0.015 C 
HETATM    4  C4  UNL     1      25.589   6.257  48.723  1.00  0.00     0.070 C 
HETATM    5  C5  UNL     1      25.013   5.652  49.943  1.00  0.00     0.178 C 
HETATM    6  C6  UNL     1      24.723   6.653  51.039  1.00  0.00     0.072 C 
HETATM    7  C7  UNL     1      23.341   7.025  50.749  1.00  0.00     0.004 C 
HETATM    8  C8  UNL     1      22.857   6.401  49.658  1.00  0.00     0.047 C 
HETATM    9  N2  UNL     1      21.889   6.957  48.823  1.00  0.00    -0.252 NA
HETATM   10  C9  UNL     1      22.020   7.339  47.608  1.00  0.00     0.071 C 
HETATM   11  C12 UNL     1      22.869   7.504  46.436  1.00  0.00     0.022 A 
HETATM   12  C13 UNL     1      22.242   7.087  45.283  1.00  0.00     0.017 A 
HETATM   13  C14 UNL     1      22.871   7.156  44.056  1.00  0.00     0.020 A 
HETATM   14  C15 UNL     1      24.152   7.671  44.112  1.00  0.00     0.117 A 
HETATM   15  N4  UNL     1      24.773   8.084  45.259  1.00  0.00    -0.260 NA
HETATM   16  C16 UNL     1      24.146   8.010  46.445  1.00  0.00     0.074 A 
HETATM   17  C17 UNL     1      23.621   5.120  49.697  1.00  0.00     0.062 A 
HETATM   18  C18 UNL     1      23.146   4.423  50.932  1.00  0.00     0.004 A 
HETATM   19  C19 UNL     1      22.608   3.208  51.067  1.00  0.00    -0.029 A 
HETATM   20  C20 UNL     1      22.197   2.653  52.259  1.00  0.00     0.012 A 
HETATM   21  C21 UNL     1      21.662   1.384  52.252  1.00  0.00     0.001 A 
HETATM   22  C22 UNL     1      21.513   0.636  51.102  1.00  0.00     0.001 A 
HETATM   23  C23 UNL     1      21.913   1.159  49.886  1.00  0.00     0.012 A 
HETATM   24  C24 UNL     1      22.443   2.421  49.924  1.00  0.00    -0.030 A 
HETATM   25  C25 UNL     1      22.843   2.957  48.787  1.00  0.00    -0.013 A 
HETATM   26  C26 UNL     1      23.462   4.295  48.479  1.00  0.00     0.050 A 
ENDROOT
BRANCH   5  27
HETATM   27  N1  UNL     1      25.827   4.604  50.521  1.00  0.00     0.090 N 
HETATM   28  H7  UNL     1      26.475   5.054  51.229  1.00  0.00     0.313 HD
HETATM   29  H8  UNL     1      26.305   4.000  49.844  1.00  0.00     0.313 HD
ENDBRANCH   5  27
BRANCH  10  30
HETATM   30  C10 UNL     1      20.608   7.767  47.503  1.00  0.00     0.049 C 
HETATM   31  C11 UNL     1      19.981   7.838  48.641  1.00  0.00     0.082 C 
BRANCH  31  32
HETATM   32  N3  UNL     1      18.623   8.219  48.850  1.00  0.00    -0.408 N 
HETATM   33  H14 UNL     1      18.193   9.168  48.979  1.00  0.00     0.155 HD
HETATM   34  H15 UNL     1      17.637   7.920  48.959  1.00  0.00     0.155 HD
ENDBRANCH  31  32
ENDBRANCH  10  30
TORSDOF 3
ENDMDL
MODEL 9
REMARK VINA RESULT:      -7.5      2.946      5.583
REMARK  3 active torsions:
REMARK  status: ('A' for Active; 'I' for Inactive)
REMARK    1  A    between atoms: C5_5  and  N1_6 
REMARK    2  A    between atoms: C9_11  and  C10_12 
REMARK    3  A    between atoms: C11_13  and  N3_14 
ROOT
HETATM    1  C1  UNL     1      21.312  10.208  46.748  1.00  0.00     0.050 C 
HETATM    2  C2  UNL     1      22.497   9.601  47.411  1.00  0.00    -0.036 C 
HETATM    3  C3  UNL     1      22.712   9.388  48.714  1.00  0.00    -0.015 C 
HETATM    4  C4  UNL     1      23.861   8.793  49.431  1.00  0.00     0.070 C 
HETATM    5  C5  UNL     1      23.574   7.589  50.241  1.00  0.00     0.178 C 
HETATM    6  C6  UNL     1      22.104   7.395  50.541  1.00  0.00     0.072 C 
HETATM    7  C7  UNL     1      21.675   6.563  49.420  1.00  0.00     0.004 C 
HETATM    8  C8  UNL     1      22.677   6.304  48.558  1.00  0.00     0.047 C 
HETATM    9  N2  UNL     1      22.479   6.096  47.193  1.00  0.00    -0.252 NA
HETATM   10  C9  UNL     1      22.854   6.838  46.219  1.00  0.00     0.071 C 
HETATM   11  C12 UNL     1      23.529   8.042  45.755  1.00  0.00     0.022 A 
HETATM   12  C13 UNL     1      24.366   7.787  44.693  1.00  0.00     0.017 A 
HETATM   13  C14 UNL     1      25.104   8.791  44.100  1.00  0.00     0.020 A 
HETATM   14  C15 UNL     1      24.917  10.036  44.671  1.00  0.00     0.117 A 
HETATM   15  N4  UNL     1      24.085  10.287  45.727  1.00  0.00    -0.260 NA
HETATM   16  C16 UNL     1      23.373   9.298  46.292  1.00  0.00     0.074 A 
HETATM   17  C17 UNL     1      23.855   6.321  49.471  1.00  0.00     0.062 A 
HETATM   18  C18 UNL     1      23.656   5.150  50.382  1.00  0.00     0.004 A 
HETATM   19  C19 UNL     1      24.462   4.113  50.619  1.00  0.00    -0.029 A 
HETATM   20  C20 UNL     1      24.184   3.076  51.481  1.00  0.00     0.012 A 
HETATM   21  C21 UNL     1      25.111   2.069  51.633  1.00  0.00     0.001 A 
HETATM   22  C22 UNL     1      26.314   2.046  50.957  1.00  0.00     0.001 A 
HETATM   23  C23 UNL     1      26.630   3.069  50.082  1.00  0.00     0.012 A 
HETATM   24  C24 UNL     1      25.690   4.056  49.953  1.00  0.00    -0.030 A 
HETATM   25  C25 UNL     1      25.952   5.055  49.132  1.00  0.00    -0.013 A 
HETATM   26  C26 UNL     1      25.156   6.280  48.767  1.00  0.00     0.050 A 
ENDROOT
BRANCH   5  27
HETATM   27  N1  UNL     1      24.280   7.547  51.503  1.00  0.00     0.090 N 
HETATM   28  H7  UNL     1      24.855   8.435  51.579  1.00  0.00     0.313 HD
HETATM   29  H8  UNL     1      24.815   6.690  51.676  1.00  0.00     0.313 HD
ENDBRANCH   5  27
BRANCH  10  30
HETATM   30  C10 UNL     1      22.273   5.937  45.200  1.00  0.00     0.049 C 
HETATM   31  C11 UNL     1      21.909   4.773  45.655  1.00  0.00     0.082 C 
BRANCH  31  32
HETATM   32  N3  UNL     1      21.323   3.707  44.912  1.00  0.00    -0.408 N 
HETATM   33  H14 UNL     1      21.405   2.667  45.031  1.00  0.00     0.155 HD
HETATM   34  H15 UNL     1      20.711   3.421  44.126  1.00  0.00     0.155 HD
ENDBRANCH  31  32
ENDBRANCH  10  30
TORSDOF 3
ENDMDL
