MODEL 1
REMARK VINA RESULT:      -7.8      0.000      0.000
REMARK  4 active torsions:
REMARK  status: ('A' for Active; 'I' for Inactive)
REMARK    1  A    between atoms: O1_2  and  C2_3 
REMARK    2  A    between atoms: C5_6  and  N1_7 
REMARK    3  A    between atoms: N1_7  and  C6_8 
REMARK    4  A    between atoms: C14_18  and  O2_19 
ROOT
HETATM    1  C2  UNL     1      26.948   1.919  51.971  1.00  0.00     0.104 C 
HETATM    2  C3  UNL     1      26.112   0.834  51.767  1.00  0.00     0.049 C 
HETATM    3  C4  UNL     1      26.107  -0.080  52.911  1.00  0.00    -0.025 C 
HETATM    4  C5  UNL     1      25.224  -0.497  53.796  1.00  0.00     0.034 C 
HETATM    5  C12 UNL     1      25.741  -0.528  55.244  1.00  0.00     0.177 C 
HETATM    6  N2  UNL     1      26.689   0.654  55.307  1.00  0.00    -0.385 N 
HETATM    7  C13 UNL     1      27.355   0.958  54.074  1.00  0.00     0.046 C 
HETATM    8  C14 UNL     1      27.671   2.008  53.317  1.00  0.00     0.124 C 
HETATM    9  C16 UNL     1      27.570  -0.433  53.329  1.00  0.00     0.100 C 
HETATM   10  H12 UNL     1      27.105   1.447  55.907  1.00  0.00     0.159 HD
ENDROOT
BRANCH   4  11
HETATM   11  N1  UNL     1      24.060  -0.708  52.963  1.00  0.00    -0.356 N 
HETATM   12  H5  UNL     1      24.382  -1.100  52.072  1.00  0.00     0.166 HD
BRANCH  11  13
HETATM   13  C6  UNL     1      22.711  -0.440  53.248  1.00  0.00     0.054 A 
HETATM   14  C7  UNL     1      21.996  -1.506  53.760  1.00  0.00     0.031 A 
HETATM   15  C8  UNL     1      20.667  -1.359  54.076  1.00  0.00     0.002 A 
HETATM   16  C9  UNL     1      19.991  -0.170  53.903  1.00  0.00     0.002 A 
HETATM   17  C10 UNL     1      20.679   0.894  53.399  1.00  0.00     0.026 A 
HETATM   18  C11 UNL     1      21.999   0.723  53.093  1.00  0.00     0.060 A 
HETATM   19 CL1  UNL     1      22.871   2.092  52.445  1.00  0.00    -0.082 Cl
ENDBRANCH  11  13
ENDBRANCH   4  11
BRANCH   1  20
HETATM   20  O1  UNL     1      27.221   2.937  51.123  1.00  0.00    -0.353 OA
HETATM   21  C1  UNL     1      26.362   3.169  50.008  1.00  0.00     0.210 C 
ENDBRANCH   1  20
BRANCH   8  22
HETATM   22  O2  UNL     1      28.513   2.725  54.099  1.00  0.00    -0.351 OA
HETATM   23  C15 UNL     1      29.753   2.141  54.454  1.00  0.00     0.210 C 
ENDBRANCH   8  22
TORSDOF 4
ENDMDL
MODEL 2
REMARK VINA RESULT:      -7.4      3.148      6.526
REMARK  4 active torsions:
REMARK  status: ('A' for Active; 'I' for Inactive)
REMARK    1  A    between atoms: O1_2  and  C2_3 
REMARK    2  A    between atoms: C5_6  and  N1_7 
REMARK    3  A    between atoms: N1_7  and  C6_8 
REMARK    4  A    between atoms: C14_18  and  O2_19 
ROOT
HETATM    1  C2  UNL     1      21.504   0.045  53.622  1.00  0.00     0.104 C 
HETATM    2  C3  UNL     1      22.767  -0.487  53.426  1.00  0.00     0.049 C 
HETATM    3  C4  UNL     1      23.654   0.442  52.725  1.00  0.00    -0.025 C 
HETATM    4  C5  UNL     1      24.770   1.088  53.000  1.00  0.00     0.034 C 
HETATM    5  C12 UNL     1      24.776   2.561  52.561  1.00  0.00     0.177 C 
HETATM    6  N2  UNL     1      23.335   2.994  52.755  1.00  0.00    -0.385 N 
HETATM    7  C13 UNL     1      22.364   1.957  52.563  1.00  0.00     0.046 C 
HETATM    8  C14 UNL     1      21.260   1.475  53.132  1.00  0.00     0.124 C 
HETATM    9  C16 UNL     1      22.956   0.994  51.442  1.00  0.00     0.100 C 
HETATM   10  H12 UNL     1      22.659   3.792  53.015  1.00  0.00     0.159 HD
ENDROOT
BRANCH   4  11
HETATM   11  N1  UNL     1      25.532   0.066  53.686  1.00  0.00    -0.356 N 
HETATM   12  H5  UNL     1      24.870  -0.517  54.208  1.00  0.00     0.166 HD
BRANCH  11  13
HETATM   13  C6  UNL     1      26.920  -0.144  53.691  1.00  0.00     0.054 A 
HETATM   14  C7  UNL     1      27.653   0.792  54.396  1.00  0.00     0.031 A 
HETATM   15  C8  UNL     1      29.021   0.687  54.470  1.00  0.00     0.002 A 
HETATM   16  C9  UNL     1      29.720  -0.333  53.859  1.00  0.00     0.002 A 
HETATM   17  C10 UNL     1      29.015  -1.267  53.159  1.00  0.00     0.026 A 
HETATM   18  C11 UNL     1      27.656  -1.140  53.101  1.00  0.00     0.060 A 
HETATM   19 CL1  UNL     1      26.762  -2.340  52.198  1.00  0.00    -0.082 Cl
ENDBRANCH  11  13
ENDBRANCH   4  11
BRANCH   1  20
HETATM   20  O1  UNL     1      20.429  -0.537  54.201  1.00  0.00    -0.353 OA
HETATM   21  C1  UNL     1      19.305  -0.889  53.396  1.00  0.00     0.210 C 
ENDBRANCH   1  20
BRANCH   8  22
HETATM   22  O2  UNL     1      20.377   2.498  53.036  1.00  0.00    -0.351 OA
HETATM   23  C15 UNL     1      19.569   2.574  51.876  1.00  0.00     0.210 C 
ENDBRANCH   8  22
TORSDOF 4
ENDMDL
MODEL 3
REMARK VINA RESULT:      -7.4      1.928      2.575
REMARK  4 active torsions:
REMARK  status: ('A' for Active; 'I' for Inactive)
REMARK    1  A    between atoms: O1_2  and  C2_3 
REMARK    2  A    between atoms: C5_6  and  N1_7 
REMARK    3  A    between atoms: N1_7  and  C6_8 
REMARK    4  A    between atoms: C14_18  and  O2_19 
ROOT
HETATM    1  C2  UNL     1      27.199   1.281  52.799  1.00  0.00     0.104 C 
HETATM    2  C3  UNL     1      25.917   1.280  52.275  1.00  0.00     0.049 C 
HETATM    3  C4  UNL     1      25.117   0.162  52.779  1.00  0.00    -0.025 C 
HETATM    4  C5  UNL     1      24.030   0.020  53.510  1.00  0.00     0.034 C 
HETATM    5  C12 UNL     1      24.129  -1.070  54.590  1.00  0.00     0.177 C 
HETATM    6  N2  UNL     1      25.583  -1.011  55.020  1.00  0.00    -0.385 N 
HETATM    7  C13 UNL     1      26.499  -0.618  53.990  1.00  0.00     0.046 C 
HETATM    8  C14 UNL     1      27.547   0.185  53.809  1.00  0.00     0.124 C 
HETATM    9  C16 UNL     1      25.903  -1.178  52.625  1.00  0.00     0.100 C 
HETATM   10  H12 UNL     1      26.292  -1.120  55.825  1.00  0.00     0.159 HD
ENDROOT
BRANCH   4  11
HETATM   11  N1  UNL     1      23.180   1.058  52.968  1.00  0.00    -0.356 N 
HETATM   12  H5  UNL     1      23.606   1.961  53.200  1.00  0.00     0.166 HD
BRANCH  11  13
HETATM   13  C6  UNL     1      21.978   0.930  52.254  1.00  0.00     0.054 A 
HETATM   14  C7  UNL     1      22.078   1.133  50.891  1.00  0.00     0.031 A 
HETATM   15  C8  UNL     1      20.965   1.034  50.092  1.00  0.00     0.002 A 
HETATM   16  C9  UNL     1      19.717   0.733  50.595  1.00  0.00     0.002 A 
HETATM   17  C10 UNL     1      19.596   0.528  51.938  1.00  0.00     0.026 A 
HETATM   18  C11 UNL     1      20.718   0.633  52.710  1.00  0.00     0.060 A 
HETATM   19 CL1  UNL     1      20.552   0.373  54.430  1.00  0.00    -0.082 Cl
ENDBRANCH  11  13
ENDBRANCH   4  11
BRANCH   1  20
HETATM   20  O1  UNL     1      28.211   2.139  52.536  1.00  0.00    -0.353 OA
HETATM   21  C1  UNL     1      28.980   2.667  53.615  1.00  0.00     0.210 C 
ENDBRANCH   1  20
BRANCH   8  22
HETATM   22  O2  UNL     1      28.491  -0.330  54.633  1.00  0.00    -0.351 OA
HETATM   23  C15 UNL     1      29.612  -0.966  54.047  1.00  0.00     0.210 C 
ENDBRANCH   8  22
TORSDOF 4
ENDMDL
MODEL 4
REMARK VINA RESULT:      -7.3      2.152      3.186
REMARK  4 active torsions:
REMARK  status: ('A' for Active; 'I' for Inactive)
REMARK    1  A    between atoms: O1_2  and  C2_3 
REMARK    2  A    between atoms: C5_6  and  N1_7 
REMARK    3  A    between atoms: N1_7  and  C6_8 
REMARK    4  A    between atoms: C14_18  and  O2_19 
ROOT
HETATM    1  C2  UNL     1      26.601   0.062  53.728  1.00  0.00     0.104 C 
HETATM    2  C3  UNL     1      25.228  -0.122  53.739  1.00  0.00     0.049 C 
HETATM    3  C4  UNL     1      24.518   0.996  53.117  1.00  0.00    -0.025 C 
HETATM    4  C5  UNL     1      23.750   1.170  52.060  1.00  0.00     0.034 C 
HETATM    5  C12 UNL     1      24.080   2.424  51.234  1.00  0.00     0.177 C 
HETATM    6  N2  UNL     1      25.585   2.549  51.367  1.00  0.00    -0.385 N 
HETATM    7  C13 UNL     1      26.123   2.068  52.605  1.00  0.00     0.046 C 
HETATM    8  C14 UNL     1      27.135   1.331  53.061  1.00  0.00     0.124 C 
HETATM    9  C16 UNL     1      25.014   2.351  53.712  1.00  0.00     0.100 C 
HETATM   10  H12 UNL     1      26.512   2.842  50.900  1.00  0.00     0.159 HD
ENDROOT
BRANCH   4  11
HETATM   11  N1  UNL     1      22.908  -0.006  52.120  1.00  0.00    -0.356 N 
HETATM   12  H5  UNL     1      23.514  -0.827  52.021  1.00  0.00     0.166 HD
BRANCH  11  13
HETATM   13  C6  UNL     1      21.515  -0.086  52.271  1.00  0.00     0.054 A 
HETATM   14  C7  UNL     1      20.779   0.429  51.221  1.00  0.00     0.031 A 
HETATM   15  C8  UNL     1      19.406   0.405  51.261  1.00  0.00     0.002 A 
HETATM   16  C9  UNL     1      18.704  -0.122  52.325  1.00  0.00     0.002 A 
HETATM   17  C10 UNL     1      19.412  -0.636  53.371  1.00  0.00     0.026 A 
HETATM   18  C11 UNL     1      20.776  -0.599  53.307  1.00  0.00     0.060 A 
HETATM   19 CL1  UNL     1      21.673  -1.257  54.655  1.00  0.00    -0.082 Cl
ENDBRANCH  11  13
ENDBRANCH   4  11
BRANCH   1  20
HETATM   20  O1  UNL     1      27.558  -0.745  54.239  1.00  0.00    -0.353 OA
HETATM   21  C1  UNL     1      28.542  -1.302  53.369  1.00  0.00     0.210 C 
ENDBRANCH   1  20
BRANCH   8  22
HETATM   22  O2  UNL     1      28.233   2.045  52.712  1.00  0.00    -0.351 OA
HETATM   23  C15 UNL     1      29.102   2.476  53.743  1.00  0.00     0.210 C 
ENDBRANCH   8  22
TORSDOF 4
ENDMDL
MODEL 5
REMARK VINA RESULT:      -7.2      3.030      6.098
REMARK  4 active torsions:
REMARK  status: ('A' for Active; 'I' for Inactive)
REMARK    1  A    between atoms: O1_2  and  C2_3 
REMARK    2  A    between atoms: C5_6  and  N1_7 
REMARK    3  A    between atoms: N1_7  and  C6_8 
REMARK    4  A    between atoms: C14_18  and  O2_19 
ROOT
HETATM    1  C2  UNL     1      22.803   1.826  50.423  1.00  0.00     0.104 C 
HETATM    2  C3  UNL     1      24.039   1.977  51.029  1.00  0.00     0.049 C 
HETATM    3  C4  UNL     1      24.103   1.301  52.326  1.00  0.00    -0.025 C 
HETATM    4  C5  UNL     1      24.787   0.304  52.849  1.00  0.00     0.034 C 
HETATM    5  C12 UNL     1      23.943  -0.681  53.675  1.00  0.00     0.177 C 
HETATM    6  N2  UNL     1      22.610  -0.697  52.952  1.00  0.00    -0.385 N 
HETATM    7  C13 UNL     1      22.260   0.535  52.308  1.00  0.00     0.046 C 
HETATM    8  C14 UNL     1      21.760   0.978  51.155  1.00  0.00     0.124 C 
HETATM    9  C16 UNL     1      22.875   1.698  53.205  1.00  0.00     0.100 C 
HETATM   10  H12 UNL     1      21.745  -1.273  52.664  1.00  0.00     0.159 HD
ENDROOT
BRANCH   4  11
HETATM   11  N1  UNL     1      26.115   0.567  52.339  1.00  0.00    -0.356 N 
HETATM   12  H5  UNL     1      26.021   1.190  51.531  1.00  0.00     0.166 HD
BRANCH  11  13
HETATM   13  C6  UNL     1      27.350   0.085  52.803  1.00  0.00     0.054 A 
HETATM   14  C7  UNL     1      27.507  -1.287  52.740  1.00  0.00     0.031 A 
HETATM   15  C8  UNL     1      28.675  -1.870  53.168  1.00  0.00     0.002 A 
HETATM   16  C9  UNL     1      29.729  -1.137  53.672  1.00  0.00     0.002 A 
HETATM   17  C10 UNL     1      29.593   0.219  53.742  1.00  0.00     0.026 A 
HETATM   18  C11 UNL     1      28.423   0.774  53.311  1.00  0.00     0.060 A 
HETATM   19 CL1  UNL     1      28.258   2.511  53.409  1.00  0.00    -0.082 Cl
ENDBRANCH  11  13
ENDBRANCH   4  11
BRANCH   1  20
HETATM   20  O1  UNL     1      22.379   2.336  49.245  1.00  0.00    -0.353 OA
HETATM   21  C1  UNL     1      21.882   1.454  48.239  1.00  0.00     0.210 C 
ENDBRANCH   1  20
BRANCH   8  22
HETATM   22  O2  UNL     1      20.510   0.457  51.127  1.00  0.00    -0.351 OA
HETATM   23  C15 UNL     1      19.419   1.331  51.353  1.00  0.00     0.210 C 
ENDBRANCH   8  22
TORSDOF 4
ENDMDL
MODEL 6
REMARK VINA RESULT:      -7.1      1.913      2.542
REMARK  4 active torsions:
REMARK  status: ('A' for Active; 'I' for Inactive)
REMARK    1  A    between atoms: O1_2  and  C2_3 
REMARK    2  A    between atoms: C5_6  and  N1_7 
REMARK    3  A    between atoms: N1_7  and  C6_8 
REMARK    4  A    between atoms: C14_18  and  O2_19 
ROOT
HETATM    1  C2  UNL     1      25.678   1.302  53.490  1.00  0.00     0.104 C 
HETATM    2  C3  UNL     1      24.382   1.126  53.033  1.00  0.00     0.049 C 
HETATM    3  C4  UNL     1      23.790  -0.120  53.523  1.00  0.00    -0.025 C 
HETATM    4  C5  UNL     1      22.780  -0.456  54.301  1.00  0.00     0.034 C 
HETATM    5  C12 UNL     1      23.105  -1.559  55.321  1.00  0.00     0.177 C 
HETATM    6  N2  UNL     1      24.555  -1.296  55.679  1.00  0.00    -0.385 N 
HETATM    7  C13 UNL     1      25.341  -0.727  54.623  1.00  0.00     0.046 C 
HETATM    8  C14 UNL     1      26.245   0.233  54.427  1.00  0.00     0.124 C 
HETATM    9  C16 UNL     1      24.757  -1.318  53.265  1.00  0.00     0.100 C 
HETATM   10  H12 UNL     1      25.318  -1.327  56.440  1.00  0.00     0.159 HD
ENDROOT
BRANCH   4  11
HETATM   11  N1  UNL     1      21.755   0.462  53.853  1.00  0.00    -0.356 N 
HETATM   12  H5  UNL     1      22.004   1.397  54.191  1.00  0.00     0.166 HD
BRANCH  11  13
HETATM   13  C6  UNL     1      20.599   0.193  53.102  1.00  0.00     0.054 A 
HETATM   14  C7  UNL     1      19.696  -0.666  53.699  1.00  0.00     0.031 A 
HETATM   15  C8  UNL     1      18.529  -1.001  53.056  1.00  0.00     0.002 A 
HETATM   16  C9  UNL     1      18.203  -0.509  51.810  1.00  0.00     0.002 A 
HETATM   17  C10 UNL     1      19.080   0.341  51.203  1.00  0.00     0.026 A 
HETATM   18  C11 UNL     1      20.233   0.658  51.864  1.00  0.00     0.060 A 
HETATM   19 CL1  UNL     1      21.353   1.745  51.076  1.00  0.00    -0.082 Cl
ENDBRANCH  11  13
ENDBRANCH   4  11
BRANCH   1  20
HETATM   20  O1  UNL     1      26.532   2.314  53.217  1.00  0.00    -0.353 OA
HETATM   21  C1  UNL     1      27.155   2.377  51.935  1.00  0.00     0.210 C 
ENDBRANCH   1  20
BRANCH   8  22
HETATM   22  O2  UNL     1      27.301  -0.164  55.176  1.00  0.00    -0.351 OA
HETATM   23  C15 UNL     1      28.593  -0.078  54.604  1.00  0.00     0.210 C 
ENDBRANCH   8  22
TORSDOF 4
ENDMDL
MODEL 7
REMARK VINA RESULT:      -7.1      3.498      6.117
REMARK  4 active torsions:
REMARK  status: ('A' for Active; 'I' for Inactive)
REMARK    1  A    between atoms: O1_2  and  C2_3 
REMARK    2  A    between atoms: C5_6  and  N1_7 
REMARK    3  A    between atoms: N1_7  and  C6_8 
REMARK    4  A    between atoms: C14_18  and  O2_19 
ROOT
HETATM    1  C2  UNL     1      22.794   3.933  51.764  1.00  0.00     0.104 C 
HETATM    2  C3  UNL     1      23.465   2.738  51.961  1.00  0.00     0.049 C 
HETATM    3  C4  UNL     1      24.666   2.637  51.131  1.00  0.00    -0.025 C 
HETATM    4  C5  UNL     1      25.965   2.554  51.338  1.00  0.00     0.034 C 
HETATM    5  C12 UNL     1      26.812   3.459  50.427  1.00  0.00     0.177 C 
HETATM    6  N2  UNL     1      25.940   4.684  50.235  1.00  0.00    -0.385 N 
HETATM    7  C13 UNL     1      24.529   4.429  50.261  1.00  0.00     0.046 C 
HETATM    8  C14 UNL     1      23.411   4.933  50.782  1.00  0.00     0.124 C 
HETATM    9  C16 UNL     1      24.327   2.975  49.645  1.00  0.00     0.100 C 
HETATM   10  H12 UNL     1      25.901   5.753  50.097  1.00  0.00     0.159 HD
ENDROOT
BRANCH   4  11
HETATM   11  N1  UNL     1      26.021   1.621  52.442  1.00  0.00    -0.356 N 
HETATM   12  H5  UNL     1      25.164   1.736  52.991  1.00  0.00     0.166 HD
BRANCH  11  13
HETATM   13  C6  UNL     1      27.033   0.704  52.770  1.00  0.00     0.054 A 
HETATM   14  C7  UNL     1      26.735  -0.620  52.507  1.00  0.00     0.031 A 
HETATM   15  C8  UNL     1      27.650  -1.605  52.789  1.00  0.00     0.002 A 
HETATM   16  C9  UNL     1      28.887  -1.333  53.335  1.00  0.00     0.002 A 
HETATM   17  C10 UNL     1      29.201  -0.032  53.602  1.00  0.00     0.026 A 
HETATM   18  C11 UNL     1      28.273   0.927  53.313  1.00  0.00     0.060 A 
HETATM   19 CL1  UNL     1      28.684   2.590  53.662  1.00  0.00    -0.082 Cl
ENDBRANCH  11  13
ENDBRANCH   4  11
BRANCH   1  20
HETATM   20  O1  UNL     1      21.640   4.351  52.333  1.00  0.00    -0.353 OA
HETATM   21  C1  UNL     1      20.469   3.544  52.215  1.00  0.00     0.210 C 
ENDBRANCH   1  20
BRANCH   8  22
HETATM   22  O2  UNL     1      23.311   6.154  50.205  1.00  0.00    -0.351 OA
HETATM   23  C15 UNL     1      23.601   7.291  50.998  1.00  0.00     0.210 C 
ENDBRANCH   8  22
TORSDOF 4
ENDMDL
MODEL 8
REMARK VINA RESULT:      -7.0      3.359      6.779
REMARK  4 active torsions:
REMARK  status: ('A' for Active; 'I' for Inactive)
REMARK    1  A    between atoms: O1_2  and  C2_3 
REMARK    2  A    between atoms: C5_6  and  N1_7 
REMARK    3  A    between atoms: N1_7  and  C6_8 
REMARK    4  A    between atoms: C14_18  and  O2_19 
ROOT
HETATM    1  C2  UNL     1      19.926   0.227  51.637  1.00  0.00     0.104 C 
HETATM    2  C3  UNL     1      21.215   0.691  51.842  1.00  0.00     0.049 C 
HETATM    3  C4  UNL     1      21.719   0.346  53.172  1.00  0.00    -0.025 C 
HETATM    4  C5  UNL     1      22.693  -0.395  53.661  1.00  0.00     0.034 C 
HETATM    5  C12 UNL     1      22.283  -1.277  54.852  1.00  0.00     0.177 C 
HETATM    6  N2  UNL     1      20.847  -1.651  54.539  1.00  0.00    -0.385 N 
HETATM    7  C13 UNL     1      20.115  -0.663  53.801  1.00  0.00     0.046 C 
HETATM    8  C14 UNL     1      19.278  -0.573  52.769  1.00  0.00     0.124 C 
HETATM    9  C16 UNL     1      20.681   0.751  54.267  1.00  0.00     0.100 C 
HETATM   10  H12 UNL     1      20.072  -2.397  54.609  1.00  0.00     0.159 HD
ENDROOT
BRANCH   4  11
HETATM   11  N1  UNL     1      23.782  -0.066  52.766  1.00  0.00    -0.356 N 
HETATM   12  H5  UNL     1      23.428  -0.134  51.807  1.00  0.00     0.166 HD
BRANCH  11  13
HETATM   13  C6  UNL     1      25.106   0.281  53.080  1.00  0.00     0.054 A 
HETATM   14  C7  UNL     1      26.009  -0.764  53.056  1.00  0.00     0.031 A 
HETATM   15  C8  UNL     1      27.333  -0.542  53.346  1.00  0.00     0.002 A 
HETATM   16  C9  UNL     1      27.821   0.707  53.670  1.00  0.00     0.002 A 
HETATM   17  C10 UNL     1      26.946   1.752  53.698  1.00  0.00     0.026 A 
HETATM   18  C11 UNL     1      25.635   1.504  53.406  1.00  0.00     0.060 A 
HETATM   19 CL1  UNL     1      24.521   2.850  53.449  1.00  0.00    -0.082 Cl
ENDBRANCH  11  13
ENDBRANCH   4  11
BRANCH   1  20
HETATM   20  O1  UNL     1      19.142   0.387  50.547  1.00  0.00    -0.353 OA
HETATM   21  C1  UNL     1      18.372   1.581  50.407  1.00  0.00     0.210 C 
ENDBRANCH   1  20
BRANCH   8  22
HETATM   22  O2  UNL     1      18.187  -1.262  53.181  1.00  0.00    -0.351 OA
HETATM   23  C15 UNL     1      16.910  -0.741  52.860  1.00  0.00     0.210 C 
ENDBRANCH   8  22
TORSDOF 4
ENDMDL
MODEL 9
REMARK VINA RESULT:      -7.0      3.338      6.688
REMARK  4 active torsions:
REMARK  status: ('A' for Active; 'I' for Inactive)
REMARK    1  A    between atoms: O1_2  and  C2_3 
REMARK    2  A    between atoms: C5_6  and  N1_7 
REMARK    3  A    between atoms: N1_7  and  C6_8 
REMARK    4  A    between atoms: C14_18  and  O2_19 
ROOT
HETATM    1  C2  UNL     1      21.078   0.758  52.584  1.00  0.00     0.104 C 
HETATM    2  C3  UNL     1      22.313   0.288  52.170  1.00  0.00     0.049 C 
HETATM    3  C4  UNL     1      23.136   1.347  51.582  1.00  0.00    -0.025 C 
HETATM    4  C5  UNL     1      24.277   1.940  51.872  1.00  0.00     0.034 C 
HETATM    5  C12 UNL     1      24.252   3.470  51.730  1.00  0.00     0.177 C 
HETATM    6  N2  UNL     1      22.839   3.840  52.139  1.00  0.00    -0.385 N 
HETATM    7  C13 UNL     1      21.847   2.849  51.841  1.00  0.00     0.046 C 
HETATM    8  C14 UNL     1      20.798   2.253  52.407  1.00  0.00     0.124 C 
HETATM    9  C16 UNL     1      22.324   2.129  50.503  1.00  0.00     0.100 C 
HETATM   10  H12 UNL     1      22.196   4.565  52.612  1.00  0.00     0.159 HD
ENDROOT
BRANCH   4  11
HETATM   11  N1  UNL     1      25.093   0.813  52.271  1.00  0.00    -0.356 N 
HETATM   12  H5  UNL     1      24.528  -0.035  52.161  1.00  0.00     0.166 HD
BRANCH  11  13
HETATM   13  C6  UNL     1      26.416   0.806  52.741  1.00  0.00     0.054 A 
HETATM   14  C7  UNL     1      26.921   2.043  53.096  1.00  0.00     0.031 A 
HETATM   15  C8  UNL     1      28.206   2.157  53.569  1.00  0.00     0.002 A 
HETATM   16  C9  UNL     1      29.041   1.069  53.713  1.00  0.00     0.002 A 
HETATM   17  C10 UNL     1      28.562  -0.161  53.369  1.00  0.00     0.026 A 
HETATM   18  C11 UNL     1      27.282  -0.246  52.901  1.00  0.00     0.060 A 
HETATM   19 CL1  UNL     1      26.679  -1.827  52.459  1.00  0.00    -0.082 Cl
ENDBRANCH  11  13
ENDBRANCH   4  11
BRANCH   1  20
HETATM   20  O1  UNL     1      20.059   0.062  53.137  1.00  0.00    -0.353 OA
HETATM   21  C1  UNL     1      18.872  -0.165  52.378  1.00  0.00     0.210 C 
ENDBRANCH   1  20
BRANCH   8  22
HETATM   22  O2  UNL     1      19.918   3.265  52.595  1.00  0.00    -0.351 OA
HETATM   23  C15 UNL     1      19.016   3.568  51.546  1.00  0.00     0.210 C 
ENDBRANCH   8  22
TORSDOF 4
ENDMDL
