MODEL 1
REMARK VINA RESULT:      -7.4      0.000      0.000
REMARK  7 active torsions:
REMARK  status: ('A' for Active; 'I' for Inactive)
REMARK    1  A    between atoms: N1_4  and  C3_5 
REMARK    2  A    between atoms: C7_10  and  S2_11 
REMARK    3  A    between atoms: S2_11  and  N2_12 
REMARK       I    between atoms: N2_12  and  C8_13 
REMARK    4  A    between atoms: C8_13  and  C9_15 
REMARK    5  A    between atoms: C9_15  and  C10_16 
REMARK    6  A    between atoms: C10_16  and  C11_17 
REMARK    7  A    between atoms: C13_19  and  O3_20 
ROOT
HETATM    1  N2  UNL     1      24.473   4.198  51.990  1.00  0.00    -0.296 N 
HETATM    2  C8  UNL     1      24.614   4.689  50.664  1.00  0.00     0.228 C 
HETATM    3  O2  UNL     1      24.309   4.237  49.525  1.00  0.00    -0.273 OA
HETATM    4  H9  UNL     1      24.887   4.966  52.574  1.00  0.00     0.177 HD
ENDROOT
BRANCH   1   5
HETATM    5  S2  UNL     1      23.707   2.635  51.923  1.00  0.00    -0.011 SA
BRANCH   5   6
HETATM    6  C7  UNL     1      24.835   1.342  52.316  1.00  0.00     0.043 C 
HETATM    7  C2  UNL     1      24.250   0.376  53.284  1.00  0.00     0.031 C 
HETATM    8  C1  UNL     1      22.942   0.161  53.339  1.00  0.00     0.034 C 
HETATM    9  S1  UNL     1      25.296  -0.556  54.438  1.00  0.00    -0.010 SA
HETATM   10  N1  UNL     1      26.950  -0.164  53.884  1.00  0.00    -0.291 N 
HETATM   11  C4  UNL     1      26.821  -0.129  52.440  1.00  0.00     0.175 C 
HETATM   12  C5  UNL     1      26.058   1.044  51.957  1.00  0.00    -0.045 C 
HETATM   13  C6  UNL     1      26.644   2.022  51.012  1.00  0.00     0.046 C 
BRANCH  10  14
HETATM   14  C3  UNL     1      28.088   0.050  54.746  1.00  0.00     0.362 C 
HETATM   15  O1  UNL     1      28.416  -1.000  54.095  1.00  0.00    -0.283 OA
ENDBRANCH  10  14
ENDBRANCH   5   6
ENDBRANCH   1   5
BRANCH   2  16
HETATM   16  C9  UNL     1      25.202   5.972  50.155  1.00  0.00     0.108 C 
BRANCH  16  17
HETATM   17  C10 UNL     1      25.636   5.696  48.731  1.00  0.00     0.043 C 
BRANCH  17  18
HETATM   18  C11 UNL     1      27.006   6.180  48.446  1.00  0.00    -0.074 A 
HETATM   19  C12 UNL     1      27.966   5.277  48.527  1.00  0.00     0.060 A 
HETATM   20  C13 UNL     1      29.238   5.895  48.226  1.00  0.00     0.159 A 
HETATM   21  N3  UNL     1      29.380   7.105  47.937  1.00  0.00    -0.267 NA
HETATM   22  C15 UNL     1      28.388   8.118  47.838  1.00  0.00     0.156 A 
HETATM   23  C16 UNL     1      27.010   7.607  48.124  1.00  0.00     0.056 A 
BRANCH  20  24
HETATM   24  O3  UNL     1      30.412   5.132  48.246  1.00  0.00    -0.340 OA
HETATM   25  C14 UNL     1      31.638   5.595  48.772  1.00  0.00     0.211 C 
ENDBRANCH  20  24
ENDBRANCH  17  18
ENDBRANCH  16  17
ENDBRANCH   2  16
TORSDOF 7
ENDMDL
MODEL 2
REMARK VINA RESULT:      -7.3      1.082      1.604
REMARK  7 active torsions:
REMARK  status: ('A' for Active; 'I' for Inactive)
REMARK    1  A    between atoms: N1_4  and  C3_5 
REMARK    2  A    between atoms: C7_10  and  S2_11 
REMARK    3  A    between atoms: S2_11  and  N2_12 
REMARK       I    between atoms: N2_12  and  C8_13 
REMARK    4  A    between atoms: C8_13  and  C9_15 
REMARK    5  A    between atoms: C9_15  and  C10_16 
REMARK    6  A    between atoms: C10_16  and  C11_17 
REMARK    7  A    between atoms: C13_19  and  O3_20 
ROOT
HETATM    1  N2  UNL     1      24.319   4.115  52.117  1.00  0.00    -0.296 N 
HETATM    2  C8  UNL     1      24.348   4.700  50.822  1.00  0.00     0.228 C 
HETATM    3  O2  UNL     1      24.007   4.302  49.673  1.00  0.00    -0.273 OA
HETATM    4  H9  UNL     1      24.714   4.871  52.729  1.00  0.00     0.177 HD
ENDROOT
BRANCH   1   5
HETATM    5  S2  UNL     1      23.657   2.509  51.984  1.00  0.00    -0.011 SA
BRANCH   5   6
HETATM    6  C7  UNL     1      24.862   1.278  52.349  1.00  0.00     0.043 C 
HETATM    7  C2  UNL     1      24.341   0.262  53.301  1.00  0.00     0.031 C 
HETATM    8  C1  UNL     1      23.049  -0.032  53.357  1.00  0.00     0.034 C 
HETATM    9  S1  UNL     1      25.446  -0.627  54.433  1.00  0.00    -0.010 SA
HETATM   10  N1  UNL     1      27.071  -0.126  53.881  1.00  0.00    -0.291 N 
HETATM   11  C4  UNL     1      26.933  -0.073  52.438  1.00  0.00     0.175 C 
HETATM   12  C5  UNL     1      26.099   1.061  51.980  1.00  0.00    -0.045 C 
HETATM   13  C6  UNL     1      26.621   2.089  51.051  1.00  0.00     0.046 C 
BRANCH  10  14
HETATM   14  C3  UNL     1      28.198   0.139  54.742  1.00  0.00     0.362 C 
HETATM   15  O1  UNL     1      28.506  -0.980  54.206  1.00  0.00    -0.283 OA
ENDBRANCH  10  14
ENDBRANCH   5   6
ENDBRANCH   1   5
BRANCH   2  16
HETATM   16  C9  UNL     1      24.816   6.052  50.372  1.00  0.00     0.108 C 
BRANCH  16  17
HETATM   17  C10 UNL     1      25.258   5.882  48.934  1.00  0.00     0.043 C 
BRANCH  17  18
HETATM   18  C11 UNL     1      26.674   6.261  48.720  1.00  0.00    -0.074 A 
HETATM   19  C12 UNL     1      26.927   7.556  48.697  1.00  0.00     0.060 A 
HETATM   20  C13 UNL     1      28.341   7.769  48.480  1.00  0.00     0.159 A 
HETATM   21  N3  UNL     1      29.175   6.847  48.338  1.00  0.00    -0.267 NA
HETATM   22  C15 UNL     1      28.960   5.442  48.352  1.00  0.00     0.156 A 
HETATM   23  C16 UNL     1      27.525   5.080  48.575  1.00  0.00     0.056 A 
BRANCH  20  24
HETATM   24  O3  UNL     1      28.854   9.070  48.418  1.00  0.00    -0.340 OA
HETATM   25  C14 UNL     1      30.109   9.443  48.946  1.00  0.00     0.211 C 
ENDBRANCH  20  24
ENDBRANCH  17  18
ENDBRANCH  16  17
ENDBRANCH   2  16
TORSDOF 7
ENDMDL
MODEL 3
REMARK VINA RESULT:      -7.3      2.633      8.119
REMARK  7 active torsions:
REMARK  status: ('A' for Active; 'I' for Inactive)
REMARK    1  A    between atoms: N1_4  and  C3_5 
REMARK    2  A    between atoms: C7_10  and  S2_11 
REMARK    3  A    between atoms: S2_11  and  N2_12 
REMARK       I    between atoms: N2_12  and  C8_13 
REMARK    4  A    between atoms: C8_13  and  C9_15 
REMARK    5  A    between atoms: C9_15  and  C10_16 
REMARK    6  A    between atoms: C10_16  and  C11_17 
REMARK    7  A    between atoms: C13_19  and  O3_20 
ROOT
HETATM    1  N2  UNL     1      25.999   4.268  50.746  1.00  0.00    -0.296 N 
HETATM    2  C8  UNL     1      24.798   3.514  50.666  1.00  0.00     0.228 C 
HETATM    3  O2  UNL     1      24.221   2.881  49.737  1.00  0.00    -0.273 OA
HETATM    4  H9  UNL     1      26.018   4.579  51.749  1.00  0.00     0.177 HD
ENDROOT
BRANCH   1   5
HETATM    5  S2  UNL     1      26.765   4.259  49.182  1.00  0.00    -0.011 SA
BRANCH   5   6
HETATM    6  C7  UNL     1      26.941   5.888  48.536  1.00  0.00     0.043 C 
HETATM    7  C2  UNL     1      28.370   6.255  48.350  1.00  0.00     0.031 C 
HETATM    8  C1  UNL     1      29.292   5.335  48.100  1.00  0.00     0.034 C 
HETATM    9  S1  UNL     1      28.923   7.980  48.456  1.00  0.00    -0.010 SA
HETATM   10  N1  UNL     1      27.386   8.888  48.559  1.00  0.00    -0.291 N 
HETATM   11  C4  UNL     1      26.507   8.162  47.662  1.00  0.00     0.175 C 
HETATM   12  C5  UNL     1      26.109   6.838  48.192  1.00  0.00    -0.045 C 
HETATM   13  C6  UNL     1      24.689   6.476  48.403  1.00  0.00     0.046 C 
BRANCH  10  14
HETATM   14  C3  UNL     1      27.164  10.060  49.371  1.00  0.00     0.362 C 
HETATM   15  O1  UNL     1      27.951   9.357  50.093  1.00  0.00    -0.283 OA
ENDBRANCH  10  14
ENDBRANCH   5   6
ENDBRANCH   1   5
BRANCH   2  16
HETATM   16  C9  UNL     1      23.767   3.204  51.711  1.00  0.00     0.108 C 
BRANCH  16  17
HETATM   17  C10 UNL     1      24.514   3.137  53.026  1.00  0.00     0.043 C 
BRANCH  17  18
HETATM   18  C11 UNL     1      24.859   1.752  53.419  1.00  0.00    -0.074 A 
HETATM   19  C12 UNL     1      26.020   1.597  54.028  1.00  0.00     0.060 A 
HETATM   20  C13 UNL     1      26.218   0.201  54.346  1.00  0.00     0.159 A 
HETATM   21  N3  UNL     1      25.397  -0.704  54.072  1.00  0.00    -0.267 NA
HETATM   22  C15 UNL     1      24.139  -0.596  53.419  1.00  0.00     0.156 A 
HETATM   23  C16 UNL     1      23.806   0.811  53.036  1.00  0.00     0.056 A 
BRANCH  20  24
HETATM   24  O3  UNL     1      27.384  -0.213  54.999  1.00  0.00    -0.340 OA
HETATM   25  C14 UNL     1      28.687   0.089  54.543  1.00  0.00     0.211 C 
ENDBRANCH  20  24
ENDBRANCH  17  18
ENDBRANCH  16  17
ENDBRANCH   2  16
TORSDOF 7
ENDMDL
MODEL 4
REMARK VINA RESULT:      -6.9      2.399      2.974
REMARK  7 active torsions:
REMARK  status: ('A' for Active; 'I' for Inactive)
REMARK    1  A    between atoms: N1_4  and  C3_5 
REMARK    2  A    between atoms: C7_10  and  S2_11 
REMARK    3  A    between atoms: S2_11  and  N2_12 
REMARK       I    between atoms: N2_12  and  C8_13 
REMARK    4  A    between atoms: C8_13  and  C9_15 
REMARK    5  A    between atoms: C9_15  and  C10_16 
REMARK    6  A    between atoms: C10_16  and  C11_17 
REMARK    7  A    between atoms: C13_19  and  O3_20 
ROOT
HETATM    1  N2  UNL     1      26.179   3.212  51.177  1.00  0.00    -0.296 N 
HETATM    2  C8  UNL     1      26.131   3.971  49.977  1.00  0.00     0.228 C 
HETATM    3  O2  UNL     1      25.223   4.625  49.391  1.00  0.00    -0.273 OA
HETATM    4  H9  UNL     1      27.175   2.878  51.207  1.00  0.00     0.177 HD
ENDROOT
BRANCH   1   5
HETATM    5  S2  UNL     1      24.606   3.254  51.924  1.00  0.00    -0.011 SA
BRANCH   5   6
HETATM    6  C7  UNL     1      24.027   1.636  52.307  1.00  0.00     0.043 C 
HETATM    7  C2  UNL     1      22.824   1.278  51.509  1.00  0.00     0.031 C 
HETATM    8  C1  UNL     1      22.617   1.794  50.305  1.00  0.00     0.034 C 
HETATM    9  S1  UNL     1      21.579   0.120  52.144  1.00  0.00    -0.010 SA
HETATM   10  N1  UNL     1      22.338  -0.504  53.638  1.00  0.00    -0.291 N 
HETATM   11  C4  UNL     1      23.739  -0.622  53.279  1.00  0.00     0.175 C 
HETATM   12  C5  UNL     1      24.407   0.690  53.128  1.00  0.00    -0.045 C 
HETATM   13  C6  UNL     1      25.591   1.061  53.938  1.00  0.00     0.046 C 
BRANCH  10  14
HETATM   14  C3  UNL     1      21.640  -0.795  54.867  1.00  0.00     0.362 C 
HETATM   15  O1  UNL     1      21.566  -1.900  54.228  1.00  0.00    -0.283 OA
ENDBRANCH  10  14
ENDBRANCH   5   6
ENDBRANCH   1   5
BRANCH   2  16
HETATM   16  C9  UNL     1      27.194   4.259  48.960  1.00  0.00     0.108 C 
BRANCH  16  17
HETATM   17  C10 UNL     1      27.028   5.717  48.585  1.00  0.00     0.043 C 
BRANCH  17  18
HETATM   18  C11 UNL     1      28.297   6.345  48.151  1.00  0.00    -0.074 A 
HETATM   19  C12 UNL     1      29.358   5.560  48.145  1.00  0.00     0.060 A 
HETATM   20  C13 UNL     1      30.513   6.309  47.704  1.00  0.00     0.159 A 
HETATM   21  N3  UNL     1      30.483   7.519  47.383  1.00  0.00    -0.267 NA
HETATM   22  C15 UNL     1      29.376   8.410  47.372  1.00  0.00     0.156 A 
HETATM   23  C16 UNL     1      28.103   7.755  47.808  1.00  0.00     0.056 A 
BRANCH  20  24
HETATM   24  O3  UNL     1      31.762   5.686  47.613  1.00  0.00    -0.340 OA
HETATM   25  C14 UNL     1      31.944   4.356  47.174  1.00  0.00     0.211 C 
ENDBRANCH  20  24
ENDBRANCH  17  18
ENDBRANCH  16  17
ENDBRANCH   2  16
TORSDOF 7
ENDMDL
MODEL 5
REMARK VINA RESULT:      -6.8      2.604      8.448
REMARK  7 active torsions:
REMARK  status: ('A' for Active; 'I' for Inactive)
REMARK    1  A    between atoms: N1_4  and  C3_5 
REMARK    2  A    between atoms: C7_10  and  S2_11 
REMARK    3  A    between atoms: S2_11  and  N2_12 
REMARK       I    between atoms: N2_12  and  C8_13 
REMARK    4  A    between atoms: C8_13  and  C9_15 
REMARK    5  A    between atoms: C9_15  and  C10_16 
REMARK    6  A    between atoms: C10_16  and  C11_17 
REMARK    7  A    between atoms: C13_19  and  O3_20 
ROOT
HETATM    1  N2  UNL     1      25.203   4.674  50.844  1.00  0.00    -0.296 N 
HETATM    2  C8  UNL     1      24.136   3.773  51.107  1.00  0.00     0.228 C 
HETATM    3  O2  UNL     1      23.077   3.465  50.492  1.00  0.00    -0.273 OA
HETATM    4  H9  UNL     1      25.834   4.545  51.673  1.00  0.00     0.177 HD
ENDROOT
BRANCH   1   5
HETATM    5  S2  UNL     1      24.891   5.474  49.328  1.00  0.00    -0.011 SA
BRANCH   5   6
HETATM    6  C7  UNL     1      26.225   6.525  48.863  1.00  0.00     0.043 C 
HETATM    7  C2  UNL     1      25.817   7.955  48.839  1.00  0.00     0.031 C 
HETATM    8  C1  UNL     1      24.852   8.410  49.627  1.00  0.00     0.034 C 
HETATM    9  S1  UNL     1      26.618   9.148  47.731  1.00  0.00    -0.010 SA
HETATM   10  N1  UNL     1      27.976   8.207  47.046  1.00  0.00    -0.291 N 
HETATM   11  C4  UNL     1      28.430   7.407  48.167  1.00  0.00     0.175 C 
HETATM   12  C5  UNL     1      27.477   6.335  48.532  1.00  0.00    -0.045 C 
HETATM   13  C6  UNL     1      27.871   4.907  48.534  1.00  0.00     0.046 C 
BRANCH  10  14
HETATM   14  C3  UNL     1      28.443   8.292  45.683  1.00  0.00     0.362 C 
HETATM   15  O1  UNL     1      27.585   9.237  45.750  1.00  0.00    -0.283 OA
ENDBRANCH  10  14
ENDBRANCH   5   6
ENDBRANCH   1   5
BRANCH   2  16
HETATM   16  C9  UNL     1      23.904   2.845  52.263  1.00  0.00     0.108 C 
BRANCH  16  17
HETATM   17  C10 UNL     1      24.488   1.511  51.850  1.00  0.00     0.043 C 
BRANCH  17  18
HETATM   18  C11 UNL     1      24.852   0.661  53.007  1.00  0.00    -0.074 A 
HETATM   19  C12 UNL     1      26.111   0.726  53.397  1.00  0.00     0.060 A 
HETATM   20  C13 UNL     1      26.313  -0.153  54.527  1.00  0.00     0.159 A 
HETATM   21  N3  UNL     1      25.413  -0.860  55.036  1.00  0.00    -0.267 NA
HETATM   22  C15 UNL     1      24.048  -0.971  54.657  1.00  0.00     0.156 A 
HETATM   23  C16 UNL     1      23.700  -0.100  53.491  1.00  0.00     0.056 A 
BRANCH  20  24
HETATM   24  O3  UNL     1      27.576  -0.255  55.121  1.00  0.00    -0.340 OA
HETATM   25  C14 UNL     1      28.780   0.084  54.465  1.00  0.00     0.211 C 
ENDBRANCH  20  24
ENDBRANCH  17  18
ENDBRANCH  16  17
ENDBRANCH   2  16
TORSDOF 7
ENDMDL
MODEL 6
REMARK VINA RESULT:      -6.7      3.045      3.870
REMARK  7 active torsions:
REMARK  status: ('A' for Active; 'I' for Inactive)
REMARK    1  A    between atoms: N1_4  and  C3_5 
REMARK    2  A    between atoms: C7_10  and  S2_11 
REMARK    3  A    between atoms: S2_11  and  N2_12 
REMARK       I    between atoms: N2_12  and  C8_13 
REMARK    4  A    between atoms: C8_13  and  C9_15 
REMARK    5  A    between atoms: C9_15  and  C10_16 
REMARK    6  A    between atoms: C10_16  and  C11_17 
REMARK    7  A    between atoms: C13_19  and  O3_20 
ROOT
HETATM    1  N2  UNL     1      24.863   6.419  51.156  1.00  0.00    -0.296 N 
HETATM    2  C8  UNL     1      25.401   7.044  50.000  1.00  0.00     0.228 C 
HETATM    3  O2  UNL     1      25.449   6.731  48.777  1.00  0.00    -0.273 OA
HETATM    4  H9  UNL     1      25.089   7.101  51.923  1.00  0.00     0.177 HD
ENDROOT
BRANCH   1   5
HETATM    5  S2  UNL     1      24.139   4.907  50.683  1.00  0.00    -0.011 SA
BRANCH   5   6
HETATM    6  C7  UNL     1      25.111   3.533  51.198  1.00  0.00     0.043 C 
HETATM    7  C2  UNL     1      24.582   2.920  52.446  1.00  0.00     0.031 C 
HETATM    8  C1  UNL     1      23.292   2.975  52.748  1.00  0.00     0.034 C 
HETATM    9  S1  UNL     1      25.674   2.066  53.616  1.00  0.00    -0.010 SA
HETATM   10  N1  UNL     1      27.233   2.010  52.741  1.00  0.00    -0.291 N 
HETATM   11  C4  UNL     1      26.837   1.767  51.367  1.00  0.00     0.175 C 
HETATM   12  C5  UNL     1      26.184   2.938  50.740  1.00  0.00    -0.045 C 
HETATM   13  C6  UNL     1      26.720   3.568  49.511  1.00  0.00     0.046 C 
BRANCH  10  14
HETATM   14  C3  UNL     1      28.533   2.177  53.344  1.00  0.00     0.362 C 
HETATM   15  O1  UNL     1      27.750   2.715  54.200  1.00  0.00    -0.283 OA
ENDBRANCH  10  14
ENDBRANCH   5   6
ENDBRANCH   1   5
BRANCH   2  16
HETATM   16  C9  UNL     1      26.126   8.348  49.842  1.00  0.00     0.108 C 
BRANCH  16  17
HETATM   17  C10 UNL     1      27.445   8.014  49.177  1.00  0.00     0.043 C 
BRANCH  17  18
HETATM   18  C11 UNL     1      28.360   9.175  49.103  1.00  0.00    -0.074 A 
HETATM   19  C12 UNL     1      27.800  10.362  49.250  1.00  0.00     0.060 A 
HETATM   20  C13 UNL     1      28.812  11.390  49.152  1.00  0.00     0.159 A 
HETATM   21  N3  UNL     1      30.027  11.162  48.957  1.00  0.00    -0.267 NA
HETATM   22  C15 UNL     1      30.682   9.912  48.790  1.00  0.00     0.156 A 
HETATM   23  C16 UNL     1      29.742   8.751  48.874  1.00  0.00     0.056 A 
BRANCH  20  24
HETATM   24  O3  UNL     1      28.458  12.738  49.278  1.00  0.00    -0.340 OA
HETATM   25  C14 UNL     1      27.650  13.426  48.346  1.00  0.00     0.211 C 
ENDBRANCH  20  24
ENDBRANCH  17  18
ENDBRANCH  16  17
ENDBRANCH   2  16
TORSDOF 7
ENDMDL
MODEL 7
REMARK VINA RESULT:      -6.6      2.147      3.042
REMARK  7 active torsions:
REMARK  status: ('A' for Active; 'I' for Inactive)
REMARK    1  A    between atoms: N1_4  and  C3_5 
REMARK    2  A    between atoms: C7_10  and  S2_11 
REMARK    3  A    between atoms: S2_11  and  N2_12 
REMARK       I    between atoms: N2_12  and  C8_13 
REMARK    4  A    between atoms: C8_13  and  C9_15 
REMARK    5  A    between atoms: C9_15  and  C10_16 
REMARK    6  A    between atoms: C10_16  and  C11_17 
REMARK    7  A    between atoms: C13_19  and  O3_20 
ROOT
HETATM    1  N2  UNL     1      22.605   2.107  50.256  1.00  0.00    -0.296 N 
HETATM    2  C8  UNL     1      22.628   3.506  50.006  1.00  0.00     0.228 C 
HETATM    3  O2  UNL     1      22.375   4.525  50.708  1.00  0.00    -0.273 OA
HETATM    4  H9  UNL     1      22.905   1.696  49.337  1.00  0.00     0.177 HD
ENDROOT
BRANCH   1   5
HETATM    5  S2  UNL     1      22.111   1.846  51.906  1.00  0.00    -0.011 SA
BRANCH   5   6
HETATM    6  C7  UNL     1      23.368   1.042  52.840  1.00  0.00     0.043 C 
HETATM    7  C2  UNL     1      24.522   1.944  53.102  1.00  0.00     0.031 C 
HETATM    8  C1  UNL     1      24.364   3.258  53.187  1.00  0.00     0.034 C 
HETATM    9  S1  UNL     1      26.201   1.292  53.319  1.00  0.00    -0.010 SA
HETATM   10  N1  UNL     1      25.940  -0.476  53.371  1.00  0.00    -0.291 N 
HETATM   11  C4  UNL     1      24.700  -0.611  54.112  1.00  0.00     0.175 C 
HETATM   12  C5  UNL     1      23.519  -0.156  53.345  1.00  0.00    -0.045 C 
HETATM   13  C6  UNL     1      22.378  -1.057  53.060  1.00  0.00     0.046 C 
BRANCH  10  14
HETATM   14  C3  UNL     1      26.814  -1.464  52.785  1.00  0.00     0.362 C 
HETATM   15  O1  UNL     1      27.360  -1.236  53.918  1.00  0.00    -0.283 OA
ENDBRANCH  10  14
ENDBRANCH   5   6
ENDBRANCH   1   5
BRANCH   2  16
HETATM   16  C9  UNL     1      22.978   4.271  48.765  1.00  0.00     0.108 C 
BRANCH  16  17
HETATM   17  C10 UNL     1      23.635   5.552  49.235  1.00  0.00     0.043 C 
BRANCH  17  18
HETATM   18  C11 UNL     1      25.088   5.588  48.953  1.00  0.00    -0.074 A 
HETATM   19  C12 UNL     1      25.548   6.712  48.436  1.00  0.00     0.060 A 
HETATM   20  C13 UNL     1      26.972   6.597  48.215  1.00  0.00     0.159 A 
HETATM   21  N3  UNL     1      27.643   5.573  48.482  1.00  0.00    -0.267 NA
HETATM   22  C15 UNL     1      27.202   4.340  49.034  1.00  0.00     0.156 A 
HETATM   23  C16 UNL     1      25.733   4.326  49.318  1.00  0.00     0.056 A 
BRANCH  20  24
HETATM   24  O3  UNL     1      27.688   7.669  47.672  1.00  0.00    -0.340 OA
HETATM   25  C14 UNL     1      27.196   8.496  46.638  1.00  0.00     0.211 C 
ENDBRANCH  20  24
ENDBRANCH  17  18
ENDBRANCH  16  17
ENDBRANCH   2  16
TORSDOF 7
ENDMDL
MODEL 8
REMARK VINA RESULT:      -6.4      3.111      7.484
REMARK  7 active torsions:
REMARK  status: ('A' for Active; 'I' for Inactive)
REMARK    1  A    between atoms: N1_4  and  C3_5 
REMARK    2  A    between atoms: C7_10  and  S2_11 
REMARK    3  A    between atoms: S2_11  and  N2_12 
REMARK       I    between atoms: N2_12  and  C8_13 
REMARK    4  A    between atoms: C8_13  and  C9_15 
REMARK    5  A    between atoms: C9_15  and  C10_16 
REMARK    6  A    between atoms: C10_16  and  C11_17 
REMARK    7  A    between atoms: C13_19  and  O3_20 
ROOT
HETATM    1  N2  UNL     1      21.386   3.222  50.972  1.00  0.00    -0.296 N 
HETATM    2  C8  UNL     1      21.758   1.891  50.642  1.00  0.00     0.228 C 
HETATM    3  O2  UNL     1      22.240   1.346  49.609  1.00  0.00    -0.273 OA
HETATM    4  H9  UNL     1      21.044   3.135  51.962  1.00  0.00     0.177 HD
ENDROOT
BRANCH   1   5
HETATM    5  S2  UNL     1      21.698   4.242  49.596  1.00  0.00    -0.011 SA
BRANCH   5   6
HETATM    6  C7  UNL     1      23.118   5.253  49.846  1.00  0.00     0.043 C 
HETATM    7  C2  UNL     1      22.745   6.657  50.165  1.00  0.00     0.031 C 
HETATM    8  C1  UNL     1      21.604   6.946  50.776  1.00  0.00     0.034 C 
HETATM    9  S1  UNL     1      23.833   8.044  49.735  1.00  0.00    -0.010 SA
HETATM   10  N1  UNL     1      25.319   7.227  49.169  1.00  0.00    -0.291 N 
HETATM   11  C4  UNL     1      25.437   6.089  50.061  1.00  0.00     0.175 C 
HETATM   12  C5  UNL     1      24.411   5.052  49.811  1.00  0.00    -0.045 C 
HETATM   13  C6  UNL     1      24.777   3.658  49.470  1.00  0.00     0.046 C 
BRANCH  10  14
HETATM   14  C3  UNL     1      26.146   7.668  48.072  1.00  0.00     0.362 C 
HETATM   15  O1  UNL     1      26.980   7.571  49.036  1.00  0.00    -0.283 OA
ENDBRANCH  10  14
ENDBRANCH   5   6
ENDBRANCH   1   5
BRANCH   2  16
HETATM   16  C9  UNL     1      21.699   0.630  51.453  1.00  0.00     0.108 C 
BRANCH  16  17
HETATM   17  C10 UNL     1      22.102   1.019  52.860  1.00  0.00     0.043 C 
BRANCH  17  18
HETATM   18  C11 UNL     1      23.563   0.927  53.083  1.00  0.00    -0.074 A 
HETATM   19  C12 UNL     1      24.047  -0.291  53.243  1.00  0.00     0.060 A 
HETATM   20  C13 UNL     1      25.476  -0.221  53.452  1.00  0.00     0.159 A 
HETATM   21  N3  UNL     1      26.130   0.846  53.475  1.00  0.00    -0.267 NA
HETATM   22  C15 UNL     1      25.664   2.179  53.312  1.00  0.00     0.156 A 
HETATM   23  C16 UNL     1      24.187   2.251  53.081  1.00  0.00     0.056 A 
BRANCH  20  24
HETATM   24  O3  UNL     1      26.215  -1.393  53.645  1.00  0.00    -0.340 OA
HETATM   25  C14 UNL     1      27.105  -1.924  52.686  1.00  0.00     0.211 C 
ENDBRANCH  20  24
ENDBRANCH  17  18
ENDBRANCH  16  17
ENDBRANCH   2  16
TORSDOF 7
ENDMDL
MODEL 9
REMARK VINA RESULT:      -6.3      2.823      4.024
REMARK  7 active torsions:
REMARK  status: ('A' for Active; 'I' for Inactive)
REMARK    1  A    between atoms: N1_4  and  C3_5 
REMARK    2  A    between atoms: C7_10  and  S2_11 
REMARK    3  A    between atoms: S2_11  and  N2_12 
REMARK       I    between atoms: N2_12  and  C8_13 
REMARK    4  A    between atoms: C8_13  and  C9_15 
REMARK    5  A    between atoms: C9_15  and  C10_16 
REMARK    6  A    between atoms: C10_16  and  C11_17 
REMARK    7  A    between atoms: C13_19  and  O3_20 
ROOT
HETATM    1  N2  UNL     1      26.401   4.724  49.920  1.00  0.00    -0.296 N 
HETATM    2  C8  UNL     1      27.403   5.099  48.985  1.00  0.00     0.228 C 
HETATM    3  O2  UNL     1      28.263   4.458  48.318  1.00  0.00    -0.273 OA
HETATM    4  H9  UNL     1      25.959   5.642  50.176  1.00  0.00     0.177 HD
ENDROOT
BRANCH   1   5
HETATM    5  S2  UNL     1      26.449   2.994  50.120  1.00  0.00    -0.011 SA
BRANCH   5   6
HETATM    6  C7  UNL     1      25.452   2.471  51.474  1.00  0.00     0.043 C 
HETATM    7  C2  UNL     1      26.272   1.881  52.566  1.00  0.00     0.031 C 
HETATM    8  C1  UNL     1      27.527   2.261  52.768  1.00  0.00     0.034 C 
HETATM    9  S1  UNL     1      25.598   0.614  53.675  1.00  0.00    -0.010 SA
HETATM   10  N1  UNL     1      23.867   0.571  53.229  1.00  0.00    -0.291 N 
HETATM   11  C4  UNL     1      23.551   1.964  52.975  1.00  0.00     0.175 C 
HETATM   12  C5  UNL     1      24.169   2.478  51.732  1.00  0.00    -0.045 C 
HETATM   13  C6  UNL     1      23.355   3.043  50.631  1.00  0.00     0.046 C 
BRANCH  10  14
HETATM   14  C3  UNL     1      23.053  -0.619  53.163  1.00  0.00     0.362 C 
HETATM   15  O1  UNL     1      22.343   0.174  53.871  1.00  0.00    -0.283 OA
ENDBRANCH  10  14
ENDBRANCH   5   6
ENDBRANCH   1   5
BRANCH   2  16
HETATM   16  C9  UNL     1      27.790   6.448  48.456  1.00  0.00     0.108 C 
BRANCH  16  17
HETATM   17  C10 UNL     1      29.266   6.360  48.128  1.00  0.00     0.043 C 
BRANCH  17  18
HETATM   18  C11 UNL     1      29.949   7.671  48.204  1.00  0.00    -0.074 A 
HETATM   19  C12 UNL     1      29.214   8.682  48.629  1.00  0.00     0.060 A 
HETATM   20  C13 UNL     1      30.012   9.887  48.648  1.00  0.00     0.159 A 
HETATM   21  N3  UNL     1      31.215   9.937  48.306  1.00  0.00    -0.267 NA
HETATM   22  C15 UNL     1      32.052   8.888  47.840  1.00  0.00     0.156 A 
HETATM   23  C16 UNL     1      31.345   7.570  47.776  1.00  0.00     0.056 A 
BRANCH  20  24
HETATM   24  O3  UNL     1      29.447  11.097  49.067  1.00  0.00    -0.340 OA
HETATM   25  C14 UNL     1      30.082  12.350  48.923  1.00  0.00     0.211 C 
ENDBRANCH  20  24
ENDBRANCH  17  18
ENDBRANCH  16  17
ENDBRANCH   2  16
TORSDOF 7
ENDMDL
