MODEL 1
REMARK VINA RESULT:      -8.1      0.000      0.000
REMARK  5 active torsions:
REMARK  status: ('A' for Active; 'I' for Inactive)
REMARK    1  A    between atoms: C2_2  and  C3_3 
REMARK    2  A    between atoms: C7_7  and  O1_8 
REMARK    3  A    between atoms: O1_8  and  C8_9 
REMARK    4  A    between atoms: C12_13  and  N1_14 
REMARK    5  A    between atoms: C15_18  and  C16_19 
ROOT
HETATM    1  C8  UNL     1      25.363   1.888  53.683  1.00  0.00     0.171 A 
HETATM    2  C9  UNL     1      24.213   0.679  53.249  1.00  0.00     0.010 A 
HETATM    3  C10 UNL     1      23.085   0.797  52.630  1.00  0.00     0.012 A 
HETATM    4  C11 UNL     1      22.671   2.113  52.223  1.00  0.00    -0.015 A 
HETATM    5  C12 UNL     1      21.543   2.151  51.616  1.00  0.00     0.097 C 
HETATM    6  C21 UNL     1      23.364   3.340  52.420  1.00  0.00    -0.051 A 
HETATM    7  C22 UNL     1      23.012   4.708  52.060  1.00  0.00     0.049 C 
HETATM    8  C23 UNL     1      24.480   3.176  53.037  1.00  0.00     0.016 A 
ENDROOT
BRANCH   5   9
HETATM    9  N1  UNL     1      20.596   2.942  50.998  1.00  0.00    -0.385 N 
HETATM   10  C13 UNL     1      20.519   3.345  49.596  1.00  0.00     0.152 C 
HETATM   11  C14 UNL     1      19.337   2.563  49.022  1.00  0.00     0.290 C 
HETATM   12  N2  UNL     1      18.130   3.077  49.627  1.00  0.00     0.092 N 
HETATM   13  C15 UNL     1      18.151   3.019  51.046  1.00  0.00     0.255 C 
HETATM   14  H20 UNL     1      17.896   4.040  49.319  1.00  0.00     0.316 HD
HETATM   15  C20 UNL     1      19.421   3.512  51.662  1.00  0.00     0.159 C 
BRANCH  13  16
HETATM   16  C16 UNL     1      17.034   3.904  51.566  1.00  0.00     0.154 C 
HETATM   17  N3  UNL     1      15.996   3.289  52.203  1.00  0.00    -0.410 N 
HETATM   18  C17 UNL     1      14.815   3.927  52.636  1.00  0.00     0.118 C 
HETATM   19  C19 UNL     1      15.284   2.133  51.869  1.00  0.00     0.118 C 
HETATM   20  C18 UNL     1      14.252   2.544  52.941  1.00  0.00     0.039 C 
ENDBRANCH  13  16
ENDBRANCH   5   9
BRANCH   1  21
HETATM   21  O1  UNL     1      26.061   1.766  52.640  1.00  0.00    -0.348 OA
BRANCH  21  22
HETATM   22  C7  UNL     1      27.385   1.628  52.462  1.00  0.00     0.262 C 
HETATM   23  C6  UNL     1      28.210   2.536  53.312  1.00  0.00     0.064 C 
HETATM   24  C5  UNL     1      29.070   1.627  54.118  1.00  0.00     0.047 C 
HETATM   25  C3  UNL     1      28.471   0.259  53.925  1.00  0.00     0.077 C 
HETATM   26  C4  UNL     1      27.667  -0.123  55.156  1.00  0.00     0.051 C 
HETATM   27  O2  UNL     1      27.720   0.314  52.796  1.00  0.00    -0.347 OA
BRANCH  25  28
HETATM   28  C2  UNL     1      29.563  -0.778  53.795  1.00  0.00     0.000 C 
HETATM   29  C1  UNL     1      29.474  -2.013  53.261  1.00  0.00     0.010 C 
ENDBRANCH  25  28
ENDBRANCH  21  22
ENDBRANCH   1  21
TORSDOF 5
ENDMDL
MODEL 2
REMARK VINA RESULT:      -8.0      1.803      3.740
REMARK  5 active torsions:
REMARK  status: ('A' for Active; 'I' for Inactive)
REMARK    1  A    between atoms: C2_2  and  C3_3 
REMARK    2  A    between atoms: C7_7  and  O1_8 
REMARK    3  A    between atoms: O1_8  and  C8_9 
REMARK    4  A    between atoms: C12_13  and  N1_14 
REMARK    5  A    between atoms: C15_18  and  C16_19 
ROOT
HETATM    1  C8  UNL     1      24.792   0.815  53.479  1.00  0.00     0.171 A 
HETATM    2  C9  UNL     1      23.666  -0.482  53.323  1.00  0.00     0.010 A 
HETATM    3  C10 UNL     1      22.499  -0.499  52.770  1.00  0.00     0.012 A 
HETATM    4  C11 UNL     1      22.008   0.720  52.187  1.00  0.00    -0.015 A 
HETATM    5  C12 UNL     1      20.845   0.626  51.659  1.00  0.00     0.097 C 
HETATM    6  C21 UNL     1      22.662   1.983  52.137  1.00  0.00    -0.051 A 
HETATM    7  C22 UNL     1      22.235   3.263  51.587  1.00  0.00     0.049 C 
HETATM    8  C23 UNL     1      23.820   1.955  52.696  1.00  0.00     0.016 A 
ENDROOT
BRANCH   5   9
HETATM    9  N1  UNL     1      19.830   1.279  50.987  1.00  0.00    -0.385 N 
HETATM   10  C13 UNL     1      18.602   1.856  51.528  1.00  0.00     0.152 C 
HETATM   11  C14 UNL     1      18.798   3.370  51.429  1.00  0.00     0.290 C 
HETATM   12  N2  UNL     1      18.796   3.726  50.030  1.00  0.00     0.092 N 
HETATM   13  C15 UNL     1      19.775   3.027  49.275  1.00  0.00     0.255 C 
HETATM   14  H20 UNL     1      17.866   3.619  49.581  1.00  0.00     0.316 HD
HETATM   15  C20 UNL     1      19.826   1.557  49.549  1.00  0.00     0.159 C 
BRANCH  13  16
HETATM   16  C16 UNL     1      19.440   3.192  47.806  1.00  0.00     0.154 C 
HETATM   17  N3  UNL     1      20.479   3.405  46.948  1.00  0.00    -0.410 N 
HETATM   18  C17 UNL     1      20.353   3.709  45.577  1.00  0.00     0.118 C 
HETATM   19  C19 UNL     1      21.591   4.246  47.062  1.00  0.00     0.118 C 
HETATM   20  C18 UNL     1      21.851   3.988  45.563  1.00  0.00     0.039 C 
ENDBRANCH  13  16
ENDBRANCH   5   9
BRANCH   1  21
HETATM   21  O1  UNL     1      25.429   0.546  52.424  1.00  0.00    -0.348 OA
BRANCH  21  22
HETATM   22  C7  UNL     1      26.684   0.832  52.041  1.00  0.00     0.262 C 
HETATM   23  C6  UNL     1      27.158   2.181  52.471  1.00  0.00     0.064 C 
HETATM   24  C5  UNL     1      28.364   1.915  53.299  1.00  0.00     0.047 C 
HETATM   25  C3  UNL     1      28.330   0.433  53.564  1.00  0.00     0.077 C 
HETATM   26  C4  UNL     1      27.839   0.181  54.980  1.00  0.00     0.051 C 
HETATM   27  O2  UNL     1      27.528  -0.118  52.618  1.00  0.00    -0.347 OA
BRANCH  25  28
HETATM   28  C2  UNL     1      29.724  -0.146  53.491  1.00  0.00     0.000 C 
HETATM   29  C1  UNL     1      30.105  -1.422  53.706  1.00  0.00     0.010 C 
ENDBRANCH  25  28
ENDBRANCH  21  22
ENDBRANCH   1  21
TORSDOF 5
ENDMDL
MODEL 3
REMARK VINA RESULT:      -7.8      3.192      5.784
REMARK  5 active torsions:
REMARK  status: ('A' for Active; 'I' for Inactive)
REMARK    1  A    between atoms: C2_2  and  C3_3 
REMARK    2  A    between atoms: C7_7  and  O1_8 
REMARK    3  A    between atoms: O1_8  and  C8_9 
REMARK    4  A    between atoms: C12_13  and  N1_14 
REMARK    5  A    between atoms: C15_18  and  C16_19 
ROOT
HETATM    1  C8  UNL     1      23.338   0.037  53.743  1.00  0.00     0.171 A 
HETATM    2  C9  UNL     1      22.306  -0.302  52.405  1.00  0.00     0.010 A 
HETATM    3  C10 UNL     1      21.902   0.476  51.456  1.00  0.00     0.012 A 
HETATM    4  C11 UNL     1      22.342   1.845  51.470  1.00  0.00    -0.015 A 
HETATM    5  C12 UNL     1      21.900   2.555  50.499  1.00  0.00     0.097 C 
HETATM    6  C21 UNL     1      23.191   2.474  52.423  1.00  0.00    -0.051 A 
HETATM    7  C22 UNL     1      23.669   3.847  52.523  1.00  0.00     0.049 C 
HETATM    8  C23 UNL     1      23.570   1.664  53.347  1.00  0.00     0.016 A 
ENDROOT
BRANCH   5   9
HETATM    9  N1  UNL     1      21.882   3.798  49.899  1.00  0.00    -0.385 N 
HETATM   10  C13 UNL     1      20.897   4.867  50.046  1.00  0.00     0.152 C 
HETATM   11  C14 UNL     1      21.609   5.955  50.851  1.00  0.00     0.290 C 
HETATM   12  N2  UNL     1      22.648   6.514  50.019  1.00  0.00     0.092 N 
HETATM   13  C15 UNL     1      23.565   5.539  49.542  1.00  0.00     0.255 C 
HETATM   14  H20 UNL     1      22.281   7.068  49.223  1.00  0.00     0.316 HD
HETATM   15  C20 UNL     1      22.918   4.305  48.997  1.00  0.00     0.159 C 
BRANCH  13  16
HETATM   16  C16 UNL     1      24.361   6.159  48.410  1.00  0.00     0.154 C 
HETATM   17  N3  UNL     1      25.603   6.637  48.710  1.00  0.00    -0.410 N 
HETATM   18  C17 UNL     1      26.432   7.359  47.826  1.00  0.00     0.118 C 
HETATM   19  C19 UNL     1      26.042   7.404  49.794  1.00  0.00     0.118 C 
HETATM   20  C18 UNL     1      27.351   7.635  49.010  1.00  0.00     0.039 C 
ENDBRANCH  13  16
ENDBRANCH   5   9
BRANCH   1  21
HETATM   21  O1  UNL     1      24.401  -0.316  53.165  1.00  0.00    -0.348 OA
BRANCH  21  22
HETATM   22  C7  UNL     1      25.532  -0.870  53.634  1.00  0.00     0.262 C 
HETATM   23  C6  UNL     1      26.409  -1.450  52.574  1.00  0.00     0.064 C 
HETATM   24  C5  UNL     1      27.700  -0.724  52.707  1.00  0.00     0.047 C 
HETATM   25  C3  UNL     1      27.394   0.442  53.610  1.00  0.00     0.077 C 
HETATM   26  C4  UNL     1      27.270   1.709  52.780  1.00  0.00     0.051 C 
HETATM   27  O2  UNL     1      26.256   0.133  54.280  1.00  0.00    -0.347 OA
BRANCH  25  28
HETATM   28  C2  UNL     1      28.538   0.677  54.569  1.00  0.00     0.000 C 
HETATM   29  C1  UNL     1      29.418   1.700  54.577  1.00  0.00     0.010 C 
ENDBRANCH  25  28
ENDBRANCH  21  22
ENDBRANCH   1  21
TORSDOF 5
ENDMDL
MODEL 4
REMARK VINA RESULT:      -7.7      5.925      8.491
REMARK  5 active torsions:
REMARK  status: ('A' for Active; 'I' for Inactive)
REMARK    1  A    between atoms: C2_2  and  C3_3 
REMARK    2  A    between atoms: C7_7  and  O1_8 
REMARK    3  A    between atoms: O1_8  and  C8_9 
REMARK    4  A    between atoms: C12_13  and  N1_14 
REMARK    5  A    between atoms: C15_18  and  C16_19 
ROOT
HETATM    1  C8  UNL     1      24.219   3.256  50.911  1.00  0.00     0.171 A 
HETATM    2  C9  UNL     1      25.643   3.277  49.940  1.00  0.00     0.010 A 
HETATM    3  C10 UNL     1      26.289   4.280  49.444  1.00  0.00     0.012 A 
HETATM    4  C11 UNL     1      25.787   5.603  49.702  1.00  0.00    -0.015 A 
HETATM    5  C12 UNL     1      26.479   6.544  49.178  1.00  0.00     0.097 C 
HETATM    6  C21 UNL     1      24.635   5.962  50.456  1.00  0.00    -0.051 A 
HETATM    7  C22 UNL     1      24.050   7.263  50.750  1.00  0.00     0.049 C 
HETATM    8  C23 UNL     1      24.025   4.935  50.932  1.00  0.00     0.016 A 
ENDROOT
BRANCH   5   9
HETATM    9  N1  UNL     1      26.621   7.907  49.001  1.00  0.00    -0.385 N 
HETATM   10  C13 UNL     1      27.225   8.885  49.902  1.00  0.00     0.152 C 
HETATM   11  C14 UNL     1      28.536   9.289  49.227  1.00  0.00     0.290 C 
HETATM   12  N2  UNL     1      28.209  10.032  48.032  1.00  0.00     0.092 N 
HETATM   13  C15 UNL     1      27.368   9.312  47.142  1.00  0.00     0.255 C 
HETATM   14  H20 UNL     1      27.794  10.963  48.229  1.00  0.00     0.316 HD
HETATM   15  C20 UNL     1      26.206   8.641  47.804  1.00  0.00     0.159 C 
BRANCH  13  16
HETATM   16  C16 UNL     1      26.798  10.295  46.138  1.00  0.00     0.154 C 
HETATM   17  N3  UNL     1      26.207   9.777  45.022  1.00  0.00    -0.410 N 
HETATM   18  C17 UNL     1      25.742  10.530  43.925  1.00  0.00     0.118 C 
HETATM   19  C19 UNL     1      26.620   8.743  44.176  1.00  0.00     0.118 C 
HETATM   20  C18 UNL     1      25.530   9.212  43.189  1.00  0.00     0.039 C 
ENDBRANCH  13  16
ENDBRANCH   5   9
BRANCH   1  21
HETATM   21  O1  UNL     1      24.828   3.253  52.015  1.00  0.00    -0.348 OA
BRANCH  21  22
HETATM   22  C7  UNL     1      24.641   2.540  53.137  1.00  0.00     0.262 C 
HETATM   23  C6  UNL     1      23.787   1.330  52.952  1.00  0.00     0.064 C 
HETATM   24  C5  UNL     1      24.646   0.189  53.370  1.00  0.00     0.047 C 
HETATM   25  C3  UNL     1      26.034   0.767  53.462  1.00  0.00     0.077 C 
HETATM   26  C4  UNL     1      26.837   0.357  52.239  1.00  0.00     0.051 C 
HETATM   27  O2  UNL     1      25.894   2.111  53.579  1.00  0.00    -0.347 OA
BRANCH  25  28
HETATM   28  C2  UNL     1      26.762   0.196  54.656  1.00  0.00     0.000 C 
HETATM   29  C1  UNL     1      28.094   0.108  54.852  1.00  0.00     0.010 C 
ENDBRANCH  25  28
ENDBRANCH  21  22
ENDBRANCH   1  21
TORSDOF 5
ENDMDL
MODEL 5
REMARK VINA RESULT:      -7.6      4.960      8.498
REMARK  5 active torsions:
REMARK  status: ('A' for Active; 'I' for Inactive)
REMARK    1  A    between atoms: C2_2  and  C3_3 
REMARK    2  A    between atoms: C7_7  and  O1_8 
REMARK    3  A    between atoms: O1_8  and  C8_9 
REMARK    4  A    between atoms: C12_13  and  N1_14 
REMARK    5  A    between atoms: C15_18  and  C16_19 
ROOT
HETATM    1  C8  UNL     1      24.526   7.366  48.484  1.00  0.00     0.171 A 
HETATM    2  C9  UNL     1      23.518   7.648  49.854  1.00  0.00     0.010 A 
HETATM    3  C10 UNL     1      23.207   6.858  50.828  1.00  0.00     0.012 A 
HETATM    4  C11 UNL     1      23.750   5.526  50.817  1.00  0.00    -0.015 A 
HETATM    5  C12 UNL     1      23.398   4.801  51.813  1.00  0.00     0.097 C 
HETATM    6  C21 UNL     1      24.611   4.947  49.842  1.00  0.00    -0.051 A 
HETATM    7  C22 UNL     1      25.188   3.613  49.745  1.00  0.00     0.049 C 
HETATM    8  C23 UNL     1      24.895   5.768  48.894  1.00  0.00     0.016 A 
ENDROOT
BRANCH   5   9
HETATM    9  N1  UNL     1      23.496   3.570  52.431  1.00  0.00    -0.385 N 
HETATM   10  C13 UNL     1      22.643   2.396  52.264  1.00  0.00     0.152 C 
HETATM   11  C14 UNL     1      23.502   1.386  51.501  1.00  0.00     0.290 C 
HETATM   12  N2  UNL     1      24.565   0.956  52.379  1.00  0.00     0.092 N 
HETATM   13  C15 UNL     1      25.347   2.033  52.875  1.00  0.00     0.255 C 
HETATM   14  H20 UNL     1      24.231   0.373  53.170  1.00  0.00     0.316 HD
HETATM   15  C20 UNL     1      24.547   3.192  53.378  1.00  0.00     0.159 C 
BRANCH  13  16
HETATM   16  C16 UNL     1      26.164   1.518  54.045  1.00  0.00     0.154 C 
HETATM   17  N3  UNL     1      27.325   0.863  53.756  1.00  0.00    -0.410 N 
HETATM   18  C17 UNL     1      28.144   0.205  54.696  1.00  0.00     0.118 C 
HETATM   19  C19 UNL     1      27.599  -0.112  52.791  1.00  0.00     0.118 C 
HETATM   20  C18 UNL     1      28.936  -0.358  53.522  1.00  0.00     0.039 C 
ENDBRANCH  13  16
ENDBRANCH   5   9
BRANCH   1  21
HETATM   21  O1  UNL     1      25.578   7.809  49.019  1.00  0.00    -0.348 OA
BRANCH  21  22
HETATM   22  C7  UNL     1      26.570   8.575  48.538  1.00  0.00     0.262 C 
HETATM   23  C6  UNL     1      27.644   8.874  49.531  1.00  0.00     0.064 C 
HETATM   24  C5  UNL     1      28.890   8.339  48.919  1.00  0.00     0.047 C 
HETATM   25  C3  UNL     1      28.419   7.487  47.770  1.00  0.00     0.077 C 
HETATM   26  C4  UNL     1      28.500   6.020  48.159  1.00  0.00     0.051 C 
HETATM   27  O2  UNL     1      27.157   7.888  47.474  1.00  0.00    -0.347 OA
BRANCH  25  28
HETATM   28  C2  UNL     1      29.333   7.659  46.579  1.00  0.00     0.000 C 
HETATM   29  C1  UNL     1      29.064   8.273  45.409  1.00  0.00     0.010 C 
ENDBRANCH  25  28
ENDBRANCH  21  22
ENDBRANCH   1  21
TORSDOF 5
ENDMDL
MODEL 6
REMARK VINA RESULT:      -7.6      5.433      8.934
REMARK  5 active torsions:
REMARK  status: ('A' for Active; 'I' for Inactive)
REMARK    1  A    between atoms: C2_2  and  C3_3 
REMARK    2  A    between atoms: C7_7  and  O1_8 
REMARK    3  A    between atoms: O1_8  and  C8_9 
REMARK    4  A    between atoms: C12_13  and  N1_14 
REMARK    5  A    between atoms: C15_18  and  C16_19 
ROOT
HETATM    1  C8  UNL     1      25.884   6.896  48.321  1.00  0.00     0.171 A 
HETATM    2  C9  UNL     1      24.710   7.378  49.487  1.00  0.00     0.010 A 
HETATM    3  C10 UNL     1      24.175   6.701  50.449  1.00  0.00     0.012 A 
HETATM    4  C11 UNL     1      24.576   5.330  50.616  1.00  0.00    -0.015 A 
HETATM    5  C12 UNL     1      24.003   4.723  51.587  1.00  0.00     0.097 C 
HETATM    6  C21 UNL     1      25.515   4.599  49.834  1.00  0.00    -0.051 A 
HETATM    7  C22 UNL     1      25.964   3.215  49.921  1.00  0.00     0.049 C 
HETATM    8  C23 UNL     1      26.023   5.311  48.892  1.00  0.00     0.016 A 
ENDROOT
BRANCH   5   9
HETATM    9  N1  UNL     1      23.880   3.543  52.294  1.00  0.00    -0.385 N 
HETATM   10  C13 UNL     1      22.837   2.525  52.194  1.00  0.00     0.152 C 
HETATM   11  C14 UNL     1      23.514   1.328  51.524  1.00  0.00     0.290 C 
HETATM   12  N2  UNL     1      24.478   0.788  52.453  1.00  0.00     0.092 N 
HETATM   13  C15 UNL     1      25.432   1.747  52.887  1.00  0.00     0.255 C 
HETATM   14  H20 UNL     1      24.042   0.331  53.277  1.00  0.00     0.316 HD
HETATM   15  C20 UNL     1      24.841   3.061  53.288  1.00  0.00     0.159 C 
BRANCH  13  16
HETATM   16  C16 UNL     1      26.136   1.187  54.108  1.00  0.00     0.154 C 
HETATM   17  N3  UNL     1      27.418   0.747  53.943  1.00  0.00    -0.410 N 
HETATM   18  C17 UNL     1      28.181   0.080  54.923  1.00  0.00     0.118 C 
HETATM   19  C19 UNL     1      27.984  -0.032  52.929  1.00  0.00     0.118 C 
HETATM   20  C18 UNL     1      29.219  -0.193  53.841  1.00  0.00     0.039 C 
ENDBRANCH  13  16
ENDBRANCH   5   9
BRANCH   1  21
HETATM   21  O1  UNL     1      26.881   7.286  48.988  1.00  0.00    -0.348 OA
BRANCH  21  22
HETATM   22  C7  UNL     1      28.160   7.502  48.640  1.00  0.00     0.262 C 
HETATM   23  C6  UNL     1      28.349   7.834  47.197  1.00  0.00     0.064 C 
HETATM   24  C5  UNL     1      28.999   9.172  47.196  1.00  0.00     0.047 C 
HETATM   25  C3  UNL     1      28.856   9.671  48.610  1.00  0.00     0.077 C 
HETATM   26  C4  UNL     1      27.738  10.698  48.675  1.00  0.00     0.051 C 
HETATM   27  O2  UNL     1      28.624   8.585  49.389  1.00  0.00    -0.347 OA
BRANCH  25  28
HETATM   28  C2  UNL     1      30.113  10.387  49.044  1.00  0.00     0.000 C 
HETATM   29  C1  UNL     1      30.927  11.162  48.298  1.00  0.00     0.010 C 
ENDBRANCH  25  28
ENDBRANCH  21  22
ENDBRANCH   1  21
TORSDOF 5
ENDMDL
MODEL 7
REMARK VINA RESULT:      -7.6      7.030     10.104
REMARK  5 active torsions:
REMARK  status: ('A' for Active; 'I' for Inactive)
REMARK    1  A    between atoms: C2_2  and  C3_3 
REMARK    2  A    between atoms: C7_7  and  O1_8 
REMARK    3  A    between atoms: O1_8  and  C8_9 
REMARK    4  A    between atoms: C12_13  and  N1_14 
REMARK    5  A    between atoms: C15_18  and  C16_19 
ROOT
HETATM    1  C8  UNL     1      24.745   3.350  49.910  1.00  0.00     0.171 A 
HETATM    2  C9  UNL     1      26.416   3.255  49.496  1.00  0.00     0.010 A 
HETATM    3  C10 UNL     1      27.220   4.180  49.087  1.00  0.00     0.012 A 
HETATM    4  C11 UNL     1      26.695   5.510  48.926  1.00  0.00    -0.015 A 
HETATM    5  C12 UNL     1      27.549   6.372  48.517  1.00  0.00     0.097 C 
HETATM    6  C21 UNL     1      25.363   5.952  49.167  1.00  0.00    -0.051 A 
HETATM    7  C22 UNL     1      24.747   7.264  49.015  1.00  0.00     0.049 C 
HETATM    8  C23 UNL     1      24.600   5.001  49.574  1.00  0.00     0.016 A 
ENDROOT
BRANCH   5   9
HETATM    9  N1  UNL     1      27.777   7.688  48.168  1.00  0.00    -0.385 N 
HETATM   10  C13 UNL     1      27.942   8.848  49.042  1.00  0.00     0.152 C 
HETATM   11  C14 UNL     1      29.423   9.213  48.942  1.00  0.00     0.290 C 
HETATM   12  N2  UNL     1      29.668   9.711  47.608  1.00  0.00     0.092 N 
HETATM   13  C15 UNL     1      29.292   8.791  46.593  1.00  0.00     0.255 C 
HETATM   14  H20 UNL     1      29.226  10.632  47.427  1.00  0.00     0.316 HD
HETATM   15  C20 UNL     1      27.945   8.172  46.795  1.00  0.00     0.159 C 
BRANCH  13  16
HETATM   16  C16 UNL     1      29.240   9.543  45.277  1.00  0.00     0.154 C 
HETATM   17  N3  UNL     1      30.187   9.235  44.344  1.00  0.00    -0.410 N 
HETATM   18  C17 UNL     1      30.378   9.914  43.123  1.00  0.00     0.118 C 
HETATM   19  C19 UNL     1      31.565   9.038  44.483  1.00  0.00     0.118 C 
HETATM   20  C18 UNL     1      31.658   9.107  42.944  1.00  0.00     0.039 C 
ENDBRANCH  13  16
ENDBRANCH   5   9
BRANCH   1  21
HETATM   21  O1  UNL     1      24.939   3.557  51.138  1.00  0.00    -0.348 OA
BRANCH  21  22
HETATM   22  C7  UNL     1      24.456   2.949  52.234  1.00  0.00     0.262 C 
HETATM   23  C6  UNL     1      23.550   1.799  51.941  1.00  0.00     0.064 C 
HETATM   24  C5  UNL     1      24.192   0.629  52.597  1.00  0.00     0.047 C 
HETATM   25  C3  UNL     1      25.579   1.100  52.950  1.00  0.00     0.077 C 
HETATM   26  C4  UNL     1      26.577   0.535  51.953  1.00  0.00     0.051 C 
HETATM   27  O2  UNL     1      25.544   2.456  52.957  1.00  0.00    -0.347 OA
BRANCH  25  28
HETATM   28  C2  UNL     1      25.985   0.564  54.304  1.00  0.00     0.000 C 
HETATM   29  C1  UNL     1      27.219   0.214  54.721  1.00  0.00     0.010 C 
ENDBRANCH  25  28
ENDBRANCH  21  22
ENDBRANCH   1  21
TORSDOF 5
ENDMDL
MODEL 8
REMARK VINA RESULT:      -7.6      6.053      9.820
REMARK  5 active torsions:
REMARK  status: ('A' for Active; 'I' for Inactive)
REMARK    1  A    between atoms: C2_2  and  C3_3 
REMARK    2  A    between atoms: C7_7  and  O1_8 
REMARK    3  A    between atoms: O1_8  and  C8_9 
REMARK    4  A    between atoms: C12_13  and  N1_14 
REMARK    5  A    between atoms: C15_18  and  C16_19 
ROOT
HETATM    1  C8  UNL     1      24.305   3.409  50.547  1.00  0.00     0.171 A 
HETATM    2  C9  UNL     1      25.778   3.172  49.683  1.00  0.00     0.010 A 
HETATM    3  C10 UNL     1      26.604   4.042  49.203  1.00  0.00     0.012 A 
HETATM    4  C11 UNL     1      26.295   5.436  49.380  1.00  0.00    -0.015 A 
HETATM    5  C12 UNL     1      27.158   6.238  48.878  1.00  0.00     0.097 C 
HETATM    6  C21 UNL     1      25.164   5.998  50.036  1.00  0.00    -0.051 A 
HETATM    7  C22 UNL     1      24.768   7.385  50.244  1.00  0.00     0.049 C 
HETATM    8  C23 UNL     1      24.372   5.097  50.499  1.00  0.00     0.016 A 
ENDROOT
BRANCH   5   9
HETATM    9  N1  UNL     1      27.520   7.554  48.668  1.00  0.00    -0.385 N 
HETATM   10  C13 UNL     1      26.773   8.767  48.993  1.00  0.00     0.152 C 
HETATM   11  C14 UNL     1      27.528   9.397  50.164  1.00  0.00     0.290 C 
HETATM   12  N2  UNL     1      28.803   9.861  49.671  1.00  0.00     0.092 N 
HETATM   13  C15 UNL     1      29.568   8.837  49.053  1.00  0.00     0.255 C 
HETATM   14  H20 UNL     1      28.723  10.674  49.031  1.00  0.00     0.316 HD
HETATM   15  C20 UNL     1      28.795   7.989  48.093  1.00  0.00     0.159 C 
BRANCH  13  16
HETATM   16  C16 UNL     1      30.682   9.496  48.262  1.00  0.00     0.154 C 
HETATM   17  N3  UNL     1      31.818   8.769  48.058  1.00  0.00    -0.410 N 
HETATM   18  C17 UNL     1      33.000   9.257  47.464  1.00  0.00     0.118 C 
HETATM   19  C19 UNL     1      32.555   7.974  48.941  1.00  0.00     0.118 C 
HETATM   20  C18 UNL     1      33.674   7.954  47.877  1.00  0.00     0.039 C 
ENDBRANCH  13  16
ENDBRANCH   5   9
BRANCH   1  21
HETATM   21  O1  UNL     1      24.831   3.362  51.692  1.00  0.00    -0.348 OA
BRANCH  21  22
HETATM   22  C7  UNL     1      24.510   2.666  52.795  1.00  0.00     0.262 C 
HETATM   23  C6  UNL     1      23.614   1.500  52.538  1.00  0.00     0.064 C 
HETATM   24  C5  UNL     1      24.374   0.320  53.031  1.00  0.00     0.047 C 
HETATM   25  C3  UNL     1      25.776   0.826  53.243  1.00  0.00     0.077 C 
HETATM   26  C4  UNL     1      26.661   0.368  52.096  1.00  0.00     0.051 C 
HETATM   27  O2  UNL     1      25.696   2.176  53.345  1.00  0.00    -0.347 OA
BRANCH  25  28
HETATM   28  C2  UNL     1      26.366   0.225  54.498  1.00  0.00     0.000 C 
HETATM   29  C1  UNL     1      27.666   0.155  54.852  1.00  0.00     0.010 C 
ENDBRANCH  25  28
ENDBRANCH  21  22
ENDBRANCH   1  21
TORSDOF 5
ENDMDL
MODEL 9
REMARK VINA RESULT:      -7.4      7.522      9.732
REMARK  5 active torsions:
REMARK  status: ('A' for Active; 'I' for Inactive)
REMARK    1  A    between atoms: C2_2  and  C3_3 
REMARK    2  A    between atoms: C7_7  and  O1_8 
REMARK    3  A    between atoms: O1_8  and  C8_9 
REMARK    4  A    between atoms: C12_13  and  N1_14 
REMARK    5  A    between atoms: C15_18  and  C16_19 
ROOT
HETATM    1  C8  UNL     1      32.596   7.097  47.241  1.00  0.00     0.171 A 
HETATM    2  C9  UNL     1      32.618   7.910  48.761  1.00  0.00     0.010 A 
HETATM    3  C10 UNL     1      31.667   8.528  49.381  1.00  0.00     0.012 A 
HETATM    4  C11 UNL     1      30.375   8.585  48.752  1.00  0.00    -0.015 A 
HETATM    5  C12 UNL     1      29.485   9.214  49.425  1.00  0.00     0.097 C 
HETATM    6  C21 UNL     1      29.996   8.032  47.497  1.00  0.00    -0.051 A 
HETATM    7  C22 UNL     1      28.725   8.058  46.782  1.00  0.00     0.049 C 
HETATM    8  C23 UNL     1      30.970   7.426  46.917  1.00  0.00     0.016 A 
ENDROOT
BRANCH   5   9
HETATM    9  N1  UNL     1      28.172   9.641  49.479  1.00  0.00    -0.385 N 
HETATM   10  C13 UNL     1      27.580  10.845  48.902  1.00  0.00     0.152 C 
HETATM   11  C14 UNL     1      26.718  10.347  47.741  1.00  0.00     0.290 C 
HETATM   12  N2  UNL     1      25.607   9.612  48.298  1.00  0.00     0.092 N 
HETATM   13  C15 UNL     1      26.013   8.541  49.139  1.00  0.00     0.255 C 
HETATM   14  H20 UNL     1      24.928  10.214  48.802  1.00  0.00     0.316 HD
HETATM   15  C20 UNL     1      27.081   8.904  50.121  1.00  0.00     0.159 C 
BRANCH  13  16
HETATM   16  C16 UNL     1      24.806   8.094  49.943  1.00  0.00     0.154 C 
HETATM   17  N3  UNL     1      24.791   6.801  50.379  1.00  0.00    -0.410 N 
HETATM   18  C17 UNL     1      23.705   6.173  51.023  1.00  0.00     0.118 C 
HETATM   19  C19 UNL     1      25.120   5.616  49.714  1.00  0.00     0.118 C 
HETATM   20  C18 UNL     1      24.463   4.859  50.887  1.00  0.00     0.039 C 
ENDBRANCH  13  16
ENDBRANCH   5   9
BRANCH   1  21
HETATM   21  O1  UNL     1      32.332   5.960  47.719  1.00  0.00    -0.348 OA
BRANCH  21  22
HETATM   22  C7  UNL     1      31.914   4.823  47.140  1.00  0.00     0.262 C 
HETATM   23  C6  UNL     1      32.539   4.553  45.811  1.00  0.00     0.064 C 
HETATM   24  C5  UNL     1      33.217   3.238  45.968  1.00  0.00     0.047 C 
HETATM   25  C3  UNL     1      33.219   2.982  47.452  1.00  0.00     0.077 C 
HETATM   26  C4  UNL     1      34.600   3.269  48.016  1.00  0.00     0.051 C 
HETATM   27  O2  UNL     1      32.252   3.768  47.989  1.00  0.00    -0.347 OA
BRANCH  25  28
HETATM   28  C2  UNL     1      32.943   1.523  47.733  1.00  0.00     0.000 C 
HETATM   29  C1  UNL     1      32.248   0.649  46.976  1.00  0.00     0.010 C 
ENDBRANCH  25  28
ENDBRANCH  21  22
ENDBRANCH   1  21
TORSDOF 5
ENDMDL
