MODEL 1
REMARK VINA RESULT:      -7.0      0.000      0.000
REMARK  4 active torsions:
REMARK  status: ('A' for Active; 'I' for Inactive)
REMARK    1  A    between atoms: C8_10  and  N1_11 
REMARK       I    between atoms: N1_11  and  C9_12 
REMARK    2  A    between atoms: C9_12  and  C10_14 
REMARK    3  A    between atoms: C11_15  and  C12_16 
REMARK    4  A    between atoms: C12_16  and  N2_17 
ROOT
HETATM    1  C1  UNL     1      26.409  -1.299  53.141  1.00  0.00     0.046 C 
HETATM    2  C2  UNL     1      25.840  -0.025  52.631  1.00  0.00    -0.048 C 
HETATM    3  C3  UNL     1      24.582   0.163  52.934  1.00  0.00     0.077 C 
HETATM    4  O1  UNL     1      23.976  -0.843  53.676  1.00  0.00    -0.352 OA
HETATM    5  C4  UNL     1      22.562  -0.719  53.568  1.00  0.00     0.178 C 
HETATM    6  C5  UNL     1      22.290   0.732  53.292  1.00  0.00     0.065 C 
HETATM    7  C6  UNL     1      23.555   1.231  52.685  1.00  0.00     0.180 C 
HETATM    8  O2  UNL     1      24.076   2.380  53.277  1.00  0.00    -0.373 OA
HETATM    9  C7  UNL     1      24.350   3.291  52.283  1.00  0.00     0.225 C 
HETATM   10  C8  UNL     1      25.612   3.049  51.561  1.00  0.00     0.032 C 
HETATM   11  C15 UNL     1      26.482   2.059  51.486  1.00  0.00     0.005 C 
HETATM   12  C16 UNL     1      26.910   0.718  51.884  1.00  0.00     0.065 C 
ENDROOT
BRANCH  10  13
HETATM   13  N1  UNL     1      25.940   4.184  50.772  1.00  0.00    -0.325 N 
HETATM   14  C9  UNL     1      25.267   4.329  49.531  1.00  0.00     0.245 C 
HETATM   15  O3  UNL     1      24.417   3.590  49.023  1.00  0.00    -0.268 OA
HETATM   16  H11 UNL     1      26.655   4.829  51.171  1.00  0.00     0.169 HD
BRANCH  14  17
HETATM   17  C10 UNL     1      25.685   5.513  48.836  1.00  0.00     0.072 C 
HETATM   18  C11 UNL     1      26.760   6.225  48.591  1.00  0.00    -0.002 C 
BRANCH  18  19
HETATM   19  C12 UNL     1      27.479   7.350  47.997  1.00  0.00     0.143 C 
BRANCH  19  20
HETATM   20  N2  UNL     1      28.045   8.178  49.003  1.00  0.00    -0.418 N 
HETATM   21  C13 UNL     1      29.278   8.815  48.702  1.00  0.00     0.142 C 
HETATM   22  C14 UNL     1      27.140   8.882  49.845  1.00  0.00     0.142 C 
ENDBRANCH  19  20
ENDBRANCH  18  19
ENDBRANCH  14  17
ENDBRANCH  10  13
TORSDOF 4
ENDMDL
MODEL 2
REMARK VINA RESULT:      -6.9      1.550      2.441
REMARK  4 active torsions:
REMARK  status: ('A' for Active; 'I' for Inactive)
REMARK    1  A    between atoms: C8_10  and  N1_11 
REMARK       I    between atoms: N1_11  and  C9_12 
REMARK    2  A    between atoms: C9_12  and  C10_14 
REMARK    3  A    between atoms: C11_15  and  C12_16 
REMARK    4  A    between atoms: C12_16  and  N2_17 
ROOT
HETATM    1  C1  UNL     1      22.492  -0.355  52.777  1.00  0.00     0.046 C 
HETATM    2  C2  UNL     1      23.619   0.605  52.652  1.00  0.00    -0.048 C 
HETATM    3  C3  UNL     1      24.633   0.351  53.438  1.00  0.00     0.077 C 
HETATM    4  O1  UNL     1      24.505  -0.760  54.260  1.00  0.00    -0.352 OA
HETATM    5  C4  UNL     1      25.451  -0.671  55.320  1.00  0.00     0.178 C 
HETATM    6  C5  UNL     1      26.587   0.160  54.797  1.00  0.00     0.065 C 
HETATM    7  C6  UNL     1      25.975   0.971  53.708  1.00  0.00     0.180 C 
HETATM    8  O2  UNL     1      26.650   0.921  52.490  1.00  0.00    -0.373 OA
HETATM    9  C7  UNL     1      26.844   2.210  52.051  1.00  0.00     0.225 C 
HETATM   10  C8  UNL     1      25.666   2.823  51.412  1.00  0.00     0.032 C 
HETATM   11  C15 UNL     1      24.383   2.526  51.313  1.00  0.00     0.005 C 
HETATM   12  C16 UNL     1      23.265   1.634  51.617  1.00  0.00     0.065 C 
ENDROOT
BRANCH  10  13
HETATM   13  N1  UNL     1      26.047   4.019  50.747  1.00  0.00    -0.325 N 
HETATM   14  C9  UNL     1      26.757   3.886  49.525  1.00  0.00     0.245 C 
HETATM   15  O3  UNL     1      27.103   2.853  48.942  1.00  0.00    -0.268 OA
HETATM   16  H11 UNL     1      25.773   4.910  51.212  1.00  0.00     0.169 HD
BRANCH  14  17
HETATM   17  C10 UNL     1      27.079   5.163  48.956  1.00  0.00     0.072 C 
HETATM   18  C11 UNL     1      28.054   5.787  48.337  1.00  0.00    -0.002 C 
BRANCH  18  19
HETATM   19  C12 UNL     1      28.664   6.945  47.687  1.00  0.00     0.143 C 
BRANCH  19  20
HETATM   20  N2  UNL     1      29.496   7.655  48.593  1.00  0.00    -0.418 N 
HETATM   21  C13 UNL     1      30.897   7.455  48.481  1.00  0.00     0.142 C 
HETATM   22  C14 UNL     1      29.055   8.945  48.999  1.00  0.00     0.142 C 
ENDBRANCH  19  20
ENDBRANCH  18  19
ENDBRANCH  14  17
ENDBRANCH  10  13
TORSDOF 4
ENDMDL
MODEL 3
REMARK VINA RESULT:      -6.6      4.645      6.522
REMARK  4 active torsions:
REMARK  status: ('A' for Active; 'I' for Inactive)
REMARK    1  A    between atoms: C8_10  and  N1_11 
REMARK       I    between atoms: N1_11  and  C9_12 
REMARK    2  A    between atoms: C9_12  and  C10_14 
REMARK    3  A    between atoms: C11_15  and  C12_16 
REMARK    4  A    between atoms: C12_16  and  N2_17 
ROOT
HETATM    1  C1  UNL     1      29.191   2.117  54.323  1.00  0.00     0.046 C 
HETATM    2  C2  UNL     1      28.072   1.357  53.710  1.00  0.00    -0.048 C 
HETATM    3  C3  UNL     1      28.308   0.081  53.555  1.00  0.00     0.077 C 
HETATM    4  O1  UNL     1      29.552  -0.366  53.980  1.00  0.00    -0.352 OA
HETATM    5  C4  UNL     1      29.826  -1.629  53.383  1.00  0.00     0.178 C 
HETATM    6  C5  UNL     1      28.492  -2.257  53.102  1.00  0.00     0.065 C 
HETATM    7  C6  UNL     1      27.557  -1.102  53.011  1.00  0.00     0.180 C 
HETATM    8  O2  UNL     1      26.418  -1.205  53.807  1.00  0.00    -0.373 OA
HETATM    9  C7  UNL     1      25.318  -0.941  53.023  1.00  0.00     0.225 C 
HETATM   10  C8  UNL     1      25.064   0.492  52.787  1.00  0.00     0.032 C 
HETATM   11  C15 UNL     1      25.735   1.613  52.975  1.00  0.00     0.005 C 
HETATM   12  C16 UNL     1      26.940   2.305  53.431  1.00  0.00     0.065 C 
ENDROOT
BRANCH  10  13
HETATM   13  N1  UNL     1      23.771   0.664  52.224  1.00  0.00    -0.325 N 
HETATM   14  C9  UNL     1      22.657   0.362  53.051  1.00  0.00     0.245 C 
HETATM   15  O3  UNL     1      22.650  -0.042  54.218  1.00  0.00    -0.268 OA
HETATM   16  H11 UNL     1      23.741   1.003  51.240  1.00  0.00     0.169 HD
BRANCH  14  17
HETATM   17  C10 UNL     1      21.415   0.581  52.367  1.00  0.00     0.072 C 
HETATM   18  C11 UNL     1      20.939   0.804  51.164  1.00  0.00    -0.002 C 
BRANCH  18  19
HETATM   19  C12 UNL     1      19.864   1.046  50.204  1.00  0.00     0.143 C 
BRANCH  19  20
HETATM   20  N2  UNL     1      20.382   1.534  48.975  1.00  0.00    -0.418 N 
HETATM   21  C13 UNL     1      19.823   2.735  48.466  1.00  0.00     0.142 C 
HETATM   22  C14 UNL     1      21.761   1.300  48.717  1.00  0.00     0.142 C 
ENDBRANCH  19  20
ENDBRANCH  18  19
ENDBRANCH  14  17
ENDBRANCH  10  13
TORSDOF 4
ENDMDL
MODEL 4
REMARK VINA RESULT:      -6.6      2.861      7.969
REMARK  4 active torsions:
REMARK  status: ('A' for Active; 'I' for Inactive)
REMARK    1  A    between atoms: C8_10  and  N1_11 
REMARK       I    between atoms: N1_11  and  C9_12 
REMARK    2  A    between atoms: C9_12  and  C10_14 
REMARK    3  A    between atoms: C11_15  and  C12_16 
REMARK    4  A    between atoms: C12_16  and  N2_17 
ROOT
HETATM    1  C1  UNL     1      27.725   5.097  48.575  1.00  0.00     0.046 C 
HETATM    2  C2  UNL     1      26.514   4.765  49.368  1.00  0.00    -0.048 C 
HETATM    3  C3  UNL     1      25.807   5.803  49.733  1.00  0.00     0.077 C 
HETATM    4  O1  UNL     1      26.288   7.042  49.330  1.00  0.00    -0.352 OA
HETATM    5  C4  UNL     1      25.689   8.060  50.124  1.00  0.00     0.178 C 
HETATM    6  C5  UNL     1      24.368   7.511  50.579  1.00  0.00     0.065 C 
HETATM    7  C6  UNL     1      24.544   6.034  50.513  1.00  0.00     0.180 C 
HETATM    8  O2  UNL     1      23.552   5.356  49.807  1.00  0.00    -0.373 OA
HETATM    9  C7  UNL     1      23.101   4.316  50.588  1.00  0.00     0.225 C 
HETATM   10  C8  UNL     1      23.967   3.125  50.582  1.00  0.00     0.032 C 
HETATM   11  C15 UNL     1      25.189   2.848  50.165  1.00  0.00     0.005 C 
HETATM   12  C16 UNL     1      26.437   3.275  49.534  1.00  0.00     0.065 C 
ENDROOT
BRANCH  10  13
HETATM   13  N1  UNL     1      23.282   2.029  51.171  1.00  0.00    -0.325 N 
HETATM   14  C9  UNL     1      23.546   1.755  52.538  1.00  0.00     0.245 C 
HETATM   15  O3  UNL     1      24.308   2.346  53.310  1.00  0.00    -0.268 OA
HETATM   16  H11 UNL     1      22.631   1.507  50.547  1.00  0.00     0.169 HD
BRANCH  14  17
HETATM   17  C10 UNL     1      22.790   0.630  53.010  1.00  0.00     0.072 C 
HETATM   18  C11 UNL     1      21.570   0.299  53.364  1.00  0.00    -0.002 C 
BRANCH  18  19
HETATM   19  C12 UNL     1      20.553  -0.637  53.839  1.00  0.00     0.143 C 
BRANCH  19  20
HETATM   20  N2  UNL     1      19.299  -0.375  53.226  1.00  0.00    -0.418 N 
HETATM   21  C13 UNL     1      19.299   0.464  52.081  1.00  0.00     0.142 C 
HETATM   22  C14 UNL     1      18.329  -1.414  53.269  1.00  0.00     0.142 C 
ENDBRANCH  19  20
ENDBRANCH  18  19
ENDBRANCH  14  17
ENDBRANCH  10  13
TORSDOF 4
ENDMDL
MODEL 5
REMARK VINA RESULT:      -6.6      4.401      8.437
REMARK  4 active torsions:
REMARK  status: ('A' for Active; 'I' for Inactive)
REMARK    1  A    between atoms: C8_10  and  N1_11 
REMARK       I    between atoms: N1_11  and  C9_12 
REMARK    2  A    between atoms: C9_12  and  C10_14 
REMARK    3  A    between atoms: C11_15  and  C12_16 
REMARK    4  A    between atoms: C12_16  and  N2_17 
ROOT
HETATM    1  C1  UNL     1      26.820   2.785  51.291  1.00  0.00     0.046 C 
HETATM    2  C2  UNL     1      26.196   1.641  52.004  1.00  0.00    -0.048 C 
HETATM    3  C3  UNL     1      26.994   1.024  52.835  1.00  0.00     0.077 C 
HETATM    4  O1  UNL     1      28.287   1.522  52.925  1.00  0.00    -0.352 OA
HETATM    5  C4  UNL     1      29.131   0.537  53.511  1.00  0.00     0.178 C 
HETATM    6  C5  UNL     1      28.242  -0.317  54.368  1.00  0.00     0.065 C 
HETATM    7  C6  UNL     1      26.888  -0.145  53.774  1.00  0.00     0.180 C 
HETATM    8  O2  UNL     1      25.890   0.208  54.681  1.00  0.00    -0.373 OA
HETATM    9  C7  UNL     1      24.823  -0.642  54.502  1.00  0.00     0.225 C 
HETATM   10  C8  UNL     1      23.954  -0.303  53.361  1.00  0.00     0.032 C 
HETATM   11  C15 UNL     1      24.031   0.511  52.325  1.00  0.00     0.005 C 
HETATM   12  C16 UNL     1      24.769   1.512  51.554  1.00  0.00     0.065 C 
ENDROOT
BRANCH  10  13
HETATM   13  N1  UNL     1      22.748  -1.050  53.437  1.00  0.00    -0.325 N 
HETATM   14  C9  UNL     1      21.619  -0.406  54.009  1.00  0.00     0.245 C 
HETATM   15  O3  UNL     1      21.533   0.739  54.464  1.00  0.00    -0.268 OA
HETATM   16  H11 UNL     1      22.786  -2.021  53.063  1.00  0.00     0.169 HD
BRANCH  14  17
HETATM   17  C10 UNL     1      20.469  -1.264  54.023  1.00  0.00     0.072 C 
HETATM   18  C11 UNL     1      19.247  -1.338  53.550  1.00  0.00    -0.002 C 
BRANCH  18  19
HETATM   19  C12 UNL     1      17.947  -1.983  53.374  1.00  0.00     0.143 C 
BRANCH  19  20
HETATM   20  N2  UNL     1      17.185  -1.323  52.374  1.00  0.00    -0.418 N 
HETATM   21  C13 UNL     1      15.804  -1.123  52.636  1.00  0.00     0.142 C 
HETATM   22  C14 UNL     1      17.851  -0.326  51.608  1.00  0.00     0.142 C 
ENDBRANCH  19  20
ENDBRANCH  18  19
ENDBRANCH  14  17
ENDBRANCH  10  13
TORSDOF 4
ENDMDL
MODEL 6
REMARK VINA RESULT:      -6.5      2.320      3.190
REMARK  4 active torsions:
REMARK  status: ('A' for Active; 'I' for Inactive)
REMARK    1  A    between atoms: C8_10  and  N1_11 
REMARK       I    between atoms: N1_11  and  C9_12 
REMARK    2  A    between atoms: C9_12  and  C10_14 
REMARK    3  A    between atoms: C11_15  and  C12_16 
REMARK    4  A    between atoms: C12_16  and  N2_17 
ROOT
HETATM    1  C1  UNL     1      21.916  -0.895  54.928  1.00  0.00     0.046 C 
HETATM    2  C2  UNL     1      21.967  -0.204  53.614  1.00  0.00    -0.048 C 
HETATM    3  C3  UNL     1      20.805  -0.067  53.031  1.00  0.00     0.077 C 
HETATM    4  O1  UNL     1      19.713  -0.582  53.717  1.00  0.00    -0.352 OA
HETATM    5  C4  UNL     1      18.624  -0.745  52.814  1.00  0.00     0.178 C 
HETATM    6  C5  UNL     1      18.835   0.263  51.722  1.00  0.00     0.065 C 
HETATM    7  C6  UNL     1      20.300   0.529  51.747  1.00  0.00     0.180 C 
HETATM    8  O2  UNL     1      20.649   1.876  51.811  1.00  0.00    -0.373 OA
HETATM    9  C7  UNL     1      21.581   2.127  50.829  1.00  0.00     0.225 C 
HETATM   10  C8  UNL     1      22.955   1.719  51.169  1.00  0.00     0.032 C 
HETATM   11  C15 UNL     1      23.516   0.987  52.114  1.00  0.00     0.005 C 
HETATM   12  C16 UNL     1      23.393   0.160  53.314  1.00  0.00     0.065 C 
ENDROOT
BRANCH  10  13
HETATM   13  N1  UNL     1      23.867   2.274  50.232  1.00  0.00    -0.325 N 
HETATM   14  C9  UNL     1      24.482   3.507  50.575  1.00  0.00     0.245 C 
HETATM   15  O3  UNL     1      24.332   4.186  51.596  1.00  0.00    -0.268 OA
HETATM   16  H11 UNL     1      24.016   1.727  49.358  1.00  0.00     0.169 HD
BRANCH  14  17
HETATM   17  C10 UNL     1      25.380   3.955  49.550  1.00  0.00     0.072 C 
HETATM   18  C11 UNL     1      26.352   4.814  49.350  1.00  0.00    -0.002 C 
BRANCH  18  19
HETATM   19  C12 UNL     1      27.376   5.469  48.538  1.00  0.00     0.143 C 
BRANCH  19  20
HETATM   20  N2  UNL     1      27.188   6.877  48.525  1.00  0.00    -0.418 N 
HETATM   21  C13 UNL     1      28.353   7.687  48.526  1.00  0.00     0.142 C 
HETATM   22  C14 UNL     1      26.054   7.371  47.822  1.00  0.00     0.142 C 
ENDBRANCH  19  20
ENDBRANCH  18  19
ENDBRANCH  14  17
ENDBRANCH  10  13
TORSDOF 4
ENDMDL
MODEL 7
REMARK VINA RESULT:      -6.4      1.980      3.190
REMARK  4 active torsions:
REMARK  status: ('A' for Active; 'I' for Inactive)
REMARK    1  A    between atoms: C8_10  and  N1_11 
REMARK       I    between atoms: N1_11  and  C9_12 
REMARK    2  A    between atoms: C9_12  and  C10_14 
REMARK    3  A    between atoms: C11_15  and  C12_16 
REMARK    4  A    between atoms: C12_16  and  N2_17 
ROOT
HETATM    1  C1  UNL     1      24.768  -0.845  54.483  1.00  0.00     0.046 C 
HETATM    2  C2  UNL     1      25.247   0.364  53.766  1.00  0.00    -0.048 C 
HETATM    3  C3  UNL     1      26.548   0.494  53.737  1.00  0.00     0.077 C 
HETATM    4  O1  UNL     1      27.275  -0.503  54.373  1.00  0.00    -0.352 OA
HETATM    5  C4  UNL     1      28.595  -0.032  54.629  1.00  0.00     0.178 C 
HETATM    6  C5  UNL     1      28.875   1.009  53.584  1.00  0.00     0.065 C 
HETATM    7  C6  UNL     1      27.525   1.485  53.172  1.00  0.00     0.180 C 
HETATM    8  O2  UNL     1      27.296   1.476  51.797  1.00  0.00    -0.373 OA
HETATM    9  C7  UNL     1      26.799   2.707  51.434  1.00  0.00     0.225 C 
HETATM   10  C8  UNL     1      25.363   2.893  51.707  1.00  0.00     0.032 C 
HETATM   11  C15 UNL     1      24.441   2.246  52.396  1.00  0.00     0.005 C 
HETATM   12  C16 UNL     1      24.058   1.125  53.254  1.00  0.00     0.065 C 
ENDROOT
BRANCH  10  13
HETATM   13  N1  UNL     1      24.895   4.059  51.045  1.00  0.00    -0.325 N 
HETATM   14  C9  UNL     1      24.270   3.883  49.782  1.00  0.00     0.245 C 
HETATM   15  O3  UNL     1      24.072   2.835  49.159  1.00  0.00    -0.268 OA
HETATM   16  H11 UNL     1      25.047   4.961  51.543  1.00  0.00     0.169 HD
BRANCH  14  17
HETATM   17  C10 UNL     1      23.842   5.134  49.224  1.00  0.00     0.072 C 
HETATM   18  C11 UNL     1      24.258   6.089  48.426  1.00  0.00    -0.002 C 
BRANCH  18  19
HETATM   19  C12 UNL     1      24.112   7.357  47.714  1.00  0.00     0.143 C 
BRANCH  19  20
HETATM   20  N2  UNL     1      25.208   8.219  47.986  1.00  0.00    -0.418 N 
HETATM   21  C13 UNL     1      25.134   9.013  49.161  1.00  0.00     0.142 C 
HETATM   22  C14 UNL     1      26.497   7.771  47.586  1.00  0.00     0.142 C 
ENDBRANCH  19  20
ENDBRANCH  18  19
ENDBRANCH  14  17
ENDBRANCH  10  13
TORSDOF 4
ENDMDL
MODEL 8
REMARK VINA RESULT:      -6.3      3.386      4.747
REMARK  4 active torsions:
REMARK  status: ('A' for Active; 'I' for Inactive)
REMARK    1  A    between atoms: C8_10  and  N1_11 
REMARK       I    between atoms: N1_11  and  C9_12 
REMARK    2  A    between atoms: C9_12  and  C10_14 
REMARK    3  A    between atoms: C11_15  and  C12_16 
REMARK    4  A    between atoms: C12_16  and  N2_17 
ROOT
HETATM    1  C1  UNL     1      24.826  -1.085  55.050  1.00  0.00     0.046 C 
HETATM    2  C2  UNL     1      25.114  -0.031  54.044  1.00  0.00    -0.048 C 
HETATM    3  C3  UNL     1      26.373   0.316  53.971  1.00  0.00     0.077 C 
HETATM    4  O1  UNL     1      27.238  -0.344  54.834  1.00  0.00    -0.352 OA
HETATM    5  C4  UNL     1      28.446   0.402  54.948  1.00  0.00     0.178 C 
HETATM    6  C5  UNL     1      28.579   1.179  53.671  1.00  0.00     0.065 C 
HETATM    7  C6  UNL     1      27.184   1.288  53.163  1.00  0.00     0.180 C 
HETATM    8  O2  UNL     1      27.010   0.892  51.837  1.00  0.00    -0.373 OA
HETATM    9  C7  UNL     1      26.320   1.884  51.178  1.00  0.00     0.225 C 
HETATM   10  C8  UNL     1      24.865   1.876  51.408  1.00  0.00     0.032 C 
HETATM   11  C15 UNL     1      24.045   1.271  52.247  1.00  0.00     0.005 C 
HETATM   12  C16 UNL     1      23.831   0.353  53.366  1.00  0.00     0.065 C 
ENDROOT
BRANCH  10  13
HETATM   13  N1  UNL     1      24.226   2.735  50.474  1.00  0.00    -0.325 N 
HETATM   14  C9  UNL     1      23.865   4.032  50.926  1.00  0.00     0.245 C 
HETATM   15  O3  UNL     1      24.028   4.533  52.043  1.00  0.00    -0.268 OA
HETATM   16  H11 UNL     1      24.071   2.343  49.522  1.00  0.00     0.169 HD
BRANCH  14  17
HETATM   17  C10 UNL     1      23.233   4.797  49.889  1.00  0.00     0.072 C 
HETATM   18  C11 UNL     1      22.678   4.651  48.708  1.00  0.00    -0.002 C 
BRANCH  18  19
HETATM   19  C12 UNL     1      22.007   5.142  47.506  1.00  0.00     0.143 C 
BRANCH  19  20
HETATM   20  N2  UNL     1      21.395   4.075  46.796  1.00  0.00    -0.418 N 
HETATM   21  C13 UNL     1      21.777   3.894  45.440  1.00  0.00     0.142 C 
HETATM   22  C14 UNL     1      21.071   2.907  47.540  1.00  0.00     0.142 C 
ENDBRANCH  19  20
ENDBRANCH  18  19
ENDBRANCH  14  17
ENDBRANCH  10  13
TORSDOF 4
ENDMDL
MODEL 9
REMARK VINA RESULT:      -6.3      2.750      7.903
REMARK  4 active torsions:
REMARK  status: ('A' for Active; 'I' for Inactive)
REMARK    1  A    between atoms: C8_10  and  N1_11 
REMARK       I    between atoms: N1_11  and  C9_12 
REMARK    2  A    between atoms: C9_12  and  C10_14 
REMARK    3  A    between atoms: C11_15  and  C12_16 
REMARK    4  A    between atoms: C12_16  and  N2_17 
ROOT
HETATM    1  C1  UNL     1      28.715   6.242  47.757  1.00  0.00     0.046 C 
HETATM    2  C2  UNL     1      27.556   6.039  48.664  1.00  0.00    -0.048 C 
HETATM    3  C3  UNL     1      26.978   7.145  49.056  1.00  0.00     0.077 C 
HETATM    4  O1  UNL     1      27.527   8.325  48.572  1.00  0.00    -0.352 OA
HETATM    5  C4  UNL     1      27.092   9.411  49.384  1.00  0.00     0.178 C 
HETATM    6  C5  UNL     1      25.775   8.994  49.970  1.00  0.00     0.065 C 
HETATM    7  C6  UNL     1      25.816   7.506  49.936  1.00  0.00     0.180 C 
HETATM    8  O2  UNL     1      24.709   6.902  49.342  1.00  0.00    -0.373 OA
HETATM    9  C7  UNL     1      24.241   5.926  50.192  1.00  0.00     0.225 C 
HETATM   10  C8  UNL     1      24.997   4.662  50.148  1.00  0.00     0.032 C 
HETATM   11  C15 UNL     1      26.148   4.267  49.635  1.00  0.00     0.005 C 
HETATM   12  C16 UNL     1      27.366   4.566  48.883  1.00  0.00     0.065 C 
ENDROOT
BRANCH  10  13
HETATM   13  N1  UNL     1      24.275   3.646  50.829  1.00  0.00    -0.325 N 
HETATM   14  C9  UNL     1      23.456   2.793  50.044  1.00  0.00     0.245 C 
HETATM   15  O3  UNL     1      23.273   2.809  48.822  1.00  0.00    -0.268 OA
HETATM   16  H11 UNL     1      24.405   3.605  51.862  1.00  0.00     0.169 HD
BRANCH  14  17
HETATM   17  C10 UNL     1      22.786   1.812  50.850  1.00  0.00     0.072 C 
HETATM   18  C11 UNL     1      22.520   1.533  52.105  1.00  0.00    -0.002 C 
BRANCH  18  19
HETATM   19  C12 UNL     1      21.935   0.723  53.171  1.00  0.00     0.143 C 
BRANCH  19  20
HETATM   20  N2  UNL     1      22.641  -0.500  53.322  1.00  0.00    -0.418 N 
HETATM   21  C13 UNL     1      24.039  -0.418  53.557  1.00  0.00     0.142 C 
HETATM   22  C14 UNL     1      21.943  -1.578  53.934  1.00  0.00     0.142 C 
ENDBRANCH  19  20
ENDBRANCH  18  19
ENDBRANCH  14  17
ENDBRANCH  10  13
TORSDOF 4
ENDMDL
