MODEL 1
REMARK VINA RESULT:      -8.0      0.000      0.000
REMARK  5 active torsions:
REMARK  status: ('A' for Active; 'I' for Inactive)
REMARK    1  A    between atoms: C1_2  and  C2_3 
REMARK       I    between atoms: C1_2  and  N2_14 
REMARK    2  A    between atoms: C2_3  and  C3_4 
REMARK    3  A    between atoms: C3_4  and  C4_5 
REMARK    4  A    between atoms: N2_14  and  C11_15 
REMARK    5  A    between atoms: C11_15  and  C12_16 
ROOT
HETATM    1  O1  UNL     1      26.971   2.945  50.453  1.00  0.00    -0.274 OA
HETATM    2  C1  UNL     1      26.101   2.732  51.334  1.00  0.00     0.217 C 
HETATM    3  N2  UNL     1      26.471   2.378  52.648  1.00  0.00    -0.357 N 
HETATM    4  H11 UNL     1      25.709   2.205  53.366  1.00  0.00     0.162 HD
ENDROOT
BRANCH   2   5
HETATM    5  C2  UNL     1      24.661   2.844  51.028  1.00  0.00     0.104 C 
BRANCH   5   6
HETATM    6  C3  UNL     1      23.842   1.692  51.497  1.00  0.00     0.027 C 
BRANCH   6   7
HETATM    7  C4  UNL     1      23.133   1.898  52.801  1.00  0.00     0.098 A 
HETATM    8  C5  UNL     1      21.665   1.969  52.576  1.00  0.00     0.090 A 
HETATM    9  S1  UNL     1      21.017   3.257  51.858  1.00  0.00    -0.064 SA
HETATM   10  N1  UNL     1      21.397   0.704  53.162  1.00  0.00    -0.340 N 
HETATM   11  C6  UNL     1      20.324  -0.211  53.467  1.00  0.00     0.157 A 
HETATM   12  C10 UNL     1      22.792   0.586  53.412  1.00  0.00     0.023 A 
HETATM   13  C7  UNL     1      20.912  -1.394  54.144  1.00  0.00    -0.007 A 
HETATM   14  C8  UNL     1      22.189  -1.574  54.414  1.00  0.00    -0.000 A 
HETATM   15  C9  UNL     1      23.139  -0.538  54.027  1.00  0.00     0.026 A 
ENDBRANCH   6   7
ENDBRANCH   5   6
ENDBRANCH   2   5
BRANCH   3  16
HETATM   16  C11 UNL     1      27.826   2.221  53.126  1.00  0.00     0.161 C 
BRANCH  16  17
HETATM   17  C12 UNL     1      28.133   0.769  53.159  1.00  0.00    -0.041 A 
HETATM   18  C13 UNL     1      27.317  -0.272  52.827  1.00  0.00     0.009 A 
HETATM   19  C14 UNL     1      27.659  -1.587  52.884  1.00  0.00     0.001 A 
HETATM   20  C15 UNL     1      28.936  -1.938  53.310  1.00  0.00     0.000 A 
HETATM   21  C16 UNL     1      29.796  -0.931  53.657  1.00  0.00     0.001 A 
HETATM   22  C17 UNL     1      29.411   0.395  53.585  1.00  0.00     0.009 A 
ENDBRANCH  16  17
ENDBRANCH   3  16
TORSDOF 5
ENDMDL
MODEL 2
REMARK VINA RESULT:      -7.8      3.367      6.395
REMARK  5 active torsions:
REMARK  status: ('A' for Active; 'I' for Inactive)
REMARK    1  A    between atoms: C1_2  and  C2_3 
REMARK       I    between atoms: C1_2  and  N2_14 
REMARK    2  A    between atoms: C2_3  and  C3_4 
REMARK    3  A    between atoms: C3_4  and  C4_5 
REMARK    4  A    between atoms: N2_14  and  C11_15 
REMARK    5  A    between atoms: C11_15  and  C12_16 
ROOT
HETATM    1  O1  UNL     1      24.857   2.338  50.921  1.00  0.00    -0.274 OA
HETATM    2  C1  UNL     1      26.029   2.715  51.171  1.00  0.00     0.217 C 
HETATM    3  N2  UNL     1      26.605   3.799  50.477  1.00  0.00    -0.357 N 
HETATM    4  H11 UNL     1      27.598   4.090  50.715  1.00  0.00     0.162 HD
ENDROOT
BRANCH   2   5
HETATM    5  C2  UNL     1      26.846   2.040  52.199  1.00  0.00     0.104 C 
BRANCH   5   6
HETATM    6  C3  UNL     1      26.324   2.179  53.587  1.00  0.00     0.027 C 
BRANCH   6   7
HETATM    7  C4  UNL     1      26.358   0.930  54.413  1.00  0.00     0.098 A 
HETATM    8  C5  UNL     1      25.736  -0.193  53.664  1.00  0.00     0.090 A 
HETATM    9  S1  UNL     1      24.144  -0.225  53.426  1.00  0.00    -0.064 SA
HETATM   10  N1  UNL     1      26.963  -0.870  53.432  1.00  0.00    -0.340 N 
HETATM   11  C6  UNL     1      27.520  -2.045  52.807  1.00  0.00     0.157 A 
HETATM   12  C10 UNL     1      27.610   0.173  54.150  1.00  0.00     0.023 A 
HETATM   13  C7  UNL     1      28.987  -2.032  53.038  1.00  0.00    -0.007 A 
HETATM   14  C8  UNL     1      29.657  -1.106  53.694  1.00  0.00    -0.000 A 
HETATM   15  C9  UNL     1      28.924   0.021  54.258  1.00  0.00     0.026 A 
ENDBRANCH   6   7
ENDBRANCH   5   6
ENDBRANCH   2   5
BRANCH   3  16
HETATM   16  C11 UNL     1      25.959   4.574  49.442  1.00  0.00     0.161 C 
BRANCH  16  17
HETATM   17  C12 UNL     1      26.999   5.389  48.766  1.00  0.00    -0.041 A 
HETATM   18  C13 UNL     1      28.304   5.068  48.538  1.00  0.00     0.009 A 
HETATM   19  C14 UNL     1      29.212   5.866  47.914  1.00  0.00     0.001 A 
HETATM   20  C15 UNL     1      28.813   7.118  47.457  1.00  0.00     0.000 A 
HETATM   21  C16 UNL     1      27.512   7.491  47.661  1.00  0.00     0.001 A 
HETATM   22  C17 UNL     1      26.619   6.651  48.299  1.00  0.00     0.009 A 
ENDBRANCH  16  17
ENDBRANCH   3  16
TORSDOF 5
ENDMDL
MODEL 3
REMARK VINA RESULT:      -7.6      1.551      2.033
REMARK  5 active torsions:
REMARK  status: ('A' for Active; 'I' for Inactive)
REMARK    1  A    between atoms: C1_2  and  C2_3 
REMARK       I    between atoms: C1_2  and  N2_14 
REMARK    2  A    between atoms: C2_3  and  C3_4 
REMARK    3  A    between atoms: C3_4  and  C4_5 
REMARK    4  A    between atoms: N2_14  and  C11_15 
REMARK    5  A    between atoms: C11_15  and  C12_16 
ROOT
HETATM    1  O1  UNL     1      26.782   2.836  50.851  1.00  0.00    -0.274 OA
HETATM    2  C1  UNL     1      26.087   2.660  51.883  1.00  0.00     0.217 C 
HETATM    3  N2  UNL     1      26.688   2.335  53.116  1.00  0.00    -0.357 N 
HETATM    4  H11 UNL     1      26.069   2.193  53.967  1.00  0.00     0.162 HD
ENDROOT
BRANCH   2   5
HETATM    5  C2  UNL     1      24.616   2.787  51.844  1.00  0.00     0.104 C 
BRANCH   5   6
HETATM    6  C3  UNL     1      23.901   1.967  52.860  1.00  0.00     0.027 C 
BRANCH   6   7
HETATM    7  C4  UNL     1      23.541   0.578  52.428  1.00  0.00     0.098 A 
HETATM    8  C5  UNL     1      23.236  -0.261  53.616  1.00  0.00     0.090 A 
HETATM    9  S1  UNL     1      24.418  -0.724  54.607  1.00  0.00    -0.064 SA
HETATM   10  N1  UNL     1      21.841  -0.321  53.360  1.00  0.00    -0.340 N 
HETATM   11  C6  UNL     1      20.605  -0.859  53.874  1.00  0.00     0.157 A 
HETATM   12  C10 UNL     1      22.076   0.474  52.203  1.00  0.00     0.023 A 
HETATM   13  C7  UNL     1      19.513  -0.452  52.956  1.00  0.00    -0.007 A 
HETATM   14  C8  UNL     1      19.651   0.277  51.866  1.00  0.00    -0.000 A 
HETATM   15  C9  UNL     1      20.983   0.742  51.500  1.00  0.00     0.026 A 
ENDBRANCH   6   7
ENDBRANCH   5   6
ENDBRANCH   2   5
BRANCH   3  16
HETATM   16  C11 UNL     1      28.106   2.169  53.341  1.00  0.00     0.161 C 
BRANCH  16  17
HETATM   17  C12 UNL     1      28.408   0.716  53.300  1.00  0.00    -0.041 A 
HETATM   18  C13 UNL     1      27.588  -0.304  52.916  1.00  0.00     0.009 A 
HETATM   19  C14 UNL     1      27.924  -1.621  52.905  1.00  0.00     0.001 A 
HETATM   20  C15 UNL     1      29.200  -1.998  53.313  1.00  0.00     0.000 A 
HETATM   21  C16 UNL     1      30.064  -1.013  53.710  1.00  0.00     0.001 A 
HETATM   22  C17 UNL     1      29.685   0.316  53.706  1.00  0.00     0.009 A 
ENDBRANCH  16  17
ENDBRANCH   3  16
TORSDOF 5
ENDMDL
MODEL 4
REMARK VINA RESULT:      -7.5      2.572      5.969
REMARK  5 active torsions:
REMARK  status: ('A' for Active; 'I' for Inactive)
REMARK    1  A    between atoms: C1_2  and  C2_3 
REMARK       I    between atoms: C1_2  and  N2_14 
REMARK    2  A    between atoms: C2_3  and  C3_4 
REMARK    3  A    between atoms: C3_4  and  C4_5 
REMARK    4  A    between atoms: N2_14  and  C11_15 
REMARK    5  A    between atoms: C11_15  and  C12_16 
ROOT
HETATM    1  O1  UNL     1      27.139   3.216  50.326  1.00  0.00    -0.274 OA
HETATM    2  C1  UNL     1      26.479   2.819  51.319  1.00  0.00     0.217 C 
HETATM    3  N2  UNL     1      25.105   3.111  51.439  1.00  0.00    -0.357 N 
HETATM    4  H11 UNL     1      24.579   2.759  52.292  1.00  0.00     0.162 HD
ENDROOT
BRANCH   2   5
HETATM    5  C2  UNL     1      27.116   2.034  52.396  1.00  0.00     0.104 C 
BRANCH   5   6
HETATM    6  C3  UNL     1      26.389   2.071  53.695  1.00  0.00     0.027 C 
BRANCH   6   7
HETATM    7  C4  UNL     1      26.386   0.786  54.466  1.00  0.00     0.098 A 
HETATM    8  C5  UNL     1      25.719  -0.280  53.673  1.00  0.00     0.090 A 
HETATM    9  S1  UNL     1      24.125  -0.246  53.448  1.00  0.00    -0.064 SA
HETATM   10  N1  UNL     1      26.919  -0.988  53.400  1.00  0.00    -0.340 N 
HETATM   11  C6  UNL     1      27.430  -2.153  52.720  1.00  0.00     0.157 A 
HETATM   12  C10 UNL     1      27.608  -0.001  54.158  1.00  0.00     0.023 A 
HETATM   13  C7  UNL     1      28.898  -2.201  52.938  1.00  0.00    -0.007 A 
HETATM   14  C8  UNL     1      29.606  -1.329  53.628  1.00  0.00    -0.000 A 
HETATM   15  C9  UNL     1      28.916  -0.203  54.248  1.00  0.00     0.026 A 
ENDBRANCH   6   7
ENDBRANCH   5   6
ENDBRANCH   2   5
BRANCH   3  16
HETATM   16  C11 UNL     1      24.319   3.864  50.488  1.00  0.00     0.161 C 
BRANCH  16  17
HETATM   17  C12 UNL     1      23.357   2.931  49.850  1.00  0.00    -0.041 A 
HETATM   18  C13 UNL     1      22.994   2.864  48.538  1.00  0.00     0.009 A 
HETATM   19  C14 UNL     1      22.098   1.985  48.014  1.00  0.00     0.001 A 
HETATM   20  C15 UNL     1      21.481   1.064  48.856  1.00  0.00     0.000 A 
HETATM   21  C16 UNL     1      21.809   1.089  50.185  1.00  0.00     0.001 A 
HETATM   22  C17 UNL     1      22.725   1.998  50.679  1.00  0.00     0.009 A 
ENDBRANCH  16  17
ENDBRANCH   3  16
TORSDOF 5
ENDMDL
MODEL 5
REMARK VINA RESULT:      -7.5      3.337      5.285
REMARK  5 active torsions:
REMARK  status: ('A' for Active; 'I' for Inactive)
REMARK    1  A    between atoms: C1_2  and  C2_3 
REMARK       I    between atoms: C1_2  and  N2_14 
REMARK    2  A    between atoms: C2_3  and  C3_4 
REMARK    3  A    between atoms: C3_4  and  C4_5 
REMARK    4  A    between atoms: N2_14  and  C11_15 
REMARK    5  A    between atoms: C11_15  and  C12_16 
ROOT
HETATM    1  O1  UNL     1      24.050   2.961  49.935  1.00  0.00    -0.274 OA
HETATM    2  C1  UNL     1      24.774   3.355  50.883  1.00  0.00     0.217 C 
HETATM    3  N2  UNL     1      26.133   3.668  50.676  1.00  0.00    -0.357 N 
HETATM    4  H11 UNL     1      26.715   3.998  51.500  1.00  0.00     0.162 HD
ENDROOT
BRANCH   2   5
HETATM    5  C2  UNL     1      24.230   3.507  52.248  1.00  0.00     0.104 C 
BRANCH   5   6
HETATM    6  C3  UNL     1      24.661   2.448  53.202  1.00  0.00     0.027 C 
BRANCH   6   7
HETATM    7  C4  UNL     1      24.485   1.040  52.721  1.00  0.00     0.098 A 
HETATM    8  C5  UNL     1      24.926   0.085  53.772  1.00  0.00     0.090 A 
HETATM    9  S1  UNL     1      26.492  -0.077  54.115  1.00  0.00    -0.064 SA
HETATM   10  N1  UNL     1      23.613  -0.353  54.088  1.00  0.00    -0.340 N 
HETATM   11  C6  UNL     1      22.883  -1.246  54.954  1.00  0.00     0.157 A 
HETATM   12  C10 UNL     1      23.135   0.537  53.086  1.00  0.00     0.023 A 
HETATM   13  C7  UNL     1      21.440  -1.115  54.632  1.00  0.00    -0.007 A 
HETATM   14  C8  UNL     1      20.921  -0.319  53.718  1.00  0.00    -0.000 A 
HETATM   15  C9  UNL     1      21.817   0.523  52.934  1.00  0.00     0.026 A 
ENDBRANCH   6   7
ENDBRANCH   5   6
ENDBRANCH   2   5
BRANCH   3  16
HETATM   16  C11 UNL     1      26.833   3.578  49.415  1.00  0.00     0.161 C 
BRANCH  16  17
HETATM   17  C12 UNL     1      27.010   4.956  48.892  1.00  0.00    -0.041 A 
HETATM   18  C13 UNL     1      26.078   5.948  48.801  1.00  0.00     0.009 A 
HETATM   19  C14 UNL     1      26.303   7.194  48.305  1.00  0.00     0.001 A 
HETATM   20  C15 UNL     1      27.575   7.520  47.842  1.00  0.00     0.000 A 
HETATM   21  C16 UNL     1      28.548   6.560  47.910  1.00  0.00     0.001 A 
HETATM   22  C17 UNL     1      28.280   5.304  48.422  1.00  0.00     0.009 A 
ENDBRANCH  16  17
ENDBRANCH   3  16
TORSDOF 5
ENDMDL
MODEL 6
REMARK VINA RESULT:      -7.5      2.714      6.705
REMARK  5 active torsions:
REMARK  status: ('A' for Active; 'I' for Inactive)
REMARK    1  A    between atoms: C1_2  and  C2_3 
REMARK       I    between atoms: C1_2  and  N2_14 
REMARK    2  A    between atoms: C2_3  and  C3_4 
REMARK    3  A    between atoms: C3_4  and  C4_5 
REMARK    4  A    between atoms: N2_14  and  C11_15 
REMARK    5  A    between atoms: C11_15  and  C12_16 
ROOT
HETATM    1  O1  UNL     1      25.894   1.968  53.702  1.00  0.00    -0.274 OA
HETATM    2  C1  UNL     1      25.935   1.058  52.837  1.00  0.00     0.217 C 
HETATM    3  N2  UNL     1      25.370  -0.209  53.089  1.00  0.00    -0.357 N 
HETATM    4  H11 UNL     1      25.423  -0.954  52.335  1.00  0.00     0.162 HD
ENDROOT
BRANCH   2   5
HETATM    5  C2  UNL     1      26.576   1.279  51.524  1.00  0.00     0.104 C 
BRANCH   5   6
HETATM    6  C3  UNL     1      26.783   2.712  51.176  1.00  0.00     0.027 C 
BRANCH   6   7
HETATM    7  C4  UNL     1      26.012   3.203  49.989  1.00  0.00     0.098 A 
HETATM    8  C5  UNL     1      25.082   4.287  50.400  1.00  0.00     0.090 A 
HETATM    9  S1  UNL     1      23.779   3.946  51.283  1.00  0.00    -0.064 SA
HETATM   10  N1  UNL     1      25.820   5.319  49.762  1.00  0.00    -0.340 N 
HETATM   11  C6  UNL     1      25.827   6.743  49.528  1.00  0.00     0.157 A 
HETATM   12  C10 UNL     1      26.738   4.321  49.332  1.00  0.00     0.023 A 
HETATM   13  C7  UNL     1      27.017   7.062  48.700  1.00  0.00    -0.007 A 
HETATM   14  C8  UNL     1      27.908   6.196  48.260  1.00  0.00    -0.000 A 
HETATM   15  C9  UNL     1      27.741   4.788  48.600  1.00  0.00     0.026 A 
ENDBRANCH   6   7
ENDBRANCH   5   6
ENDBRANCH   2   5
BRANCH   3  16
HETATM   16  C11 UNL     1      24.707  -0.605  54.311  1.00  0.00     0.161 C 
BRANCH  16  17
HETATM   17  C12 UNL     1      23.246  -0.643  54.046  1.00  0.00    -0.041 A 
HETATM   18  C13 UNL     1      22.286  -1.334  54.724  1.00  0.00     0.009 A 
HETATM   19  C14 UNL     1      20.959  -1.331  54.426  1.00  0.00     0.001 A 
HETATM   20  C15 UNL     1      20.507  -0.573  53.350  1.00  0.00     0.000 A 
HETATM   21  C16 UNL     1      21.431   0.140  52.634  1.00  0.00     0.001 A 
HETATM   22  C17 UNL     1      22.772   0.111  52.969  1.00  0.00     0.009 A 
ENDBRANCH  16  17
ENDBRANCH   3  16
TORSDOF 5
ENDMDL
MODEL 7
REMARK VINA RESULT:      -7.4      2.869      5.484
REMARK  5 active torsions:
REMARK  status: ('A' for Active; 'I' for Inactive)
REMARK    1  A    between atoms: C1_2  and  C2_3 
REMARK       I    between atoms: C1_2  and  N2_14 
REMARK    2  A    between atoms: C2_3  and  C3_4 
REMARK    3  A    between atoms: C3_4  and  C4_5 
REMARK    4  A    between atoms: N2_14  and  C11_15 
REMARK    5  A    between atoms: C11_15  and  C12_16 
ROOT
HETATM    1  O1  UNL     1      22.276   4.872  52.295  1.00  0.00    -0.274 OA
HETATM    2  C1  UNL     1      22.176   3.928  51.472  1.00  0.00     0.217 C 
HETATM    3  N2  UNL     1      22.637   4.069  50.148  1.00  0.00    -0.357 N 
HETATM    4  H11 UNL     1      22.536   3.250  49.480  1.00  0.00     0.162 HD
ENDROOT
BRANCH   2   5
HETATM    5  C2  UNL     1      21.574   2.637  51.861  1.00  0.00     0.104 C 
BRANCH   5   6
HETATM    6  C3  UNL     1      22.520   1.488  51.845  1.00  0.00     0.027 C 
BRANCH   6   7
HETATM    7  C4  UNL     1      23.271   1.256  53.121  1.00  0.00     0.098 A 
HETATM    8  C5  UNL     1      23.455  -0.202  53.345  1.00  0.00     0.090 A 
HETATM    9  S1  UNL     1      22.199  -1.126  53.750  1.00  0.00    -0.064 SA
HETATM   10  N1  UNL     1      24.849  -0.185  53.073  1.00  0.00    -0.340 N 
HETATM   11  C6  UNL     1      26.010  -1.038  52.996  1.00  0.00     0.157 A 
HETATM   12  C10 UNL     1      24.733   1.217  52.858  1.00  0.00     0.023 A 
HETATM   13  C7  UNL     1      27.175  -0.190  52.640  1.00  0.00    -0.007 A 
HETATM   14  C8  UNL     1      27.149   1.111  52.429  1.00  0.00    -0.000 A 
HETATM   15  C9  UNL     1      25.877   1.813  52.548  1.00  0.00     0.026 A 
ENDBRANCH   6   7
ENDBRANCH   5   6
ENDBRANCH   2   5
BRANCH   3  16
HETATM   16  C11 UNL     1      23.250   5.254  49.593  1.00  0.00     0.161 C 
BRANCH  16  17
HETATM   17  C12 UNL     1      24.686   4.960  49.360  1.00  0.00    -0.041 A 
HETATM   18  C13 UNL     1      25.353   3.792  49.587  1.00  0.00     0.009 A 
HETATM   19  C14 UNL     1      26.678   3.587  49.357  1.00  0.00     0.001 A 
HETATM   20  C15 UNL     1      27.448   4.630  48.850  1.00  0.00     0.000 A 
HETATM   21  C16 UNL     1      26.827   5.825  48.605  1.00  0.00     0.001 A 
HETATM   22  C17 UNL     1      25.477   5.994  48.852  1.00  0.00     0.009 A 
ENDBRANCH  16  17
ENDBRANCH   3  16
TORSDOF 5
ENDMDL
MODEL 8
REMARK VINA RESULT:      -7.3      2.136      2.623
REMARK  5 active torsions:
REMARK  status: ('A' for Active; 'I' for Inactive)
REMARK    1  A    between atoms: C1_2  and  C2_3 
REMARK       I    between atoms: C1_2  and  N2_14 
REMARK    2  A    between atoms: C2_3  and  C3_4 
REMARK    3  A    between atoms: C3_4  and  C4_5 
REMARK    4  A    between atoms: N2_14  and  C11_15 
REMARK    5  A    between atoms: C11_15  and  C12_16 
ROOT
HETATM    1  O1  UNL     1      27.276   4.019  49.360  1.00  0.00    -0.274 OA
HETATM    2  C1  UNL     1      26.185   3.812  49.949  1.00  0.00     0.217 C 
HETATM    3  N2  UNL     1      26.140   3.100  51.164  1.00  0.00    -0.357 N 
HETATM    4  H11 UNL     1      25.201   2.944  51.633  1.00  0.00     0.162 HD
ENDROOT
BRANCH   2   5
HETATM    5  C2  UNL     1      24.911   4.309  49.391  1.00  0.00     0.104 C 
BRANCH   5   6
HETATM    6  C3  UNL     1      23.893   3.249  49.148  1.00  0.00     0.027 C 
BRANCH   6   7
HETATM    7  C4  UNL     1      22.660   3.337  49.994  1.00  0.00     0.098 A 
HETATM    8  C5  UNL     1      21.622   2.406  49.478  1.00  0.00     0.090 A 
HETATM    9  S1  UNL     1      20.865   2.723  48.092  1.00  0.00    -0.064 SA
HETATM   10  N1  UNL     1      21.737   1.494  50.561  1.00  0.00    -0.340 N 
HETATM   11  C6  UNL     1      21.211   0.251  51.069  1.00  0.00     0.157 A 
HETATM   12  C10 UNL     1      22.730   2.354  51.107  1.00  0.00     0.023 A 
HETATM   13  C7  UNL     1      21.892  -0.040  52.356  1.00  0.00    -0.007 A 
HETATM   14  C8  UNL     1      22.816   0.707  52.927  1.00  0.00    -0.000 A 
HETATM   15  C9  UNL     1      23.231   1.937  52.262  1.00  0.00     0.026 A 
ENDBRANCH   6   7
ENDBRANCH   5   6
ENDBRANCH   2   5
BRANCH   3  16
HETATM   16  C11 UNL     1      27.281   2.541  51.854  1.00  0.00     0.161 C 
BRANCH  16  17
HETATM   17  C12 UNL     1      26.835   1.309  52.551  1.00  0.00    -0.041 A 
HETATM   18  C13 UNL     1      26.597   0.078  52.014  1.00  0.00     0.009 A 
HETATM   19  C14 UNL     1      26.182  -1.015  52.710  1.00  0.00     0.001 A 
HETATM   20  C15 UNL     1      25.974  -0.907  54.081  1.00  0.00     0.000 A 
HETATM   21  C16 UNL     1      26.198   0.308  54.671  1.00  0.00     0.001 A 
HETATM   22  C17 UNL     1      26.620   1.396  53.929  1.00  0.00     0.009 A 
ENDBRANCH  16  17
ENDBRANCH   3  16
TORSDOF 5
ENDMDL
MODEL 9
REMARK VINA RESULT:      -7.1      1.823      2.160
REMARK  5 active torsions:
REMARK  status: ('A' for Active; 'I' for Inactive)
REMARK    1  A    between atoms: C1_2  and  C2_3 
REMARK       I    between atoms: C1_2  and  N2_14 
REMARK    2  A    between atoms: C2_3  and  C3_4 
REMARK    3  A    between atoms: C3_4  and  C4_5 
REMARK    4  A    between atoms: N2_14  and  C11_15 
REMARK    5  A    between atoms: C11_15  and  C12_16 
ROOT
HETATM    1  O1  UNL     1      24.117   4.048  52.039  1.00  0.00    -0.274 OA
HETATM    2  C1  UNL     1      24.072   3.386  50.971  1.00  0.00     0.217 C 
HETATM    3  N2  UNL     1      25.209   2.705  50.492  1.00  0.00    -0.357 N 
HETATM    4  H11 UNL     1      25.134   2.156  49.586  1.00  0.00     0.162 HD
ENDROOT
BRANCH   2   5
HETATM    5  C2  UNL     1      22.828   3.297  50.181  1.00  0.00     0.104 C 
BRANCH   5   6
HETATM    6  C3  UNL     1      21.888   2.235  50.633  1.00  0.00     0.027 C 
BRANCH   6   7
HETATM    7  C4  UNL     1      21.438   2.339  52.058  1.00  0.00     0.098 A 
HETATM    8  C5  UNL     1      20.115   1.680  52.223  1.00  0.00     0.090 A 
HETATM    9  S1  UNL     1      18.790   2.356  51.607  1.00  0.00    -0.064 SA
HETATM   10  N1  UNL     1      20.628   0.576  52.954  1.00  0.00    -0.340 N 
HETATM   11  C6  UNL     1      20.231  -0.652  53.599  1.00  0.00     0.157 A 
HETATM   12  C10 UNL     1      21.916   1.166  52.835  1.00  0.00     0.023 A 
HETATM   13  C7  UNL     1      21.445  -1.272  54.185  1.00  0.00    -0.007 A 
HETATM   14  C8  UNL     1      22.669  -0.786  54.122  1.00  0.00    -0.000 A 
HETATM   15  C9  UNL     1      22.885   0.473  53.420  1.00  0.00     0.026 A 
ENDBRANCH   6   7
ENDBRANCH   5   6
ENDBRANCH   2   5
BRANCH   3  16
HETATM   16  C11 UNL     1      26.506   2.682  51.130  1.00  0.00     0.161 C 
BRANCH  16  17
HETATM   17  C12 UNL     1      26.512   1.567  52.110  1.00  0.00    -0.041 A 
HETATM   18  C13 UNL     1      26.520   0.227  51.861  1.00  0.00     0.009 A 
HETATM   19  C14 UNL     1      26.520  -0.748  52.809  1.00  0.00     0.001 A 
HETATM   20  C15 UNL     1      26.511  -0.387  54.153  1.00  0.00     0.000 A 
HETATM   21  C16 UNL     1      26.503   0.947  54.459  1.00  0.00     0.001 A 
HETATM   22  C17 UNL     1      26.503   1.909  53.466  1.00  0.00     0.009 A 
ENDBRANCH  16  17
ENDBRANCH   3  16
TORSDOF 5
ENDMDL
