MODEL 1
REMARK VINA RESULT:      -8.6      0.000      0.000
REMARK  1 active torsions:
REMARK  status: ('A' for Active; 'I' for Inactive)
REMARK    1  A    between atoms: C3_4  and  C4_5 
ROOT
HETATM    1  C1  UNL     1      25.652   2.167  53.143  1.00  0.00     0.033 C 
HETATM    2  C2  UNL     1      24.490   2.526  52.273  1.00  0.00     0.086 C 
HETATM    3  N1  UNL     1      24.795   3.032  50.963  1.00  0.00    -0.387 N 
HETATM    4  C3  UNL     1      24.722   3.589  49.658  1.00  0.00     0.024 C 
HETATM    5  C10 UNL     1      23.672   2.817  49.486  1.00  0.00     0.072 C 
HETATM    6  C11 UNL     1      22.609   2.379  48.552  1.00  0.00    -0.015 C 
HETATM    7  C12 UNL     1      21.797   1.509  49.116  1.00  0.00    -0.003 C 
HETATM    8  C13 UNL     1      21.386   0.732  50.253  1.00  0.00     0.008 C 
HETATM    9  C14 UNL     1      21.585   0.435  51.529  1.00  0.00    -0.041 C 
HETATM   10  C15 UNL     1      21.871   0.152  52.986  1.00  0.00     0.040 C 
HETATM   11  C16 UNL     1      23.384   0.398  53.171  1.00  0.00     0.017 C 
HETATM   12  C17 UNL     1      23.624   1.309  52.002  1.00  0.00     0.053 C 
HETATM   13  C18 UNL     1      22.216   1.745  51.831  1.00  0.00     0.021 C 
HETATM   14  S1  UNL     1      21.415   3.186  51.959  1.00  0.00    -0.084 SA
HETATM   15  H5  UNL     1      25.828   2.834  50.911  1.00  0.00     0.159 HD
ENDROOT
BRANCH   4  16
HETATM   16  C4  UNL     1      25.674   4.595  49.189  1.00  0.00    -0.013 A 
HETATM   17  C5  UNL     1      26.965   4.149  49.102  1.00  0.00     0.013 A 
HETATM   18  C6  UNL     1      27.907   5.080  48.648  1.00  0.00     0.001 A 
HETATM   19  C7  UNL     1      27.471   6.349  48.329  1.00  0.00     0.000 A 
HETATM   20  C8  UNL     1      26.137   6.701  48.451  1.00  0.00     0.001 A 
HETATM   21  C9  UNL     1      25.178   5.818  48.894  1.00  0.00     0.013 A 
ENDBRANCH   4  16
TORSDOF 1
ENDMDL
MODEL 2
REMARK VINA RESULT:      -8.3      2.347      4.864
REMARK  1 active torsions:
REMARK  status: ('A' for Active; 'I' for Inactive)
REMARK    1  A    between atoms: C3_4  and  C4_5 
ROOT
HETATM    1  C1  UNL     1      22.910  -0.052  52.676  1.00  0.00     0.033 C 
HETATM    2  C2  UNL     1      23.597   1.227  52.319  1.00  0.00     0.086 C 
HETATM    3  N1  UNL     1      25.022   1.169  52.144  1.00  0.00    -0.387 N 
HETATM    4  C3  UNL     1      26.392   1.488  51.942  1.00  0.00     0.024 C 
HETATM    5  C10 UNL     1      25.969   2.307  51.005  1.00  0.00     0.072 C 
HETATM    6  C11 UNL     1      26.356   3.286  49.963  1.00  0.00    -0.015 C 
HETATM    7  C12 UNL     1      25.302   3.794  49.360  1.00  0.00    -0.003 C 
HETATM    8  C13 UNL     1      23.877   3.895  49.199  1.00  0.00     0.008 C 
HETATM    9  C14 UNL     1      22.679   3.527  49.630  1.00  0.00    -0.041 C 
HETATM   10  C15 UNL     1      21.349   3.064  50.179  1.00  0.00     0.040 C 
HETATM   11  C16 UNL     1      21.606   1.659  50.768  1.00  0.00     0.017 C 
HETATM   12  C17 UNL     1      23.087   1.760  50.992  1.00  0.00     0.053 C 
HETATM   13  C18 UNL     1      23.160   3.242  51.006  1.00  0.00     0.021 C 
HETATM   14  S1  UNL     1      23.567   4.382  52.132  1.00  0.00    -0.084 SA
HETATM   15  H5  UNL     1      25.179   0.128  52.148  1.00  0.00     0.159 HD
ENDROOT
BRANCH   4  16
HETATM   16  C4  UNL     1      27.457   0.874  52.735  1.00  0.00    -0.013 A 
HETATM   17  C5  UNL     1      27.484  -0.492  52.676  1.00  0.00     0.013 A 
HETATM   18  C6  UNL     1      28.494  -1.119  53.414  1.00  0.00     0.001 A 
HETATM   19  C7  UNL     1      29.368  -0.327  54.130  1.00  0.00     0.000 A 
HETATM   20  C8  UNL     1      29.256   1.053  54.122  1.00  0.00     0.001 A 
HETATM   21  C9  UNL     1      28.277   1.710  53.411  1.00  0.00     0.013 A 
ENDBRANCH   4  16
TORSDOF 1
ENDMDL
MODEL 3
REMARK VINA RESULT:      -8.2      2.951      5.405
REMARK  1 active torsions:
REMARK  status: ('A' for Active; 'I' for Inactive)
REMARK    1  A    between atoms: C3_4  and  C4_5 
ROOT
HETATM    1  C1  UNL     1      24.550   3.559  51.754  1.00  0.00     0.033 C 
HETATM    2  C2  UNL     1      23.855   2.244  51.913  1.00  0.00     0.086 C 
HETATM    3  N1  UNL     1      24.537   1.242  52.684  1.00  0.00    -0.387 N 
HETATM    4  C3  UNL     1      24.923   0.034  53.325  1.00  0.00     0.024 C 
HETATM    5  C10 UNL     1      23.657  -0.087  53.658  1.00  0.00     0.072 C 
HETATM    6  C11 UNL     1      22.646  -0.904  54.368  1.00  0.00    -0.015 C 
HETATM    7  C12 UNL     1      21.441  -0.387  54.257  1.00  0.00    -0.003 C 
HETATM    8  C13 UNL     1      20.551   0.624  53.755  1.00  0.00     0.008 C 
HETATM    9  C14 UNL     1      20.409   1.711  53.010  1.00  0.00    -0.041 C 
HETATM   10  C15 UNL     1      20.325   2.945  52.141  1.00  0.00     0.040 C 
HETATM   11  C16 UNL     1      21.714   3.614  52.228  1.00  0.00     0.017 C 
HETATM   12  C17 UNL     1      22.530   2.420  52.633  1.00  0.00     0.053 C 
HETATM   13  C18 UNL     1      21.578   1.388  52.153  1.00  0.00     0.021 C 
HETATM   14  S1  UNL     1      21.619   0.210  50.994  1.00  0.00    -0.084 SA
HETATM   15  H5  UNL     1      25.320   1.810  53.098  1.00  0.00     0.159 HD
ENDROOT
BRANCH   4  16
HETATM   16  C4  UNL     1      26.306  -0.442  53.318  1.00  0.00    -0.013 A 
HETATM   17  C5  UNL     1      27.185   0.376  53.973  1.00  0.00     0.013 A 
HETATM   18  C6  UNL     1      28.519  -0.049  53.996  1.00  0.00     0.001 A 
HETATM   19  C7  UNL     1      28.838  -1.235  53.369  1.00  0.00     0.000 A 
HETATM   20  C8  UNL     1      27.869  -1.993  52.732  1.00  0.00     0.001 A 
HETATM   21  C9  UNL     1      26.547  -1.613  52.685  1.00  0.00     0.013 A 
ENDBRANCH   4  16
TORSDOF 1
ENDMDL
MODEL 4
REMARK VINA RESULT:      -7.8      1.754      6.270
REMARK  1 active torsions:
REMARK  status: ('A' for Active; 'I' for Inactive)
REMARK    1  A    between atoms: C3_4  and  C4_5 
ROOT
HETATM    1  C1  UNL     1      21.027   1.435  50.054  1.00  0.00     0.033 C 
HETATM    2  C2  UNL     1      22.171   2.170  50.676  1.00  0.00     0.086 C 
HETATM    3  N1  UNL     1      23.029   1.413  51.545  1.00  0.00    -0.387 N 
HETATM    4  C3  UNL     1      24.030   1.007  52.468  1.00  0.00     0.024 C 
HETATM    5  C10 UNL     1      24.839   1.800  51.800  1.00  0.00     0.072 C 
HETATM    6  C11 UNL     1      26.216   2.329  51.679  1.00  0.00    -0.015 C 
HETATM    7  C12 UNL     1      26.317   3.198  50.695  1.00  0.00    -0.003 C 
HETATM    8  C13 UNL     1      25.728   3.949  49.621  1.00  0.00     0.008 C 
HETATM    9  C14 UNL     1      24.626   4.260  48.953  1.00  0.00    -0.041 C 
HETATM   10  C15 UNL     1      23.327   4.567  48.243  1.00  0.00     0.040 C 
HETATM   11  C16 UNL     1      22.457   3.301  48.396  1.00  0.00     0.017 C 
HETATM   12  C17 UNL     1      23.110   2.706  49.611  1.00  0.00     0.053 C 
HETATM   13  C18 UNL     1      23.734   3.959  50.103  1.00  0.00     0.021 C 
HETATM   14  S1  UNL     1      23.564   4.898  51.453  1.00  0.00    -0.084 SA
HETATM   15  H5  UNL     1      22.691   0.435  51.354  1.00  0.00     0.159 HD
ENDROOT
BRANCH   4  16
HETATM   16  C4  UNL     1      23.751   0.065  53.551  1.00  0.00    -0.013 A 
HETATM   17  C5  UNL     1      24.858  -0.328  54.253  1.00  0.00     0.013 A 
HETATM   18  C6  UNL     1      24.633  -1.223  55.305  1.00  0.00     0.001 A 
HETATM   19  C7  UNL     1      23.339  -1.633  55.549  1.00  0.00     0.000 A 
HETATM   20  C8  UNL     1      22.284  -1.174  54.778  1.00  0.00     0.001 A 
HETATM   21  C9  UNL     1      22.460  -0.294  53.734  1.00  0.00     0.013 A 
ENDBRANCH   4  16
TORSDOF 1
ENDMDL
MODEL 5
REMARK VINA RESULT:      -7.5      3.832      6.352
REMARK  1 active torsions:
REMARK  status: ('A' for Active; 'I' for Inactive)
REMARK    1  A    between atoms: C3_4  and  C4_5 
ROOT
HETATM    1  C1  UNL     1      18.311  -0.964  52.916  1.00  0.00     0.033 C 
HETATM    2  C2  UNL     1      19.149   0.168  52.414  1.00  0.00     0.086 C 
HETATM    3  N1  UNL     1      20.574  -0.010  52.464  1.00  0.00    -0.387 N 
HETATM    4  C3  UNL     1      21.981   0.178  52.404  1.00  0.00     0.024 C 
HETATM    5  C10 UNL     1      21.758   0.805  51.271  1.00  0.00     0.072 C 
HETATM    6  C11 UNL     1      22.362   1.518  50.122  1.00  0.00    -0.015 C 
HETATM    7  C12 UNL     1      21.444   1.949  49.282  1.00  0.00    -0.003 C 
HETATM    8  C13 UNL     1      20.067   2.099  48.898  1.00  0.00     0.008 C 
HETATM    9  C14 UNL     1      18.796   1.901  49.215  1.00  0.00    -0.041 C 
HETATM   10  C15 UNL     1      17.370   1.643  49.646  1.00  0.00     0.040 C 
HETATM   11  C16 UNL     1      17.423   0.382  50.535  1.00  0.00     0.017 C 
HETATM   12  C17 UNL     1      18.865   0.439  50.948  1.00  0.00     0.053 C 
HETATM   13  C18 UNL     1      19.066   1.884  50.675  1.00  0.00     0.021 C 
HETATM   14  S1  UNL     1      19.422   3.209  51.598  1.00  0.00    -0.084 SA
HETATM   15  H5  UNL     1      20.637  -1.034  52.699  1.00  0.00     0.159 HD
ENDROOT
BRANCH   4  16
HETATM   16  C4  UNL     1      22.875  -0.318  53.450  1.00  0.00    -0.013 A 
HETATM   17  C5  UNL     1      22.236  -0.934  54.491  1.00  0.00     0.013 A 
HETATM   18  C6  UNL     1      23.058  -1.430  55.509  1.00  0.00     0.001 A 
HETATM   19  C7  UNL     1      24.422  -1.265  55.388  1.00  0.00     0.000 A 
HETATM   20  C8  UNL     1      24.971  -0.625  54.290  1.00  0.00     0.001 A 
HETATM   21  C9  UNL     1      24.201  -0.121  53.266  1.00  0.00     0.013 A 
ENDBRANCH   4  16
TORSDOF 1
ENDMDL
MODEL 6
REMARK VINA RESULT:      -7.4      1.899      6.489
REMARK  1 active torsions:
REMARK  status: ('A' for Active; 'I' for Inactive)
REMARK    1  A    between atoms: C3_4  and  C4_5 
ROOT
HETATM    1  C1  UNL     1      21.517   5.599  48.148  1.00  0.00     0.033 C 
HETATM    2  C2  UNL     1      22.782   5.498  48.938  1.00  0.00     0.086 C 
HETATM    3  N1  UNL     1      23.163   4.185  49.384  1.00  0.00    -0.387 N 
HETATM    4  C3  UNL     1      23.807   3.084  50.008  1.00  0.00     0.024 C 
HETATM    5  C10 UNL     1      24.935   3.664  49.660  1.00  0.00     0.072 C 
HETATM    6  C11 UNL     1      26.413   3.582  49.674  1.00  0.00    -0.015 C 
HETATM    7  C12 UNL     1      26.963   4.636  49.108  1.00  0.00    -0.003 C 
HETATM    8  C13 UNL     1      26.847   5.911  48.456  1.00  0.00     0.008 C 
HETATM    9  C14 UNL     1      26.044   6.878  48.034  1.00  0.00    -0.041 C 
HETATM   10  C15 UNL     1      25.065   7.937  47.583  1.00  0.00     0.040 C 
HETATM   11  C16 UNL     1      23.749   7.189  47.277  1.00  0.00     0.017 C 
HETATM   12  C17 UNL     1      23.970   5.963  48.116  1.00  0.00     0.053 C 
HETATM   13  C18 UNL     1      24.984   6.554  49.023  1.00  0.00     0.021 C 
HETATM   14  S1  UNL     1      25.055   6.883  50.642  1.00  0.00    -0.084 SA
HETATM   15  H5  UNL     1      22.484   3.589  48.844  1.00  0.00     0.159 HD
ENDROOT
BRANCH   4  16
HETATM   16  C4  UNL     1      23.056   2.005  50.647  1.00  0.00    -0.013 A 
HETATM   17  C5  UNL     1      23.546   1.623  51.866  1.00  0.00     0.013 A 
HETATM   18  C6  UNL     1      22.849   0.597  52.515  1.00  0.00     0.001 A 
HETATM   19  C7  UNL     1      21.744   0.060  51.889  1.00  0.00     0.000 A 
HETATM   20  C8  UNL     1      21.328   0.519  50.650  1.00  0.00     0.001 A 
HETATM   21  C9  UNL     1      21.983   1.525  49.977  1.00  0.00     0.013 A 
ENDBRANCH   4  16
TORSDOF 1
ENDMDL
MODEL 7
REMARK VINA RESULT:      -7.4      1.892      3.125
REMARK  1 active torsions:
REMARK  status: ('A' for Active; 'I' for Inactive)
REMARK    1  A    between atoms: C3_4  and  C4_5 
ROOT
HETATM    1  C1  UNL     1      22.852   6.779  50.738  1.00  0.00     0.033 C 
HETATM    2  C2  UNL     1      23.419   5.461  50.315  1.00  0.00     0.086 C 
HETATM    3  N1  UNL     1      24.812   5.439  49.963  1.00  0.00    -0.387 N 
HETATM    4  C3  UNL     1      26.106   5.061  49.514  1.00  0.00     0.024 C 
HETATM    5  C10 UNL     1      25.903   3.937  50.164  1.00  0.00     0.072 C 
HETATM    6  C11 UNL     1      26.465   2.621  50.547  1.00  0.00    -0.015 C 
HETATM    7  C12 UNL     1      25.611   1.918  51.260  1.00  0.00    -0.003 C 
HETATM    8  C13 UNL     1      24.324   1.765  51.882  1.00  0.00     0.008 C 
HETATM    9  C14 UNL     1      23.120   2.280  52.091  1.00  0.00    -0.041 C 
HETATM   10  C15 UNL     1      21.769   2.929  52.282  1.00  0.00     0.040 C 
HETATM   11  C16 UNL     1      22.021   4.451  52.208  1.00  0.00     0.017 C 
HETATM   12  C17 UNL     1      23.309   4.443  51.436  1.00  0.00     0.053 C 
HETATM   13  C18 UNL     1      23.150   3.091  50.847  1.00  0.00     0.021 C 
HETATM   14  S1  UNL     1      22.981   2.496  49.313  1.00  0.00    -0.084 SA
HETATM   15  H5  UNL     1      25.113   6.394  50.289  1.00  0.00     0.159 HD
ENDROOT
BRANCH   4  16
HETATM   16  C4  UNL     1      26.923   5.938  48.676  1.00  0.00    -0.013 A 
HETATM   17  C5  UNL     1      28.210   5.507  48.500  1.00  0.00     0.013 A 
HETATM   18  C6  UNL     1      29.023   6.313  47.696  1.00  0.00     0.001 A 
HETATM   19  C7  UNL     1      28.478   7.458  47.154  1.00  0.00     0.000 A 
HETATM   20  C8  UNL     1      27.159   7.806  47.393  1.00  0.00     0.001 A 
HETATM   21  C9  UNL     1      26.323   7.043  48.177  1.00  0.00     0.013 A 
ENDBRANCH   4  16
TORSDOF 1
ENDMDL
MODEL 8
REMARK VINA RESULT:      -7.2      2.065      3.814
REMARK  1 active torsions:
REMARK  status: ('A' for Active; 'I' for Inactive)
REMARK    1  A    between atoms: C3_4  and  C4_5 
ROOT
HETATM    1  C1  UNL     1      26.826   3.875  49.439  1.00  0.00     0.033 C 
HETATM    2  C2  UNL     1      25.510   3.687  50.122  1.00  0.00     0.086 C 
HETATM    3  N1  UNL     1      24.365   3.491  49.277  1.00  0.00    -0.387 N 
HETATM    4  C3  UNL     1      23.047   3.321  48.772  1.00  0.00     0.024 C 
HETATM    5  C10 UNL     1      22.861   2.507  49.788  1.00  0.00     0.072 C 
HETATM    6  C11 UNL     1      21.914   1.603  50.480  1.00  0.00    -0.015 C 
HETATM    7  C12 UNL     1      22.445   1.085  51.567  1.00  0.00    -0.003 C 
HETATM    8  C13 UNL     1      23.542   0.953  52.486  1.00  0.00     0.008 C 
HETATM    9  C14 UNL     1      24.763   1.343  52.826  1.00  0.00    -0.041 C 
HETATM   10  C15 UNL     1      26.154   1.838  53.150  1.00  0.00     0.040 C 
HETATM   11  C16 UNL     1      26.786   2.229  51.797  1.00  0.00     0.017 C 
HETATM   12  C17 UNL     1      25.531   2.449  51.001  1.00  0.00     0.053 C 
HETATM   13  C18 UNL     1      24.627   2.662  52.158  1.00  0.00     0.021 C 
HETATM   14  S1  UNL     1      23.722   3.928  52.717  1.00  0.00    -0.084 SA
HETATM   15  H5  UNL     1      24.830   3.353  48.343  1.00  0.00     0.159 HD
ENDROOT
BRANCH   4  16
HETATM   16  C4  UNL     1      22.581   4.012  47.571  1.00  0.00    -0.013 A 
HETATM   17  C5  UNL     1      22.037   3.188  46.624  1.00  0.00     0.013 A 
HETATM   18  C6  UNL     1      21.570   3.811  45.461  1.00  0.00     0.001 A 
HETATM   19  C7  UNL     1      21.691   5.182  45.361  1.00  0.00     0.000 A 
HETATM   20  C8  UNL     1      22.258   5.928  46.380  1.00  0.00     0.001 A 
HETATM   21  C9  UNL     1      22.730   5.356  47.540  1.00  0.00     0.013 A 
ENDBRANCH   4  16
TORSDOF 1
ENDMDL
MODEL 9
REMARK VINA RESULT:      -7.0      6.528      9.095
REMARK  1 active torsions:
REMARK  status: ('A' for Active; 'I' for Inactive)
REMARK    1  A    between atoms: C3_4  and  C4_5 
ROOT
HETATM    1  C1  UNL     1      32.286   9.343  48.234  1.00  0.00     0.033 C 
HETATM    2  C2  UNL     1      31.173   8.485  47.723  1.00  0.00     0.086 C 
HETATM    3  N1  UNL     1      31.321   7.066  47.890  1.00  0.00    -0.387 N 
HETATM    4  C3  UNL     1      31.152   5.656  47.844  1.00  0.00     0.024 C 
HETATM    5  C10 UNL     1      29.880   5.893  48.080  1.00  0.00     0.072 C 
HETATM    6  C11 UNL     1      28.540   5.301  48.295  1.00  0.00    -0.015 C 
HETATM    7  C12 UNL     1      27.621   6.229  48.462  1.00  0.00    -0.003 C 
HETATM    8  C13 UNL     1      27.234   7.611  48.534  1.00  0.00     0.008 C 
HETATM    9  C14 UNL     1      27.607   8.879  48.428  1.00  0.00    -0.041 C 
HETATM   10  C15 UNL     1      28.108  10.299  48.287  1.00  0.00     0.040 C 
HETATM   11  C16 UNL     1      29.598  10.259  48.688  1.00  0.00     0.017 C 
HETATM   12  C17 UNL     1      29.874   8.804  48.442  1.00  0.00     0.053 C 
HETATM   13  C18 UNL     1      28.739   8.566  47.518  1.00  0.00     0.021 C 
HETATM   14  S1  UNL     1      28.596   8.141  45.926  1.00  0.00    -0.084 SA
HETATM   15  H5  UNL     1      32.158   7.028  48.528  1.00  0.00     0.159 HD
ENDROOT
BRANCH   4  16
HETATM   16  C4  UNL     1      32.269   4.747  47.594  1.00  0.00    -0.013 A 
HETATM   17  C5  UNL     1      33.473   5.192  48.068  1.00  0.00     0.013 A 
HETATM   18  C6  UNL     1      34.568   4.346  47.856  1.00  0.00     0.001 A 
HETATM   19  C7  UNL     1      34.355   3.153  47.198  1.00  0.00     0.000 A 
HETATM   20  C8  UNL     1      33.092   2.794  46.757  1.00  0.00     0.001 A 
HETATM   21  C9  UNL     1      31.988   3.594  46.944  1.00  0.00     0.013 A 
ENDBRANCH   4  16
TORSDOF 1
ENDMDL
