MODEL 1
REMARK VINA RESULT:      -8.8      0.000      0.000
REMARK  7 active torsions:
REMARK  status: ('A' for Active; 'I' for Inactive)
REMARK    1  A    between atoms: C4_5  and  O2_6 
REMARK    2  A    between atoms: O2_6  and  C5_7 
REMARK    3  A    between atoms: C9_11  and  C10_12 
REMARK    4  A    between atoms: N1_14  and  C12_15 
REMARK    5  A    between atoms: C14_17  and  C15_18 
REMARK    6  A    between atoms: C15_18  and  N2_19 
REMARK    7  A    between atoms: C22_28  and  N5_29 
ROOT
HETATM    1  C10 UNL     1      26.790   6.240  48.994  1.00  0.00     0.008 A 
HETATM    2  C11 UNL     1      27.907   5.698  48.348  1.00  0.00     0.106 A 
HETATM    3  N1  UNL     1      28.902   6.594  48.234  1.00  0.00    -0.335 N 
HETATM    4  C20 UNL     1      28.452   7.741  48.804  1.00  0.00     0.146 A 
HETATM    5  N3  UNL     1      28.963   8.966  49.005  1.00  0.00    -0.223 NA
HETATM    6  C21 UNL     1      28.225   9.896  49.628  1.00  0.00     0.237 A 
HETATM    7  N4  UNL     1      26.978   9.694  50.081  1.00  0.00    -0.224 NA
HETATM    8  C22 UNL     1      26.402   8.479  49.910  1.00  0.00     0.137 A 
HETATM    9  C23 UNL     1      27.171   7.534  49.268  1.00  0.00     0.068 A 
ENDROOT
BRANCH   1  10
HETATM   10  C9  UNL     1      25.612   5.413  49.182  1.00  0.00    -0.021 A 
HETATM   11  C8  UNL     1      24.505   5.738  48.418  1.00  0.00     0.012 A 
HETATM   12  C7  UNL     1      23.326   5.029  48.523  1.00  0.00     0.004 A 
HETATM   13  C6  UNL     1      23.199   3.970  49.392  1.00  0.00     0.037 A 
HETATM   14  C5  UNL     1      24.314   3.635  50.169  1.00  0.00     0.072 A 
HETATM   15  C24 UNL     1      25.479   4.354  50.049  1.00  0.00     0.049 A 
BRANCH  14  16
HETATM   16  O2  UNL     1      24.127   2.567  51.019  1.00  0.00    -0.320 OA
BRANCH  16  17
HETATM   17  C4  UNL     1      23.873   2.627  52.394  1.00  0.00     0.270 C 
HETATM   18  O1  UNL     1      22.503   2.752  52.554  1.00  0.00    -0.360 OA
HETATM   19  C3  UNL     1      21.930   1.522  52.693  1.00  0.00     0.175 C 
HETATM   20  C2  UNL     1      22.998   0.473  52.562  1.00  0.00     0.014 C 
HETATM   21  C1  UNL     1      22.786  -0.731  53.428  1.00  0.00     0.012 C 
HETATM   22  C25 UNL     1      24.232   1.269  52.968  1.00  0.00     0.043 C 
HETATM   23  C26 UNL     1      25.480   0.720  52.314  1.00  0.00     0.015 C 
ENDBRANCH  16  17
ENDBRANCH  14  16
ENDBRANCH   1  10
BRANCH   3  24
HETATM   24  C12 UNL     1      30.204   6.423  47.637  1.00  0.00     0.092 C 
HETATM   25  C13 UNL     1      30.702   4.996  47.570  1.00  0.00     0.032 C 
HETATM   26  C14 UNL     1      32.077   5.520  47.924  1.00  0.00     0.018 C 
HETATM   27  C19 UNL     1      31.391   6.737  48.510  1.00  0.00     0.032 C 
BRANCH  26  28
HETATM   28  C15 UNL     1      32.856   5.839  46.659  1.00  0.00     0.277 C 
BRANCH  28  29
HETATM   29  N2  UNL     1      34.233   5.392  46.788  1.00  0.00     0.088 N 
HETATM   30  C16 UNL     1      34.381   4.359  47.774  1.00  0.00     0.274 C 
HETATM   31  C17 UNL     1      34.614   3.321  46.721  1.00  0.00     0.060 C 
HETATM   32  C18 UNL     1      34.619   4.467  45.765  1.00  0.00     0.274 C 
ENDBRANCH  28  29
ENDBRANCH  26  28
ENDBRANCH   3  24
BRANCH   8  33
HETATM   33  N5  UNL     1      25.085   8.214  50.383  1.00  0.00    -0.383 N 
HETATM   34  H27 UNL     1      24.618   9.110  50.051  1.00  0.00     0.157 HD
HETATM   35  H28 UNL     1      25.296   7.277  50.802  1.00  0.00     0.157 HD
ENDBRANCH   8  33
TORSDOF 7
ENDMDL
MODEL 2
REMARK VINA RESULT:      -8.5      6.943     11.780
REMARK  7 active torsions:
REMARK  status: ('A' for Active; 'I' for Inactive)
REMARK    1  A    between atoms: C4_5  and  O2_6 
REMARK    2  A    between atoms: O2_6  and  C5_7 
REMARK    3  A    between atoms: C9_11  and  C10_12 
REMARK    4  A    between atoms: N1_14  and  C12_15 
REMARK    5  A    between atoms: C14_17  and  C15_18 
REMARK    6  A    between atoms: C15_18  and  N2_19 
REMARK    7  A    between atoms: C22_28  and  N5_29 
ROOT
HETATM    1  C10 UNL     1      21.401   0.862  52.914  1.00  0.00     0.008 A 
HETATM    2  C11 UNL     1      20.146   0.298  52.660  1.00  0.00     0.106 A 
HETATM    3  N1  UNL     1      19.365   1.122  51.941  1.00  0.00    -0.335 N 
HETATM    4  C20 UNL     1      20.098   2.242  51.712  1.00  0.00     0.146 A 
HETATM    5  N3  UNL     1      19.887   3.400  51.066  1.00  0.00    -0.223 NA
HETATM    6  C21 UNL     1      20.860   4.321  51.026  1.00  0.00     0.237 A 
HETATM    7  N4  UNL     1      22.065   4.174  51.597  1.00  0.00    -0.224 NA
HETATM    8  C22 UNL     1      22.344   3.028  52.265  1.00  0.00     0.137 A 
HETATM    9  C23 UNL     1      21.335   2.091  52.299  1.00  0.00     0.068 A 
ENDROOT
BRANCH   1  10
HETATM   10  C9  UNL     1      22.366   0.113  53.700  1.00  0.00    -0.021 A 
HETATM   11  C8  UNL     1      21.849  -0.722  54.675  1.00  0.00     0.012 A 
HETATM   12  C7  UNL     1      22.672  -1.471  55.489  1.00  0.00     0.004 A 
HETATM   13  C6  UNL     1      24.042  -1.420  55.370  1.00  0.00     0.037 A 
HETATM   14  C5  UNL     1      24.573  -0.577  54.387  1.00  0.00     0.072 A 
HETATM   15  C24 UNL     1      23.735   0.161  53.586  1.00  0.00     0.049 A 
BRANCH  14  16
HETATM   16  O2  UNL     1      25.949  -0.568  54.315  1.00  0.00    -0.320 OA
BRANCH  16  17
HETATM   17  C4  UNL     1      26.738   0.254  53.504  1.00  0.00     0.270 C 
HETATM   18  O1  UNL     1      27.405   1.136  54.336  1.00  0.00    -0.360 OA
HETATM   19  C3  UNL     1      28.624   0.628  54.682  1.00  0.00     0.175 C 
HETATM   20  C2  UNL     1      28.768  -0.738  54.075  1.00  0.00     0.014 C 
HETATM   21  C1  UNL     1      30.165  -1.075  53.647  1.00  0.00     0.012 C 
HETATM   22  C25 UNL     1      27.812  -0.629  52.894  1.00  0.00     0.043 C 
HETATM   23  C26 UNL     1      27.248  -1.981  52.517  1.00  0.00     0.015 C 
ENDBRANCH  16  17
ENDBRANCH  14  16
ENDBRANCH   1  10
BRANCH   3  24
HETATM   24  C12 UNL     1      18.015   0.909  51.479  1.00  0.00     0.092 C 
HETATM   25  C13 UNL     1      17.433  -0.453  51.790  1.00  0.00     0.032 C 
HETATM   26  C14 UNL     1      16.796  -0.431  50.419  1.00  0.00     0.018 C 
HETATM   27  C19 UNL     1      17.847   0.584  50.018  1.00  0.00     0.032 C 
BRANCH  26  28
HETATM   28  C15 UNL     1      15.403   0.169  50.499  1.00  0.00     0.277 C 
BRANCH  28  29
HETATM   29  N2  UNL     1      14.477  -0.590  49.675  1.00  0.00     0.088 N 
HETATM   30  C16 UNL     1      14.808  -1.987  49.630  1.00  0.00     0.274 C 
HETATM   31  C17 UNL     1      13.634  -2.341  50.488  1.00  0.00     0.060 C 
HETATM   32  C18 UNL     1      13.255  -0.904  50.352  1.00  0.00     0.274 C 
ENDBRANCH  28  29
ENDBRANCH  26  28
ENDBRANCH   3  24
BRANCH   8  33
HETATM   33  N5  UNL     1      23.613   2.822  52.878  1.00  0.00    -0.383 N 
HETATM   34  H27 UNL     1      23.803   3.824  53.181  1.00  0.00     0.157 HD
HETATM   35  H28 UNL     1      23.667   1.791  52.694  1.00  0.00     0.157 HD
ENDBRANCH   8  33
TORSDOF 7
ENDMDL
MODEL 3
REMARK VINA RESULT:      -8.4      6.766      9.885
REMARK  7 active torsions:
REMARK  status: ('A' for Active; 'I' for Inactive)
REMARK    1  A    between atoms: C4_5  and  O2_6 
REMARK    2  A    between atoms: O2_6  and  C5_7 
REMARK    3  A    between atoms: C9_11  and  C10_12 
REMARK    4  A    between atoms: N1_14  and  C12_15 
REMARK    5  A    between atoms: C14_17  and  C15_18 
REMARK    6  A    between atoms: C15_18  and  N2_19 
REMARK    7  A    between atoms: C22_28  and  N5_29 
ROOT
HETATM    1  C10 UNL     1      21.466   0.101  52.473  1.00  0.00     0.008 A 
HETATM    2  C11 UNL     1      21.896   0.917  51.419  1.00  0.00     0.106 A 
HETATM    3  N1  UNL     1      20.886   1.237  50.592  1.00  0.00    -0.335 N 
HETATM    4  C20 UNL     1      19.776   0.634  51.091  1.00  0.00     0.146 A 
HETATM    5  N3  UNL     1      18.484   0.575  50.731  1.00  0.00    -0.223 NA
HETATM    6  C21 UNL     1      17.622  -0.130  51.477  1.00  0.00     0.237 A 
HETATM    7  N4  UNL     1      17.957  -0.801  52.590  1.00  0.00    -0.224 NA
HETATM    8  C22 UNL     1      19.245  -0.783  53.009  1.00  0.00     0.137 A 
HETATM    9  C23 UNL     1      20.120  -0.056  52.233  1.00  0.00     0.068 A 
ENDROOT
BRANCH   1  10
HETATM   10  C9  UNL     1      22.436  -0.358  53.452  1.00  0.00    -0.021 A 
HETATM   11  C8  UNL     1      21.935  -1.084  54.517  1.00  0.00     0.012 A 
HETATM   12  C7  UNL     1      22.761  -1.560  55.514  1.00  0.00     0.004 A 
HETATM   13  C6  UNL     1      24.118  -1.333  55.493  1.00  0.00     0.037 A 
HETATM   14  C5  UNL     1      24.632  -0.597  54.419  1.00  0.00     0.072 A 
HETATM   15  C24 UNL     1      23.792  -0.133  53.436  1.00  0.00     0.049 A 
BRANCH  14  16
HETATM   16  O2  UNL     1      25.996  -0.402  54.452  1.00  0.00    -0.320 OA
BRANCH  16  17
HETATM   17  C4  UNL     1      26.745   0.406  53.591  1.00  0.00     0.270 C 
HETATM   18  O1  UNL     1      27.482   1.275  54.378  1.00  0.00    -0.360 OA
HETATM   19  C3  UNL     1      28.711   0.744  54.644  1.00  0.00     0.175 C 
HETATM   20  C2  UNL     1      28.790  -0.623  54.029  1.00  0.00     0.014 C 
HETATM   21  C1  UNL     1      30.149  -0.985  53.511  1.00  0.00     0.012 C 
HETATM   22  C25 UNL     1      27.761  -0.496  52.913  1.00  0.00     0.043 C 
HETATM   23  C26 UNL     1      27.149  -1.837  52.574  1.00  0.00     0.015 C 
ENDBRANCH  16  17
ENDBRANCH  14  16
ENDBRANCH   1  10
BRANCH   3  24
HETATM   24  C12 UNL     1      20.920   2.051  49.402  1.00  0.00     0.092 C 
HETATM   25  C13 UNL     1      21.628   1.433  48.216  1.00  0.00     0.032 C 
HETATM   26  C14 UNL     1      22.201   2.801  47.918  1.00  0.00     0.018 C 
HETATM   27  C19 UNL     1      21.949   3.152  49.370  1.00  0.00     0.032 C 
BRANCH  26  28
HETATM   28  C15 UNL     1      21.288   3.555  46.966  1.00  0.00     0.277 C 
BRANCH  28  29
HETATM   29  N2  UNL     1      22.018   3.953  45.774  1.00  0.00     0.088 N 
HETATM   30  C16 UNL     1      21.196   3.926  44.597  1.00  0.00     0.274 C 
HETATM   31  C17 UNL     1      21.161   5.422  44.531  1.00  0.00     0.060 C 
HETATM   32  C18 UNL     1      22.150   5.373  45.647  1.00  0.00     0.274 C 
ENDBRANCH  28  29
ENDBRANCH  26  28
ENDBRANCH   3  24
BRANCH   8  33
HETATM   33  N5  UNL     1      19.646  -1.472  54.190  1.00  0.00    -0.383 N 
HETATM   34  H27 UNL     1      20.089  -2.322  53.729  1.00  0.00     0.157 HD
HETATM   35  H28 UNL     1      19.283  -0.762  54.870  1.00  0.00     0.157 HD
ENDBRANCH   8  33
TORSDOF 7
ENDMDL
MODEL 4
REMARK VINA RESULT:      -8.3      3.695      5.113
REMARK  7 active torsions:
REMARK  status: ('A' for Active; 'I' for Inactive)
REMARK    1  A    between atoms: C4_5  and  O2_6 
REMARK    2  A    between atoms: O2_6  and  C5_7 
REMARK    3  A    between atoms: C9_11  and  C10_12 
REMARK    4  A    between atoms: N1_14  and  C12_15 
REMARK    5  A    between atoms: C14_17  and  C15_18 
REMARK    6  A    between atoms: C15_18  and  N2_19 
REMARK    7  A    between atoms: C22_28  and  N5_29 
ROOT
HETATM    1  C10 UNL     1      24.650   5.816  49.600  1.00  0.00     0.008 A 
HETATM    2  C11 UNL     1      25.691   6.750  49.647  1.00  0.00     0.106 A 
HETATM    3  N1  UNL     1      25.681   7.564  48.577  1.00  0.00    -0.335 N 
HETATM    4  C20 UNL     1      24.631   7.174  47.810  1.00  0.00     0.146 A 
HETATM    5  N3  UNL     1      24.102   7.582  46.645  1.00  0.00    -0.223 NA
HETATM    6  C21 UNL     1      23.022   6.959  46.155  1.00  0.00     0.237 A 
HETATM    7  N4  UNL     1      22.407   5.928  46.754  1.00  0.00    -0.224 NA
HETATM    8  C22 UNL     1      22.889   5.465  47.932  1.00  0.00     0.137 A 
HETATM    9  C23 UNL     1      23.999   6.114  48.424  1.00  0.00     0.068 A 
ENDROOT
BRANCH   1  10
HETATM   10  C9  UNL     1      24.524   4.842  50.670  1.00  0.00    -0.021 A 
HETATM   11  C8  UNL     1      23.690   5.187  51.718  1.00  0.00     0.012 A 
HETATM   12  C7  UNL     1      23.504   4.345  52.795  1.00  0.00     0.004 A 
HETATM   13  C6  UNL     1      24.141   3.127  52.875  1.00  0.00     0.037 A 
HETATM   14  C5  UNL     1      24.988   2.773  51.818  1.00  0.00     0.072 A 
HETATM   15  C24 UNL     1      25.159   3.626  50.754  1.00  0.00     0.049 A 
BRANCH  14  16
HETATM   16  O2  UNL     1      25.597   1.544  51.953  1.00  0.00    -0.320 OA
BRANCH  16  17
HETATM   17  C4  UNL     1      26.941   1.246  51.704  1.00  0.00     0.270 C 
HETATM   18  O1  UNL     1      27.689   2.331  52.128  1.00  0.00    -0.360 OA
HETATM   19  C3  UNL     1      28.085   2.154  53.422  1.00  0.00     0.175 C 
HETATM   20  C2  UNL     1      27.510   0.864  53.933  1.00  0.00     0.014 C 
HETATM   21  C1  UNL     1      28.397   0.134  54.894  1.00  0.00     0.012 C 
HETATM   22  C25 UNL     1      27.317   0.101  52.628  1.00  0.00     0.043 C 
HETATM   23  C26 UNL     1      26.186  -0.897  52.738  1.00  0.00     0.015 C 
ENDBRANCH  16  17
ENDBRANCH  14  16
ENDBRANCH   1  10
BRANCH   3  24
HETATM   24  C12 UNL     1      26.580   8.646  48.261  1.00  0.00     0.092 C 
HETATM   25  C13 UNL     1      27.795   8.260  47.446  1.00  0.00     0.032 C 
HETATM   26  C14 UNL     1      28.599   9.217  48.299  1.00  0.00     0.018 C 
HETATM   27  C19 UNL     1      27.520   9.081  49.354  1.00  0.00     0.032 C 
BRANCH  26  28
HETATM   28  C15 UNL     1      28.623  10.594  47.659  1.00  0.00     0.277 C 
BRANCH  28  29
HETATM   29  N2  UNL     1      29.988  11.086  47.568  1.00  0.00     0.088 N 
HETATM   30  C16 UNL     1      30.076  12.497  47.817  1.00  0.00     0.274 C 
HETATM   31  C17 UNL     1      30.723  12.268  49.148  1.00  0.00     0.060 C 
HETATM   32  C18 UNL     1      30.754  10.831  48.749  1.00  0.00     0.274 C 
ENDBRANCH  28  29
ENDBRANCH  26  28
ENDBRANCH   3  24
BRANCH   8  33
HETATM   33  N5  UNL     1      22.263   4.380  48.610  1.00  0.00    -0.383 N 
HETATM   34  H27 UNL     1      22.358   4.743  49.605  1.00  0.00     0.157 HD
HETATM   35  H28 UNL     1      22.051   3.812  47.754  1.00  0.00     0.157 HD
ENDBRANCH   8  33
TORSDOF 7
ENDMDL
MODEL 5
REMARK VINA RESULT:      -8.3      1.632      2.385
REMARK  7 active torsions:
REMARK  status: ('A' for Active; 'I' for Inactive)
REMARK    1  A    between atoms: C4_5  and  O2_6 
REMARK    2  A    between atoms: O2_6  and  C5_7 
REMARK    3  A    between atoms: C9_11  and  C10_12 
REMARK    4  A    between atoms: N1_14  and  C12_15 
REMARK    5  A    between atoms: C14_17  and  C15_18 
REMARK    6  A    between atoms: C15_18  and  N2_19 
REMARK    7  A    between atoms: C22_28  and  N5_29 
ROOT
HETATM    1  C10 UNL     1      26.102   5.352  49.445  1.00  0.00     0.008 A 
HETATM    2  C11 UNL     1      27.302   5.110  48.768  1.00  0.00     0.106 A 
HETATM    3  N1  UNL     1      27.939   6.253  48.457  1.00  0.00    -0.335 N 
HETATM    4  C20 UNL     1      27.163   7.263  48.926  1.00  0.00     0.146 A 
HETATM    5  N3  UNL     1      27.249   8.603  48.932  1.00  0.00    -0.223 NA
HETATM    6  C21 UNL     1      26.277   9.325  49.505  1.00  0.00     0.237 A 
HETATM    7  N4  UNL     1      25.190   8.800  50.093  1.00  0.00    -0.224 NA
HETATM    8  C22 UNL     1      25.041   7.454  50.122  1.00  0.00     0.137 A 
HETATM    9  C23 UNL     1      26.047   6.724  49.528  1.00  0.00     0.068 A 
ENDROOT
BRANCH   1  10
HETATM   10  C9  UNL     1      25.274   4.226  49.839  1.00  0.00    -0.021 A 
HETATM   11  C8  UNL     1      24.174   3.964  49.041  1.00  0.00     0.012 A 
HETATM   12  C7  UNL     1      23.310   2.927  49.326  1.00  0.00     0.004 A 
HETATM   13  C6  UNL     1      23.502   2.110  50.417  1.00  0.00     0.037 A 
HETATM   14  C5  UNL     1      24.612   2.369  51.229  1.00  0.00     0.072 A 
HETATM   15  C24 UNL     1      25.461   3.407  50.927  1.00  0.00     0.049 A 
BRANCH  14  16
HETATM   16  O2  UNL     1      24.752   1.518  52.305  1.00  0.00    -0.320 OA
BRANCH  16  17
HETATM   17  C4  UNL     1      25.451   0.307  52.325  1.00  0.00     0.270 C 
HETATM   18  O1  UNL     1      26.690   0.555  52.891  1.00  0.00    -0.360 OA
HETATM   19  C3  UNL     1      26.645   0.335  54.238  1.00  0.00     0.175 C 
HETATM   20  C2  UNL     1      25.243  -0.041  54.621  1.00  0.00     0.014 C 
HETATM   21  C1  UNL     1      25.158  -1.038  55.737  1.00  0.00     0.012 C 
HETATM   22  C25 UNL     1      24.726  -0.602  53.302  1.00  0.00     0.043 C 
HETATM   23  C26 UNL     1      23.228  -0.436  53.184  1.00  0.00     0.015 C 
ENDBRANCH  16  17
ENDBRANCH  14  16
ENDBRANCH   1  10
BRANCH   3  24
HETATM   24  C12 UNL     1      29.193   6.425  47.766  1.00  0.00     0.092 C 
HETATM   25  C13 UNL     1      30.115   5.226  47.792  1.00  0.00     0.032 C 
HETATM   26  C14 UNL     1      31.268   6.189  47.971  1.00  0.00     0.018 C 
HETATM   27  C19 UNL     1      30.263   7.193  48.497  1.00  0.00     0.032 C 
BRANCH  26  28
HETATM   28  C15 UNL     1      31.837   6.582  46.618  1.00  0.00     0.277 C 
BRANCH  28  29
HETATM   29  N2  UNL     1      33.282   6.429  46.613  1.00  0.00     0.088 N 
HETATM   30  C16 UNL     1      33.956   7.635  46.223  1.00  0.00     0.274 C 
HETATM   31  C17 UNL     1      34.435   7.874  47.621  1.00  0.00     0.060 C 
HETATM   32  C18 UNL     1      33.860   6.530  47.919  1.00  0.00     0.274 C 
ENDBRANCH  28  29
ENDBRANCH  26  28
ENDBRANCH   3  24
BRANCH   8  33
HETATM   33  N5  UNL     1      23.909   6.851  50.742  1.00  0.00    -0.383 N 
HETATM   34  H27 UNL     1      23.709   7.605  51.465  1.00  0.00     0.157 HD
HETATM   35  H28 UNL     1      23.893   5.989  50.145  1.00  0.00     0.157 HD
ENDBRANCH   8  33
TORSDOF 7
ENDMDL
MODEL 6
REMARK VINA RESULT:      -8.3      6.655     11.516
REMARK  7 active torsions:
REMARK  status: ('A' for Active; 'I' for Inactive)
REMARK    1  A    between atoms: C4_5  and  O2_6 
REMARK    2  A    between atoms: O2_6  and  C5_7 
REMARK    3  A    between atoms: C9_11  and  C10_12 
REMARK    4  A    between atoms: N1_14  and  C12_15 
REMARK    5  A    between atoms: C14_17  and  C15_18 
REMARK    6  A    between atoms: C15_18  and  N2_19 
REMARK    7  A    between atoms: C22_28  and  N5_29 
ROOT
HETATM    1  C10 UNL     1      21.191   1.853  52.564  1.00  0.00     0.008 A 
HETATM    2  C11 UNL     1      19.876   1.519  52.220  1.00  0.00     0.106 A 
HETATM    3  N1  UNL     1      19.257   2.525  51.577  1.00  0.00    -0.335 N 
HETATM    4  C20 UNL     1      20.160   3.536  51.489  1.00  0.00     0.146 A 
HETATM    5  N3  UNL     1      20.151   4.773  50.969  1.00  0.00    -0.223 NA
HETATM    6  C21 UNL     1      21.253   5.532  51.053  1.00  0.00     0.237 A 
HETATM    7  N4  UNL     1      22.398   5.142  51.632  1.00  0.00    -0.224 NA
HETATM    8  C22 UNL     1      22.474   3.904  52.177  1.00  0.00     0.137 A 
HETATM    9  C23 UNL     1      21.335   3.135  52.085  1.00  0.00     0.068 A 
ENDROOT
BRANCH   1  10
HETATM   10  C9  UNL     1      22.000   0.887  53.286  1.00  0.00    -0.021 A 
HETATM   11  C8  UNL     1      21.326   0.057  54.164  1.00  0.00     0.012 A 
HETATM   12  C7  UNL     1      21.994  -0.890  54.912  1.00  0.00     0.004 A 
HETATM   13  C6  UNL     1      23.357  -1.050  54.820  1.00  0.00     0.037 A 
HETATM   14  C5  UNL     1      24.046  -0.213  53.934  1.00  0.00     0.072 A 
HETATM   15  C24 UNL     1      23.361   0.724  53.197  1.00  0.00     0.049 A 
BRANCH  14  16
HETATM   16  O2  UNL     1      25.408  -0.419  53.884  1.00  0.00    -0.320 OA
BRANCH  16  17
HETATM   17  C4  UNL     1      26.376   0.494  53.453  1.00  0.00     0.270 C 
HETATM   18  O1  UNL     1      27.002   0.994  54.583  1.00  0.00    -0.360 OA
HETATM   19  C3  UNL     1      28.107   0.249  54.877  1.00  0.00     0.175 C 
HETATM   20  C2  UNL     1      28.204  -0.882  53.895  1.00  0.00     0.014 C 
HETATM   21  C1  UNL     1      29.608  -1.260  53.530  1.00  0.00     0.012 C 
HETATM   22  C25 UNL     1      27.435  -0.303  52.714  1.00  0.00     0.043 C 
HETATM   23  C26 UNL     1      26.804  -1.396  51.880  1.00  0.00     0.015 C 
ENDBRANCH  16  17
ENDBRANCH  14  16
ENDBRANCH   1  10
BRANCH   3  24
HETATM   24  C12 UNL     1      17.910   2.571  51.063  1.00  0.00     0.092 C 
HETATM   25  C13 UNL     1      16.961   3.474  51.821  1.00  0.00     0.032 C 
HETATM   26  C14 UNL     1      15.894   2.420  51.625  1.00  0.00     0.018 C 
HETATM   27  C19 UNL     1      17.012   1.417  51.425  1.00  0.00     0.032 C 
BRANCH  26  28
HETATM   28  C15 UNL     1      15.116   2.693  50.348  1.00  0.00     0.277 C 
BRANCH  28  29
HETATM   29  N2  UNL     1      13.688   2.708  50.619  1.00  0.00     0.088 N 
HETATM   30  C16 UNL     1      13.401   2.750  52.025  1.00  0.00     0.274 C 
HETATM   31  C17 UNL     1      12.945   4.173  51.937  1.00  0.00     0.060 C 
HETATM   32  C18 UNL     1      13.103   4.005  50.463  1.00  0.00     0.274 C 
ENDBRANCH  28  29
ENDBRANCH  26  28
ENDBRANCH   3  24
BRANCH   8  33
HETATM   33  N5  UNL     1      23.672   3.442  52.794  1.00  0.00    -0.383 N 
HETATM   34  H27 UNL     1      23.234   2.914  53.607  1.00  0.00     0.157 HD
HETATM   35  H28 UNL     1      24.335   3.877  52.107  1.00  0.00     0.157 HD
ENDBRANCH   8  33
TORSDOF 7
ENDMDL
MODEL 7
REMARK VINA RESULT:      -8.3      3.932      9.662
REMARK  7 active torsions:
REMARK  status: ('A' for Active; 'I' for Inactive)
REMARK    1  A    between atoms: C4_5  and  O2_6 
REMARK    2  A    between atoms: O2_6  and  C5_7 
REMARK    3  A    between atoms: C9_11  and  C10_12 
REMARK    4  A    between atoms: N1_14  and  C12_15 
REMARK    5  A    between atoms: C14_17  and  C15_18 
REMARK    6  A    between atoms: C15_18  and  N2_19 
REMARK    7  A    between atoms: C22_28  and  N5_29 
ROOT
HETATM    1  C10 UNL     1      25.244   5.269  49.266  1.00  0.00     0.008 A 
HETATM    2  C11 UNL     1      25.173   4.317  50.289  1.00  0.00     0.106 A 
HETATM    3  N1  UNL     1      23.906   3.936  50.530  1.00  0.00    -0.335 N 
HETATM    4  C20 UNL     1      23.126   4.634  49.666  1.00  0.00     0.146 A 
HETATM    5  N3  UNL     1      21.809   4.695  49.414  1.00  0.00    -0.223 NA
HETATM    6  C21 UNL     1      21.357   5.516  48.455  1.00  0.00     0.237 A 
HETATM    7  N4  UNL     1      22.140   6.304  47.703  1.00  0.00    -0.224 NA
HETATM    8  C22 UNL     1      23.480   6.290  47.906  1.00  0.00     0.137 A 
HETATM    9  C23 UNL     1      23.930   5.444  48.895  1.00  0.00     0.068 A 
ENDROOT
BRANCH   1  10
HETATM   10  C9  UNL     1      26.539   5.808  48.890  1.00  0.00    -0.021 A 
HETATM   11  C8  UNL     1      27.527   4.884  48.601  1.00  0.00     0.012 A 
HETATM   12  C7  UNL     1      28.799   5.281  48.245  1.00  0.00     0.004 A 
HETATM   13  C6  UNL     1      29.141   6.612  48.162  1.00  0.00     0.037 A 
HETATM   14  C5  UNL     1      28.146   7.552  48.454  1.00  0.00     0.072 A 
HETATM   15  C24 UNL     1      26.885   7.135  48.806  1.00  0.00     0.049 A 
BRANCH  14  16
HETATM   16  O2  UNL     1      28.547   8.867  48.354  1.00  0.00    -0.320 OA
BRANCH  16  17
HETATM   17  C4  UNL     1      28.857   9.728  49.412  1.00  0.00     0.270 C 
HETATM   18  O1  UNL     1      30.238   9.795  49.498  1.00  0.00    -0.360 OA
HETATM   19  C3  UNL     1      30.706  10.841  48.757  1.00  0.00     0.175 C 
HETATM   20  C2  UNL     1      29.547  11.504  48.069  1.00  0.00     0.014 C 
HETATM   21  C1  UNL     1      29.687  12.990  47.927  1.00  0.00     0.012 C 
HETATM   22  C25 UNL     1      28.403  11.116  48.998  1.00  0.00     0.043 C 
HETATM   23  C26 UNL     1      27.089  11.054  48.253  1.00  0.00     0.015 C 
ENDBRANCH  16  17
ENDBRANCH  14  16
ENDBRANCH   1  10
BRANCH   3  24
HETATM   24  C12 UNL     1      23.422   2.983  51.498  1.00  0.00     0.092 C 
HETATM   25  C13 UNL     1      24.484   2.354  52.374  1.00  0.00     0.032 C 
HETATM   26  C14 UNL     1      23.732   1.047  52.248  1.00  0.00     0.018 C 
HETATM   27  C19 UNL     1      23.108   1.602  50.984  1.00  0.00     0.032 C 
BRANCH  26  28
HETATM   28  C15 UNL     1      22.731   0.909  53.383  1.00  0.00     0.277 C 
BRANCH  28  29
HETATM   29  N2  UNL     1      22.818  -0.416  53.975  1.00  0.00     0.088 N 
HETATM   30  C16 UNL     1      21.855  -0.608  55.023  1.00  0.00     0.274 C 
HETATM   31  C17 UNL     1      21.043  -1.533  54.169  1.00  0.00     0.060 C 
HETATM   32  C18 UNL     1      22.166  -1.422  53.193  1.00  0.00     0.274 C 
ENDBRANCH  28  29
ENDBRANCH  26  28
ENDBRANCH   3  24
BRANCH   8  33
HETATM   33  N5  UNL     1      24.352   7.103  47.126  1.00  0.00    -0.383 N 
HETATM   34  H27 UNL     1      23.751   7.979  47.082  1.00  0.00     0.157 HD
HETATM   35  H28 UNL     1      25.113   6.389  47.019  1.00  0.00     0.157 HD
ENDBRANCH   8  33
TORSDOF 7
ENDMDL
MODEL 8
REMARK VINA RESULT:      -8.2      5.408      7.885
REMARK  7 active torsions:
REMARK  status: ('A' for Active; 'I' for Inactive)
REMARK    1  A    between atoms: C4_5  and  O2_6 
REMARK    2  A    between atoms: O2_6  and  C5_7 
REMARK    3  A    between atoms: C9_11  and  C10_12 
REMARK    4  A    between atoms: N1_14  and  C12_15 
REMARK    5  A    between atoms: C14_17  and  C15_18 
REMARK    6  A    between atoms: C15_18  and  N2_19 
REMARK    7  A    between atoms: C22_28  and  N5_29 
ROOT
HETATM    1  C10 UNL     1      23.325   4.112  50.062  1.00  0.00     0.008 A 
HETATM    2  C11 UNL     1      22.903   3.785  48.768  1.00  0.00     0.106 A 
HETATM    3  N1  UNL     1      22.680   4.881  48.023  1.00  0.00    -0.335 N 
HETATM    4  C20 UNL     1      22.954   5.947  48.819  1.00  0.00     0.146 A 
HETATM    5  N3  UNL     1      22.929   7.280  48.663  1.00  0.00    -0.223 NA
HETATM    6  C21 UNL     1      23.277   8.072  49.687  1.00  0.00     0.237 A 
HETATM    7  N4  UNL     1      23.660   7.625  50.893  1.00  0.00    -0.224 NA
HETATM    8  C22 UNL     1      23.707   6.290  51.118  1.00  0.00     0.137 A 
HETATM    9  C23 UNL     1      23.346   5.488  50.058  1.00  0.00     0.068 A 
ENDROOT
BRANCH   1  10
HETATM   10  C9  UNL     1      23.590   3.044  51.010  1.00  0.00    -0.021 A 
HETATM   11  C8  UNL     1      22.500   2.563  51.713  1.00  0.00     0.012 A 
HETATM   12  C7  UNL     1      22.635   1.558  52.648  1.00  0.00     0.004 A 
HETATM   13  C6  UNL     1      23.859   0.993  52.925  1.00  0.00     0.037 A 
HETATM   14  C5  UNL     1      24.967   1.476  52.219  1.00  0.00     0.072 A 
HETATM   15  C24 UNL     1      24.810   2.477  51.290  1.00  0.00     0.049 A 
BRANCH  14  16
HETATM   16  O2  UNL     1      26.164   0.872  52.538  1.00  0.00    -0.320 OA
BRANCH  16  17
HETATM   17  C4  UNL     1      26.501   0.280  53.759  1.00  0.00     0.270 C 
HETATM   18  O1  UNL     1      26.489  -1.092  53.570  1.00  0.00    -0.360 OA
HETATM   19  C3  UNL     1      27.734  -1.532  53.227  1.00  0.00     0.175 C 
HETATM   20  C2  UNL     1      28.654  -0.349  53.125  1.00  0.00     0.014 C 
HETATM   21  C1  UNL     1      30.061  -0.626  53.561  1.00  0.00     0.012 C 
HETATM   22  C25 UNL     1      27.948   0.643  54.040  1.00  0.00     0.043 C 
HETATM   23  C26 UNL     1      28.235   2.070  53.629  1.00  0.00     0.015 C 
ENDBRANCH  16  17
ENDBRANCH  14  16
ENDBRANCH   1  10
BRANCH   3  24
HETATM   24  C12 UNL     1      22.241   4.965  46.652  1.00  0.00     0.092 C 
HETATM   25  C13 UNL     1      20.793   5.361  46.461  1.00  0.00     0.032 C 
HETATM   26  C14 UNL     1      20.725   4.352  45.335  1.00  0.00     0.018 C 
HETATM   27  C19 UNL     1      21.915   3.661  45.970  1.00  0.00     0.032 C 
BRANCH  26  28
HETATM   28  C15 UNL     1      21.070   5.018  44.014  1.00  0.00     0.277 C 
BRANCH  28  29
HETATM   29  N2  UNL     1      19.943   4.940  43.099  1.00  0.00     0.088 N 
HETATM   30  C16 UNL     1      20.360   4.852  41.728  1.00  0.00     0.274 C 
HETATM   31  C17 UNL     1      19.949   3.415  41.647  1.00  0.00     0.060 C 
HETATM   32  C18 UNL     1      19.384   3.625  43.012  1.00  0.00     0.274 C 
ENDBRANCH  28  29
ENDBRANCH  26  28
ENDBRANCH   3  24
BRANCH   8  33
HETATM   33  N5  UNL     1      24.117   5.768  52.378  1.00  0.00    -0.383 N 
HETATM   34  H27 UNL     1      24.833   6.513  52.629  1.00  0.00     0.157 HD
HETATM   35  H28 UNL     1      23.487   4.930  52.370  1.00  0.00     0.157 HD
ENDBRANCH   8  33
TORSDOF 7
ENDMDL
MODEL 9
REMARK VINA RESULT:      -8.1      6.273      8.720
REMARK  7 active torsions:
REMARK  status: ('A' for Active; 'I' for Inactive)
REMARK    1  A    between atoms: C4_5  and  O2_6 
REMARK    2  A    between atoms: O2_6  and  C5_7 
REMARK    3  A    between atoms: C9_11  and  C10_12 
REMARK    4  A    between atoms: N1_14  and  C12_15 
REMARK    5  A    between atoms: C14_17  and  C15_18 
REMARK    6  A    between atoms: C15_18  and  N2_19 
REMARK    7  A    between atoms: C22_28  and  N5_29 
ROOT
HETATM    1  C10 UNL     1      22.438   1.876  50.667  1.00  0.00     0.008 A 
HETATM    2  C11 UNL     1      23.724   1.739  51.201  1.00  0.00     0.106 A 
HETATM    3  N1  UNL     1      23.735   0.925  52.271  1.00  0.00    -0.335 N 
HETATM    4  C20 UNL     1      22.454   0.516  52.455  1.00  0.00     0.146 A 
HETATM    5  N3  UNL     1      21.830  -0.288  53.330  1.00  0.00    -0.223 NA
HETATM    6  C21 UNL     1      20.509  -0.487  53.220  1.00  0.00     0.237 A 
HETATM    7  N4  UNL     1      19.737   0.069  52.274  1.00  0.00    -0.224 NA
HETATM    8  C22 UNL     1      20.303   0.891  51.359  1.00  0.00     0.137 A 
HETATM    9  C23 UNL     1      21.661   1.088  51.484  1.00  0.00     0.068 A 
ENDROOT
BRANCH   1  10
HETATM   10  C9  UNL     1      22.239   2.740  49.516  1.00  0.00    -0.021 A 
HETATM   11  C8  UNL     1      22.330   2.138  48.274  1.00  0.00     0.012 A 
HETATM   12  C7  UNL     1      22.172   2.863  47.111  1.00  0.00     0.004 A 
HETATM   13  C6  UNL     1      21.918   4.215  47.135  1.00  0.00     0.037 A 
HETATM   14  C5  UNL     1      21.825   4.832  48.389  1.00  0.00     0.072 A 
HETATM   15  C24 UNL     1      21.986   4.091  49.535  1.00  0.00     0.049 A 
BRANCH  14  16
HETATM   16  O2  UNL     1      21.569   6.185  48.350  1.00  0.00    -0.320 OA
BRANCH  16  17
HETATM   17  C4  UNL     1      22.517   7.215  48.345  1.00  0.00     0.270 C 
HETATM   18  O1  UNL     1      22.435   7.844  47.114  1.00  0.00    -0.360 OA
HETATM   19  C3  UNL     1      21.569   8.896  47.179  1.00  0.00     0.175 C 
HETATM   20  C2  UNL     1      20.974   8.949  48.556  1.00  0.00     0.014 C 
HETATM   21  C1  UNL     1      20.706  10.336  49.056  1.00  0.00     0.012 C 
HETATM   22  C25 UNL     1      22.055   8.242  49.363  1.00  0.00     0.043 C 
HETATM   23  C26 UNL     1      21.475   7.566  50.586  1.00  0.00     0.015 C 
ENDBRANCH  16  17
ENDBRANCH  14  16
ENDBRANCH   1  10
BRANCH   3  24
HETATM   24  C12 UNL     1      24.855   0.533  53.092  1.00  0.00     0.092 C 
HETATM   25  C13 UNL     1      25.593   1.671  53.764  1.00  0.00     0.032 C 
HETATM   26  C14 UNL     1      26.880   0.933  53.470  1.00  0.00     0.018 C 
HETATM   27  C19 UNL     1      26.135   0.203  52.370  1.00  0.00     0.032 C 
BRANCH  26  28
HETATM   28  C15 UNL     1      27.241   0.026  54.634  1.00  0.00     0.277 C 
BRANCH  28  29
HETATM   29  N2  UNL     1      28.665   0.106  54.915  1.00  0.00     0.088 N 
HETATM   30  C16 UNL     1      29.415  -0.899  54.216  1.00  0.00     0.274 C 
HETATM   31  C17 UNL     1      29.998   0.118  53.284  1.00  0.00     0.060 C 
HETATM   32  C18 UNL     1      29.328   1.125  54.158  1.00  0.00     0.274 C 
ENDBRANCH  28  29
ENDBRANCH  26  28
ENDBRANCH   3  24
BRANCH   8  33
HETATM   33  N5  UNL     1      19.526   1.498  50.330  1.00  0.00    -0.383 N 
HETATM   34  H27 UNL     1      19.866   2.498  50.448  1.00  0.00     0.157 HD
HETATM   35  H28 UNL     1      19.040   0.622  50.017  1.00  0.00     0.157 HD
ENDBRANCH   8  33
TORSDOF 7
ENDMDL
