MODEL 1
REMARK VINA RESULT:      -7.5      0.000      0.000
REMARK  6 active torsions:
REMARK  status: ('A' for Active; 'I' for Inactive)
REMARK    1  A    between atoms: C2_2  and  N1_3 
REMARK    2  A    between atoms: N1_3  and  C3_4 
REMARK    3  A    between atoms: C5_6  and  N2_7 
REMARK    4  A    between atoms: N2_7  and  C6_8 
REMARK    5  A    between atoms: C6_8  and  C8_10 
REMARK    6  A    between atoms: C11_13  and  C12_14 
ROOT
HETATM    1  N2  UNL     1      23.775   2.150  50.653  1.00  0.00    -0.366 N 
HETATM    2  H6  UNL     1      23.679   1.560  49.778  1.00  0.00     0.161 HD
ENDROOT
BRANCH   1   3
HETATM    3  C5  UNL     1      22.569   2.295  51.394  1.00  0.00     0.129 A 
HETATM    4  C4  UNL     1      22.053   1.297  52.223  1.00  0.00     0.100 A 
HETATM    5  C3  UNL     1      20.896   1.456  52.951  1.00  0.00     0.132 A 
HETATM    6  N4  UNL     1      20.218   2.630  52.868  1.00  0.00    -0.224 NA
HETATM    7  C15 UNL     1      20.716   3.588  52.070  1.00  0.00     0.237 A 
HETATM    8  N3  UNL     1      21.846   3.416  51.367  1.00  0.00    -0.225 NA
BRANCH   5   9
HETATM    9  N1  UNL     1      20.401   0.409  53.787  1.00  0.00    -0.351 N 
HETATM   10  H4  UNL     1      19.381   0.190  53.757  1.00  0.00     0.166 HD
BRANCH   9  11
HETATM   11  C2  UNL     1      21.322  -0.293  54.625  1.00  0.00     0.079 C 
HETATM   12  C1  UNL     1      21.587  -1.593  54.572  1.00  0.00     0.029 C 
ENDBRANCH   9  11
ENDBRANCH   5   9
ENDBRANCH   1   3
BRANCH   1  13
HETATM   13  C6  UNL     1      25.035   2.719  50.996  1.00  0.00     0.112 C 
HETATM   14  C7  UNL     1      25.738   3.416  49.840  1.00  0.00     0.037 C 
BRANCH  13  15
HETATM   15  C8  UNL     1      25.979   1.863  51.713  1.00  0.00    -0.036 A 
HETATM   16  C9  UNL     1      25.935   0.520  51.923  1.00  0.00     0.010 A 
HETATM   17  C10 UNL     1      26.875  -0.220  52.608  1.00  0.00     0.017 A 
HETATM   18  C11 UNL     1      27.977   0.398  53.149  1.00  0.00     0.047 A 
HETATM   19  C13 UNL     1      28.116   1.759  52.992  1.00  0.00     0.017 A 
HETATM   20  C14 UNL     1      27.132   2.425  52.293  1.00  0.00     0.010 A 
BRANCH  18  21
HETATM   21  C12 UNL     1      28.959  -0.419  53.873  1.00  0.00     0.417 C 
HETATM   22  F1  UNL     1      28.842  -0.328  55.236  1.00  0.00    -0.166 F 
HETATM   23  F2  UNL     1      30.239   0.004  53.532  1.00  0.00    -0.166 F 
HETATM   24  F3  UNL     1      28.889  -1.757  53.458  1.00  0.00    -0.166 F 
ENDBRANCH  18  21
ENDBRANCH  13  15
ENDBRANCH   1  13
TORSDOF 6
ENDMDL
MODEL 2
REMARK VINA RESULT:      -7.4      5.212      8.026
REMARK  6 active torsions:
REMARK  status: ('A' for Active; 'I' for Inactive)
REMARK    1  A    between atoms: C2_2  and  N1_3 
REMARK    2  A    between atoms: N1_3  and  C3_4 
REMARK    3  A    between atoms: C5_6  and  N2_7 
REMARK    4  A    between atoms: N2_7  and  C6_8 
REMARK    5  A    between atoms: C6_8  and  C8_10 
REMARK    6  A    between atoms: C11_13  and  C12_14 
ROOT
HETATM    1  N2  UNL     1      23.669  -0.675  53.287  1.00  0.00    -0.366 N 
HETATM    2  H6  UNL     1      23.881  -1.448  52.593  1.00  0.00     0.161 HD
ENDROOT
BRANCH   1   3
HETATM    3  C5  UNL     1      24.790   0.139  53.612  1.00  0.00     0.129 A 
HETATM    4  C4  UNL     1      25.979  -0.368  54.138  1.00  0.00     0.100 A 
HETATM    5  C3  UNL     1      27.065   0.426  54.431  1.00  0.00     0.132 A 
HETATM    6  N4  UNL     1      26.987   1.763  54.202  1.00  0.00    -0.224 NA
HETATM    7  C15 UNL     1      25.841   2.248  53.696  1.00  0.00     0.237 A 
HETATM    8  N3  UNL     1      24.793   1.459  53.417  1.00  0.00    -0.225 NA
BRANCH   5   9
HETATM    9  N1  UNL     1      28.264  -0.132  54.969  1.00  0.00    -0.351 N 
HETATM   10  H4  UNL     1      28.317  -0.296  55.998  1.00  0.00     0.166 HD
BRANCH   9  11
HETATM   11  C2  UNL     1      29.336  -0.444  54.077  1.00  0.00     0.079 C 
HETATM   12  C1  UNL     1      29.469  -1.569  53.384  1.00  0.00     0.029 C 
ENDBRANCH   9  11
ENDBRANCH   5   9
ENDBRANCH   1   3
BRANCH   1  13
HETATM   13  C6  UNL     1      22.352  -0.523  53.807  1.00  0.00     0.112 C 
HETATM   14  C7  UNL     1      21.898  -1.673  54.694  1.00  0.00     0.037 C 
BRANCH  13  15
HETATM   15  C8  UNL     1      21.296  -0.176  52.857  1.00  0.00    -0.036 A 
HETATM   16  C9  UNL     1      21.400   0.389  51.624  1.00  0.00     0.010 A 
HETATM   17  C10 UNL     1      20.349   0.680  50.781  1.00  0.00     0.017 A 
HETATM   18  C11 UNL     1      19.060   0.398  51.164  1.00  0.00     0.047 A 
HETATM   19  C13 UNL     1      18.846  -0.177  52.398  1.00  0.00     0.017 A 
HETATM   20  C14 UNL     1      19.951  -0.436  53.180  1.00  0.00     0.010 A 
BRANCH  18  21
HETATM   21  C12 UNL     1      17.963   0.721  50.242  1.00  0.00     0.417 C 
HETATM   22  F1  UNL     1      18.331   1.589  49.246  1.00  0.00    -0.166 F 
HETATM   23  F2  UNL     1      16.929   1.314  50.957  1.00  0.00    -0.166 F 
HETATM   24  F3  UNL     1      17.414  -0.450  49.700  1.00  0.00    -0.166 F 
ENDBRANCH  18  21
ENDBRANCH  13  15
ENDBRANCH   1  13
TORSDOF 6
ENDMDL
MODEL 3
REMARK VINA RESULT:      -7.4      4.317      6.536
REMARK  6 active torsions:
REMARK  status: ('A' for Active; 'I' for Inactive)
REMARK    1  A    between atoms: C2_2  and  N1_3 
REMARK    2  A    between atoms: N1_3  and  C3_4 
REMARK    3  A    between atoms: C5_6  and  N2_7 
REMARK    4  A    between atoms: N2_7  and  C6_8 
REMARK    5  A    between atoms: C6_8  and  C8_10 
REMARK    6  A    between atoms: C11_13  and  C12_14 
ROOT
HETATM    1  N2  UNL     1      25.248   1.536  51.281  1.00  0.00    -0.366 N 
HETATM    2  H6  UNL     1      25.640   1.081  50.408  1.00  0.00     0.161 HD
ENDROOT
BRANCH   1   3
HETATM    3  C5  UNL     1      25.418   0.767  52.465  1.00  0.00     0.129 A 
HETATM    4  C4  UNL     1      26.636   0.652  53.138  1.00  0.00     0.100 A 
HETATM    5  C3  UNL     1      26.784  -0.078  54.295  1.00  0.00     0.132 A 
HETATM    6  N4  UNL     1      25.705  -0.720  54.815  1.00  0.00    -0.224 NA
HETATM    7  C15 UNL     1      24.534  -0.607  54.166  1.00  0.00     0.237 A 
HETATM    8  N3  UNL     1      24.409   0.109  53.039  1.00  0.00    -0.225 NA
BRANCH   5   9
HETATM    9  N1  UNL     1      28.049  -0.172  54.951  1.00  0.00    -0.351 N 
HETATM   10  H4  UNL     1      28.063  -0.255  55.991  1.00  0.00     0.166 HD
BRANCH   9  11
HETATM   11  C2  UNL     1      29.237  -0.149  54.157  1.00  0.00     0.079 C 
HETATM   12  C1  UNL     1      29.817  -1.202  53.595  1.00  0.00     0.029 C 
ENDBRANCH   9  11
ENDBRANCH   5   9
ENDBRANCH   1   3
BRANCH   1  13
HETATM   13  C6  UNL     1      24.617   2.810  51.200  1.00  0.00     0.112 C 
HETATM   14  C7  UNL     1      23.153   2.755  50.787  1.00  0.00     0.037 C 
BRANCH  13  15
HETATM   15  C8  UNL     1      25.311   3.851  50.442  1.00  0.00    -0.036 A 
HETATM   16  C9  UNL     1      25.021   5.175  50.334  1.00  0.00     0.010 A 
HETATM   17  C10 UNL     1      25.734   6.099  49.600  1.00  0.00     0.017 A 
HETATM   18  C11 UNL     1      26.846   5.707  48.893  1.00  0.00     0.047 A 
HETATM   19  C13 UNL     1      27.226   4.384  48.937  1.00  0.00     0.017 A 
HETATM   20  C14 UNL     1      26.459   3.525  49.695  1.00  0.00     0.010 A 
BRANCH  18  21
HETATM   21  C12 UNL     1      27.582   6.717  48.122  1.00  0.00     0.417 C 
HETATM   22  F1  UNL     1      28.690   6.214  47.490  1.00  0.00    -0.166 F 
HETATM   23  F2  UNL     1      28.010   7.722  48.983  1.00  0.00    -0.166 F 
HETATM   24  F3  UNL     1      26.734   7.352  47.204  1.00  0.00    -0.166 F 
ENDBRANCH  18  21
ENDBRANCH  13  15
ENDBRANCH   1  13
TORSDOF 6
ENDMDL
MODEL 4
REMARK VINA RESULT:      -7.4      1.966      2.896
REMARK  6 active torsions:
REMARK  status: ('A' for Active; 'I' for Inactive)
REMARK    1  A    between atoms: C2_2  and  N1_3 
REMARK    2  A    between atoms: N1_3  and  C3_4 
REMARK    3  A    between atoms: C5_6  and  N2_7 
REMARK    4  A    between atoms: N2_7  and  C6_8 
REMARK    5  A    between atoms: C6_8  and  C8_10 
REMARK    6  A    between atoms: C11_13  and  C12_14 
ROOT
HETATM    1  N2  UNL     1      22.880   0.809  51.640  1.00  0.00    -0.366 N 
HETATM    2  H6  UNL     1      22.607   0.459  50.678  1.00  0.00     0.161 HD
ENDROOT
BRANCH   1   3
HETATM    3  C5  UNL     1      22.317   0.065  52.713  1.00  0.00     0.129 A 
HETATM    4  C4  UNL     1      20.948  -0.170  52.849  1.00  0.00     0.100 A 
HETATM    5  C3  UNL     1      20.414  -0.908  53.880  1.00  0.00     0.132 A 
HETATM    6  N4  UNL     1      21.247  -1.438  54.814  1.00  0.00    -0.224 NA
HETATM    7  C15 UNL     1      22.565  -1.210  54.682  1.00  0.00     0.237 A 
HETATM    8  N3  UNL     1      23.066  -0.487  53.669  1.00  0.00    -0.225 NA
BRANCH   5   9
HETATM    9  N1  UNL     1      19.007  -1.124  53.983  1.00  0.00    -0.351 N 
HETATM   10  H4  UNL     1      18.618  -1.439  54.899  1.00  0.00     0.166 HD
BRANCH   9  11
HETATM   11  C2  UNL     1      18.192  -0.899  52.830  1.00  0.00     0.079 C 
HETATM   12  C1  UNL     1      16.983  -1.406  52.620  1.00  0.00     0.029 C 
ENDBRANCH   9  11
ENDBRANCH   5   9
ENDBRANCH   1   3
BRANCH   1  13
HETATM   13  C6  UNL     1      23.743   1.935  51.772  1.00  0.00     0.112 C 
HETATM   14  C7  UNL     1      23.939   2.722  50.484  1.00  0.00     0.037 C 
BRANCH  13  15
HETATM   15  C8  UNL     1      25.032   1.714  52.426  1.00  0.00    -0.036 A 
HETATM   16  C9  UNL     1      25.549   2.311  53.533  1.00  0.00     0.010 A 
HETATM   17  C10 UNL     1      26.778   2.040  54.095  1.00  0.00     0.017 A 
HETATM   18  C11 UNL     1      27.599   1.094  53.531  1.00  0.00     0.047 A 
HETATM   19  C13 UNL     1      27.168   0.430  52.404  1.00  0.00     0.017 A 
HETATM   20  C14 UNL     1      25.926   0.760  51.906  1.00  0.00     0.010 A 
BRANCH  18  21
HETATM   21  C12 UNL     1      28.902   0.829  54.154  1.00  0.00     0.417 C 
HETATM   22  F1  UNL     1      29.556   1.969  54.548  1.00  0.00    -0.166 F 
HETATM   23  F2  UNL     1      29.717   0.171  53.240  1.00  0.00    -0.166 F 
HETATM   24  F3  UNL     1      28.763  -0.058  55.231  1.00  0.00    -0.166 F 
ENDBRANCH  18  21
ENDBRANCH  13  15
ENDBRANCH   1  13
TORSDOF 6
ENDMDL
MODEL 5
REMARK VINA RESULT:      -7.4      2.619      5.515
REMARK  6 active torsions:
REMARK  status: ('A' for Active; 'I' for Inactive)
REMARK    1  A    between atoms: C2_2  and  N1_3 
REMARK    2  A    between atoms: N1_3  and  C3_4 
REMARK    3  A    between atoms: C5_6  and  N2_7 
REMARK    4  A    between atoms: N2_7  and  C6_8 
REMARK    5  A    between atoms: C6_8  and  C8_10 
REMARK    6  A    between atoms: C11_13  and  C12_14 
ROOT
HETATM    1  N2  UNL     1      24.302   2.450  50.619  1.00  0.00    -0.366 N 
HETATM    2  H6  UNL     1      23.784   1.783  49.979  1.00  0.00     0.161 HD
ENDROOT
BRANCH   1   3
HETATM    3  C5  UNL     1      24.800   3.613  49.969  1.00  0.00     0.129 A 
HETATM    4  C4  UNL     1      26.159   3.855  49.764  1.00  0.00     0.100 A 
HETATM    5  C3  UNL     1      26.629   4.974  49.116  1.00  0.00     0.132 A 
HETATM    6  N4  UNL     1      25.741   5.891  48.651  1.00  0.00    -0.224 NA
HETATM    7  C15 UNL     1      24.434   5.656  48.850  1.00  0.00     0.237 A 
HETATM    8  N3  UNL     1      23.994   4.560  49.484  1.00  0.00    -0.225 NA
BRANCH   5   9
HETATM    9  N1  UNL     1      28.029   5.185  48.928  1.00  0.00    -0.351 N 
HETATM   10  H4  UNL     1      28.696   4.526  49.386  1.00  0.00     0.166 HD
BRANCH   9  11
HETATM   11  C2  UNL     1      28.455   6.284  48.120  1.00  0.00     0.079 C 
HETATM   12  C1  UNL     1      29.707   6.549  47.764  1.00  0.00     0.029 C 
ENDBRANCH   9  11
ENDBRANCH   5   9
ENDBRANCH   1   3
BRANCH   1  13
HETATM   13  C6  UNL     1      24.448   2.143  52.002  1.00  0.00     0.112 C 
HETATM   14  C7  UNL     1      24.118   3.300  52.934  1.00  0.00     0.037 C 
BRANCH  13  15
HETATM   15  C8  UNL     1      25.699   1.509  52.416  1.00  0.00    -0.036 A 
HETATM   16  C9  UNL     1      26.789   2.063  53.012  1.00  0.00     0.010 A 
HETATM   17  C10 UNL     1      27.935   1.392  53.379  1.00  0.00     0.017 A 
HETATM   18  C11 UNL     1      28.046   0.041  53.149  1.00  0.00     0.047 A 
HETATM   19  C13 UNL     1      26.995  -0.616  52.549  1.00  0.00     0.017 A 
HETATM   20  C14 UNL     1      25.885   0.129  52.213  1.00  0.00     0.010 A 
BRANCH  18  21
HETATM   21  C12 UNL     1      29.280  -0.644  53.553  1.00  0.00     0.417 C 
HETATM   22  F1  UNL     1      29.366  -1.929  53.082  1.00  0.00    -0.166 F 
HETATM   23  F2  UNL     1      29.334  -0.700  54.941  1.00  0.00    -0.166 F 
HETATM   24  F3  UNL     1      30.405   0.100  53.169  1.00  0.00    -0.166 F 
ENDBRANCH  18  21
ENDBRANCH  13  15
ENDBRANCH   1  13
TORSDOF 6
ENDMDL
MODEL 6
REMARK VINA RESULT:      -7.3      1.805      4.654
REMARK  6 active torsions:
REMARK  status: ('A' for Active; 'I' for Inactive)
REMARK    1  A    between atoms: C2_2  and  N1_3 
REMARK    2  A    between atoms: N1_3  and  C3_4 
REMARK    3  A    between atoms: C5_6  and  N2_7 
REMARK    4  A    between atoms: N2_7  and  C6_8 
REMARK    5  A    between atoms: C6_8  and  C8_10 
REMARK    6  A    between atoms: C11_13  and  C12_14 
ROOT
HETATM    1  N2  UNL     1      23.114   1.836  52.537  1.00  0.00    -0.366 N 
HETATM    2  H6  UNL     1      22.492   2.357  53.219  1.00  0.00     0.161 HD
ENDROOT
BRANCH   1   3
HETATM    3  C5  UNL     1      23.461   2.583  51.378  1.00  0.00     0.129 A 
HETATM    4  C4  UNL     1      24.537   3.470  51.330  1.00  0.00     0.100 A 
HETATM    5  C3  UNL     1      24.877   4.173  50.196  1.00  0.00     0.132 A 
HETATM    6  N4  UNL     1      24.140   4.004  49.068  1.00  0.00    -0.224 NA
HETATM    7  C15 UNL     1      23.104   3.149  49.116  1.00  0.00     0.237 A 
HETATM    8  N3  UNL     1      22.788   2.473  50.231  1.00  0.00    -0.225 NA
BRANCH   5   9
HETATM    9  N1  UNL     1      25.986   5.073  50.190  1.00  0.00    -0.351 N 
HETATM   10  H4  UNL     1      26.318   5.458  51.102  1.00  0.00     0.166 HD
BRANCH   9  11
HETATM   11  C2  UNL     1      26.593   5.404  48.939  1.00  0.00     0.079 C 
HETATM   12  C1  UNL     1      27.821   5.072  48.558  1.00  0.00     0.029 C 
ENDBRANCH   9  11
ENDBRANCH   5   9
ENDBRANCH   1   3
BRANCH   1  13
HETATM   13  C6  UNL     1      23.527   0.503  52.823  1.00  0.00     0.112 C 
HETATM   14  C7  UNL     1      22.697  -0.189  53.894  1.00  0.00     0.037 C 
BRANCH  13  15
HETATM   15  C8  UNL     1      24.951   0.286  53.075  1.00  0.00    -0.036 A 
HETATM   16  C9  UNL     1      25.820   1.039  53.802  1.00  0.00     0.010 A 
HETATM   17  C10 UNL     1      27.155   0.761  54.000  1.00  0.00     0.017 A 
HETATM   18  C11 UNL     1      27.716  -0.362  53.438  1.00  0.00     0.047 A 
HETATM   19  C13 UNL     1      26.919  -1.192  52.681  1.00  0.00     0.017 A 
HETATM   20  C14 UNL     1      25.594  -0.842  52.533  1.00  0.00     0.010 A 
BRANCH  18  21
HETATM   21  C12 UNL     1      29.142  -0.628  53.668  1.00  0.00     0.417 C 
HETATM   22  F1  UNL     1      29.546  -1.855  53.206  1.00  0.00    -0.166 F 
HETATM   23  F2  UNL     1      29.395  -0.590  55.035  1.00  0.00    -0.166 F 
HETATM   24  F3  UNL     1      29.930   0.393  53.117  1.00  0.00    -0.166 F 
ENDBRANCH  18  21
ENDBRANCH  13  15
ENDBRANCH   1  13
TORSDOF 6
ENDMDL
MODEL 7
REMARK VINA RESULT:      -7.3      1.879      4.297
REMARK  6 active torsions:
REMARK  status: ('A' for Active; 'I' for Inactive)
REMARK    1  A    between atoms: C2_2  and  N1_3 
REMARK    2  A    between atoms: N1_3  and  C3_4 
REMARK    3  A    between atoms: C5_6  and  N2_7 
REMARK    4  A    between atoms: N2_7  and  C6_8 
REMARK    5  A    between atoms: C6_8  and  C8_10 
REMARK    6  A    between atoms: C11_13  and  C12_14 
ROOT
HETATM    1  N2  UNL     1      22.822   0.610  53.151  1.00  0.00    -0.366 N 
HETATM    2  H6  UNL     1      22.005   0.926  53.747  1.00  0.00     0.161 HD
ENDROOT
BRANCH   1   3
HETATM    3  C5  UNL     1      23.071   1.435  52.019  1.00  0.00     0.129 A 
HETATM    4  C4  UNL     1      24.012   2.466  52.013  1.00  0.00     0.100 A 
HETATM    5  C3  UNL     1      24.259   3.245  50.905  1.00  0.00     0.132 A 
HETATM    6  N4  UNL     1      23.562   3.010  49.763  1.00  0.00    -0.224 NA
HETATM    7  C15 UNL     1      22.657   2.018  49.772  1.00  0.00     0.237 A 
HETATM    8  N3  UNL     1      22.430   1.269  50.861  1.00  0.00    -0.225 NA
BRANCH   5   9
HETATM    9  N1  UNL     1      25.230   4.292  50.941  1.00  0.00    -0.351 N 
HETATM   10  H4  UNL     1      25.473   4.712  51.864  1.00  0.00     0.166 HD
BRANCH   9  11
HETATM   11  C2  UNL     1      25.827   4.715  49.713  1.00  0.00     0.079 C 
HETATM   12  C1  UNL     1      26.932   4.215  49.172  1.00  0.00     0.029 C 
ENDBRANCH   9  11
ENDBRANCH   5   9
ENDBRANCH   1   3
BRANCH   1  13
HETATM   13  C6  UNL     1      23.563  -0.551  53.513  1.00  0.00     0.112 C 
HETATM   14  C7  UNL     1      23.069  -1.235  54.779  1.00  0.00     0.037 C 
BRANCH  13  15
HETATM   15  C8  UNL     1      25.020  -0.428  53.546  1.00  0.00    -0.036 A 
HETATM   16  C9  UNL     1      25.934  -0.757  52.593  1.00  0.00     0.010 A 
HETATM   17  C10 UNL     1      27.299  -0.603  52.699  1.00  0.00     0.017 A 
HETATM   18  C11 UNL     1      27.846  -0.076  53.845  1.00  0.00     0.047 A 
HETATM   19  C13 UNL     1      27.005   0.290  54.872  1.00  0.00     0.017 A 
HETATM   20  C14 UNL     1      25.652   0.103  54.686  1.00  0.00     0.010 A 
BRANCH  18  21
HETATM   21  C12 UNL     1      29.304   0.074  53.925  1.00  0.00     0.417 C 
HETATM   22  F1  UNL     1      29.891   0.321  52.711  1.00  0.00    -0.166 F 
HETATM   23  F2  UNL     1      29.854  -1.100  54.427  1.00  0.00    -0.166 F 
HETATM   24  F3  UNL     1      29.647   1.069  54.853  1.00  0.00    -0.166 F 
ENDBRANCH  18  21
ENDBRANCH  13  15
ENDBRANCH   1  13
TORSDOF 6
ENDMDL
MODEL 8
REMARK VINA RESULT:      -7.2      4.220      6.302
REMARK  6 active torsions:
REMARK  status: ('A' for Active; 'I' for Inactive)
REMARK    1  A    between atoms: C2_2  and  N1_3 
REMARK    2  A    between atoms: N1_3  and  C3_4 
REMARK    3  A    between atoms: C5_6  and  N2_7 
REMARK    4  A    between atoms: N2_7  and  C6_8 
REMARK    5  A    between atoms: C6_8  and  C8_10 
REMARK    6  A    between atoms: C11_13  and  C12_14 
ROOT
HETATM    1  N2  UNL     1      24.718   3.797  51.689  1.00  0.00    -0.366 N 
HETATM    2  H6  UNL     1      24.828   4.518  52.458  1.00  0.00     0.161 HD
ENDROOT
BRANCH   1   3
HETATM    3  C5  UNL     1      24.746   2.450  52.145  1.00  0.00     0.129 A 
HETATM    4  C4  UNL     1      25.875   1.634  52.060  1.00  0.00     0.100 A 
HETATM    5  C3  UNL     1      25.896   0.338  52.522  1.00  0.00     0.132 A 
HETATM    6  N4  UNL     1      24.776  -0.181  53.089  1.00  0.00    -0.224 NA
HETATM    7  C15 UNL     1      23.691   0.606  53.170  1.00  0.00     0.237 A 
HETATM    8  N3  UNL     1      23.688   1.867  52.713  1.00  0.00    -0.225 NA
BRANCH   5   9
HETATM    9  N1  UNL     1      27.073  -0.465  52.415  1.00  0.00    -0.351 N 
HETATM   10  H4  UNL     1      27.145  -1.136  51.619  1.00  0.00     0.166 HD
BRANCH   9  11
HETATM   11  C2  UNL     1      28.099  -0.313  53.398  1.00  0.00     0.079 C 
HETATM   12  C1  UNL     1      29.246  -0.982  53.436  1.00  0.00     0.029 C 
ENDBRANCH   9  11
ENDBRANCH   5   9
ENDBRANCH   1   3
BRANCH   1  13
HETATM   13  C6  UNL     1      24.561   4.214  50.336  1.00  0.00     0.112 C 
HETATM   14  C7  UNL     1      23.899   3.178  49.439  1.00  0.00     0.037 C 
BRANCH  13  15
HETATM   15  C8  UNL     1      25.736   4.775  49.670  1.00  0.00    -0.036 A 
HETATM   16  C9  UNL     1      26.862   4.146  49.239  1.00  0.00     0.010 A 
HETATM   17  C10 UNL     1      27.929   4.748  48.609  1.00  0.00     0.017 A 
HETATM   18  C11 UNL     1      27.913   6.101  48.368  1.00  0.00     0.047 A 
HETATM   19  C13 UNL     1      26.815   6.831  48.766  1.00  0.00     0.017 A 
HETATM   20  C14 UNL     1      25.790   6.152  49.389  1.00  0.00     0.010 A 
BRANCH  18  21
HETATM   21  C12 UNL     1      29.067   6.711  47.694  1.00  0.00     0.417 C 
HETATM   22  F1  UNL     1      30.095   5.830  47.475  1.00  0.00    -0.166 F 
HETATM   23  F2  UNL     1      29.559   7.744  48.485  1.00  0.00    -0.166 F 
HETATM   24  F3  UNL     1      28.672   7.321  46.495  1.00  0.00    -0.166 F 
ENDBRANCH  18  21
ENDBRANCH  13  15
ENDBRANCH   1  13
TORSDOF 6
ENDMDL
MODEL 9
REMARK VINA RESULT:      -7.1      4.275      6.008
REMARK  6 active torsions:
REMARK  status: ('A' for Active; 'I' for Inactive)
REMARK    1  A    between atoms: C2_2  and  N1_3 
REMARK    2  A    between atoms: N1_3  and  C3_4 
REMARK    3  A    between atoms: C5_6  and  N2_7 
REMARK    4  A    between atoms: N2_7  and  C6_8 
REMARK    5  A    between atoms: C6_8  and  C8_10 
REMARK    6  A    between atoms: C11_13  and  C12_14 
ROOT
HETATM    1  N2  UNL     1      24.874   3.753  51.653  1.00  0.00    -0.366 N 
HETATM    2  H6  UNL     1      24.822   4.430  52.466  1.00  0.00     0.161 HD
ENDROOT
BRANCH   1   3
HETATM    3  C5  UNL     1      25.213   2.422  52.023  1.00  0.00     0.129 A 
HETATM    4  C4  UNL     1      24.381   1.603  52.788  1.00  0.00     0.100 A 
HETATM    5  C3  UNL     1      24.710   0.309  53.124  1.00  0.00     0.132 A 
HETATM    6  N4  UNL     1      25.894  -0.204  52.698  1.00  0.00    -0.224 NA
HETATM    7  C15 UNL     1      26.693   0.586  51.962  1.00  0.00     0.237 A 
HETATM    8  N3  UNL     1      26.356   1.845  51.645  1.00  0.00    -0.225 NA
BRANCH   5   9
HETATM    9  N1  UNL     1      23.830  -0.496  53.910  1.00  0.00    -0.351 N 
HETATM   10  H4  UNL     1      24.206  -0.944  54.774  1.00  0.00     0.166 HD
BRANCH   9  11
HETATM   11  C2  UNL     1      22.476  -0.651  53.481  1.00  0.00     0.079 C 
HETATM   12  C1  UNL     1      21.530  -1.331  54.119  1.00  0.00     0.029 C 
ENDBRANCH   9  11
ENDBRANCH   5   9
ENDBRANCH   1   3
BRANCH   1  13
HETATM   13  C6  UNL     1      24.616   4.207  50.328  1.00  0.00     0.112 C 
HETATM   14  C7  UNL     1      24.040   3.141  49.407  1.00  0.00     0.037 C 
BRANCH  13  15
HETATM   15  C8  UNL     1      25.691   4.928  49.649  1.00  0.00    -0.036 A 
HETATM   16  C9  UNL     1      25.779   6.250  49.340  1.00  0.00     0.010 A 
HETATM   17  C10 UNL     1      26.837   6.859  48.700  1.00  0.00     0.017 A 
HETATM   18  C11 UNL     1      27.929   6.118  48.316  1.00  0.00     0.047 A 
HETATM   19  C13 UNL     1      27.938   4.767  48.583  1.00  0.00     0.017 A 
HETATM   20  C14 UNL     1      26.841   4.236  49.227  1.00  0.00     0.010 A 
BRANCH  18  21
HETATM   21  C12 UNL     1      29.039   6.798  47.637  1.00  0.00     0.417 C 
HETATM   22  F1  UNL     1      30.128   5.990  47.436  1.00  0.00    -0.166 F 
HETATM   23  F2  UNL     1      29.452   7.876  48.412  1.00  0.00    -0.166 F 
HETATM   24  F3  UNL     1      28.607   7.358  46.426  1.00  0.00    -0.166 F 
ENDBRANCH  18  21
ENDBRANCH  13  15
ENDBRANCH   1  13
TORSDOF 6
ENDMDL
