MODEL 1
REMARK VINA RESULT:      -8.8      0.000      0.000
REMARK  4 active torsions:
REMARK  status: ('A' for Active; 'I' for Inactive)
REMARK    1  A    between atoms: C12_12  and  C13_13 
REMARK    2  A    between atoms: C13_13  and  C14_14 
REMARK    3  A    between atoms: C14_14  and  C15_15 
REMARK    4  A    between atoms: C15_15  and  O2_17 
ROOT
HETATM    1  C1  UNL     1      26.573   0.157  51.212  1.00  0.00     0.012 C 
HETATM    2  C2  UNL     1      27.133   0.325  52.651  1.00  0.00    -0.035 C 
HETATM    3  C3  UNL     1      27.942   0.333  53.641  1.00  0.00     0.064 A 
HETATM    4  C4  UNL     1      28.046   0.663  55.107  1.00  0.00     0.089 A 
HETATM    5  C5  UNL     1      28.981   0.099  54.430  1.00  0.00     0.110 A 
HETATM    6  C6  UNL     1      30.093  -0.541  53.747  1.00  0.00     0.035 C 
HETATM    7  C7  UNL     1      29.540  -1.851  53.127  1.00  0.00    -0.026 C 
HETATM    8  C8  UNL     1      28.436  -2.559  52.723  1.00  0.00    -0.004 C 
HETATM    9  C9  UNL     1      26.956  -2.465  52.592  1.00  0.00    -0.004 C 
HETATM   10  C10 UNL     1      25.820  -1.723  52.677  1.00  0.00    -0.017 C 
HETATM   11  C11 UNL     1      25.753  -0.277  53.013  1.00  0.00     0.044 C 
HETATM   12  C12 UNL     1      24.640   0.549  52.955  1.00  0.00    -0.047 C 
HETATM   13  C16 UNL     1      25.069   1.833  53.012  1.00  0.00     0.034 C 
HETATM   14  C17 UNL     1      24.100   2.944  52.957  1.00  0.00     0.070 C 
HETATM   15  N1  UNL     1      26.384   2.404  53.238  1.00  0.00    -0.239 N 
HETATM   16  O3  UNL     1      26.352   2.308  54.598  1.00  0.00    -0.112 OA
HETATM   17  O4  UNL     1      26.793   1.202  55.134  1.00  0.00    -0.210 OA
HETATM   18  H21 UNL     1      26.895   2.699  52.382  1.00  0.00     0.197 HD
ENDROOT
BRANCH  12  19
HETATM   19  C13 UNL     1      23.194   0.408  52.860  1.00  0.00     0.047 C 
BRANCH  19  20
HETATM   20  C14 UNL     1      22.675  -0.954  53.248  1.00  0.00     0.114 C 
BRANCH  20  21
HETATM   21  C15 UNL     1      22.244  -0.962  54.698  1.00  0.00     0.139 C 
HETATM   22  O1  UNL     1      22.802  -1.554  55.655  1.00  0.00    -0.650 OA
BRANCH  21  23
HETATM   23  O2  UNL     1      21.107  -0.223  54.952  1.00  0.00    -0.776 OA
HETATM   24  H17 UNL     1      20.903   0.556  54.328  1.00  0.00     0.167 HD
ENDBRANCH  21  23
ENDBRANCH  20  21
ENDBRANCH  19  20
ENDBRANCH  12  19
TORSDOF 4
ENDMDL
MODEL 2
REMARK VINA RESULT:      -8.6      2.556      4.876
REMARK  4 active torsions:
REMARK  status: ('A' for Active; 'I' for Inactive)
REMARK    1  A    between atoms: C12_12  and  C13_13 
REMARK    2  A    between atoms: C13_13  and  C14_14 
REMARK    3  A    between atoms: C14_14  and  C15_15 
REMARK    4  A    between atoms: C15_15  and  O2_17 
ROOT
HETATM    1  C1  UNL     1      23.482   3.346  52.656  1.00  0.00     0.012 C 
HETATM    2  C2  UNL     1      24.661   3.206  51.654  1.00  0.00    -0.035 C 
HETATM    3  C3  UNL     1      25.483   3.463  50.708  1.00  0.00     0.064 A 
HETATM    4  C4  UNL     1      26.701   2.936  49.996  1.00  0.00     0.089 A 
HETATM    5  C5  UNL     1      26.044   3.976  49.623  1.00  0.00     0.110 A 
HETATM    6  C6  UNL     1      25.366   5.160  49.126  1.00  0.00     0.035 C 
HETATM    7  C7  UNL     1      23.892   4.754  48.867  1.00  0.00    -0.026 C 
HETATM    8  C8  UNL     1      22.880   3.860  49.120  1.00  0.00    -0.004 C 
HETATM    9  C9  UNL     1      22.553   2.640  49.906  1.00  0.00    -0.004 C 
HETATM   10  C10 UNL     1      22.911   1.723  50.844  1.00  0.00    -0.017 C 
HETATM   11  C11 UNL     1      24.169   1.737  51.634  1.00  0.00     0.044 C 
HETATM   12  C12 UNL     1      24.500   0.919  52.704  1.00  0.00    -0.047 C 
HETATM   13  C16 UNL     1      25.562   1.470  53.339  1.00  0.00     0.034 C 
HETATM   14  C17 UNL     1      26.132   0.821  54.535  1.00  0.00     0.070 C 
HETATM   15  N1  UNL     1      26.401   2.608  53.011  1.00  0.00    -0.239 N 
HETATM   16  O3  UNL     1      27.211   1.943  52.139  1.00  0.00    -0.112 OA
HETATM   17  O4  UNL     1      26.848   1.911  50.885  1.00  0.00    -0.210 OA
HETATM   18  H21 UNL     1      26.165   3.493  53.504  1.00  0.00     0.197 HD
ENDROOT
BRANCH  12  19
HETATM   19  C13 UNL     1      24.032  -0.326  53.296  1.00  0.00     0.047 C 
BRANCH  19  20
HETATM   20  C14 UNL     1      22.569  -0.331  53.662  1.00  0.00     0.114 C 
BRANCH  20  21
HETATM   21  C15 UNL     1      22.330  -1.207  54.871  1.00  0.00     0.139 C 
HETATM   22  O1  UNL     1      23.155  -1.505  55.771  1.00  0.00    -0.650 OA
BRANCH  21  23
HETATM   23  O2  UNL     1      21.050  -1.714  54.956  1.00  0.00    -0.776 OA
HETATM   24  H17 UNL     1      20.933  -2.719  54.832  1.00  0.00     0.167 HD
ENDBRANCH  21  23
ENDBRANCH  20  21
ENDBRANCH  19  20
ENDBRANCH  12  19
TORSDOF 4
ENDMDL
MODEL 3
REMARK VINA RESULT:      -8.0      3.226      5.875
REMARK  4 active torsions:
REMARK  status: ('A' for Active; 'I' for Inactive)
REMARK    1  A    between atoms: C12_12  and  C13_13 
REMARK    2  A    between atoms: C13_13  and  C14_14 
REMARK    3  A    between atoms: C14_14  and  C15_15 
REMARK    4  A    between atoms: C15_15  and  O2_17 
ROOT
HETATM    1  C1  UNL     1      24.635   2.798  53.349  1.00  0.00     0.012 C 
HETATM    2  C2  UNL     1      23.605   1.693  52.984  1.00  0.00    -0.035 C 
HETATM    3  C3  UNL     1      22.824   0.686  53.086  1.00  0.00     0.064 A 
HETATM    4  C4  UNL     1      21.823  -0.143  52.323  1.00  0.00     0.089 A 
HETATM    5  C5  UNL     1      22.246  -0.432  53.502  1.00  0.00     0.110 A 
HETATM    6  C6  UNL     1      22.665  -0.839  54.832  1.00  0.00     0.035 C 
HETATM    7  C7  UNL     1      24.209  -0.978  54.789  1.00  0.00    -0.026 C 
HETATM    8  C8  UNL     1      25.379  -0.659  54.143  1.00  0.00    -0.004 C 
HETATM    9  C9  UNL     1      25.919   0.123  52.998  1.00  0.00    -0.004 C 
HETATM   10  C10 UNL     1      25.712   1.003  51.982  1.00  0.00    -0.017 C 
HETATM   11  C11 UNL     1      24.427   1.681  51.671  1.00  0.00     0.044 C 
HETATM   12  C12 UNL     1      24.214   2.698  50.752  1.00  0.00    -0.047 C 
HETATM   13  C16 UNL     1      23.004   3.251  51.015  1.00  0.00     0.034 C 
HETATM   14  C17 UNL     1      22.509   4.376  50.200  1.00  0.00     0.070 C 
HETATM   15  N1  UNL     1      21.951   2.879  51.941  1.00  0.00    -0.239 N 
HETATM   16  O3  UNL     1      21.391   1.923  51.147  1.00  0.00    -0.112 OA
HETATM   17  O4  UNL     1      21.850   0.705  51.254  1.00  0.00    -0.210 OA
HETATM   18  H21 UNL     1      21.935   3.411  52.834  1.00  0.00     0.197 HD
ENDROOT
BRANCH  12  19
HETATM   19  C13 UNL     1      24.911   3.298  49.625  1.00  0.00     0.047 C 
BRANCH  19  20
HETATM   20  C14 UNL     1      26.415   3.216  49.707  1.00  0.00     0.114 C 
BRANCH  20  21
HETATM   21  C15 UNL     1      27.037   4.542  49.332  1.00  0.00     0.139 C 
HETATM   22  O1  UNL     1      28.027   4.735  48.582  1.00  0.00    -0.650 OA
BRANCH  21  23
HETATM   23  O2  UNL     1      26.417   5.637  49.900  1.00  0.00    -0.776 OA
HETATM   24  H17 UNL     1      25.408   5.717  49.787  1.00  0.00     0.167 HD
ENDBRANCH  21  23
ENDBRANCH  20  21
ENDBRANCH  19  20
ENDBRANCH  12  19
TORSDOF 4
ENDMDL
MODEL 4
REMARK VINA RESULT:      -8.0      2.449      6.644
REMARK  4 active torsions:
REMARK  status: ('A' for Active; 'I' for Inactive)
REMARK    1  A    between atoms: C12_12  and  C13_13 
REMARK    2  A    between atoms: C13_13  and  C14_14 
REMARK    3  A    between atoms: C14_14  and  C15_15 
REMARK    4  A    between atoms: C15_15  and  O2_17 
ROOT
HETATM    1  C1  UNL     1      23.856   1.945  50.990  1.00  0.00     0.012 C 
HETATM    2  C2  UNL     1      22.737   1.569  52.000  1.00  0.00    -0.035 C 
HETATM    3  C3  UNL     1      21.579   1.403  52.516  1.00  0.00     0.064 A 
HETATM    4  C4  UNL     1      20.870   0.878  53.737  1.00  0.00     0.089 A 
HETATM    5  C5  UNL     1      20.283   1.497  52.776  1.00  0.00     0.110 A 
HETATM    6  C6  UNL     1      19.534   2.185  51.739  1.00  0.00     0.035 C 
HETATM    7  C7  UNL     1      20.184   3.583  51.574  1.00  0.00    -0.026 C 
HETATM    8  C8  UNL     1      21.287   4.374  51.784  1.00  0.00    -0.004 C 
HETATM    9  C9  UNL     1      22.675   4.346  52.319  1.00  0.00    -0.004 C 
HETATM   10  C10 UNL     1      23.718   3.636  52.826  1.00  0.00    -0.017 C 
HETATM   11  C11 UNL     1      23.758   2.162  53.003  1.00  0.00     0.044 C 
HETATM   12  C12 UNL     1      24.851   1.387  53.363  1.00  0.00    -0.047 C 
HETATM   13  C16 UNL     1      24.556   0.094  53.086  1.00  0.00     0.034 C 
HETATM   14  C17 UNL     1      25.544  -0.968  53.355  1.00  0.00     0.070 C 
HETATM   15  N1  UNL     1      23.332  -0.545  52.639  1.00  0.00    -0.239 N 
HETATM   16  O3  UNL     1      22.754  -0.629  53.871  1.00  0.00    -0.112 OA
HETATM   17  O4  UNL     1      22.026   0.380  54.265  1.00  0.00    -0.210 OA
HETATM   18  H21 UNL     1      23.278  -0.739  51.618  1.00  0.00     0.197 HD
ENDROOT
BRANCH  12  19
HETATM   19  C13 UNL     1      26.172   1.587  53.941  1.00  0.00     0.047 C 
BRANCH  19  20
HETATM   20  C14 UNL     1      27.198   2.129  52.977  1.00  0.00     0.114 C 
BRANCH  20  21
HETATM   21  C15 UNL     1      28.537   2.283  53.664  1.00  0.00     0.139 C 
HETATM   22  O1  UNL     1      28.909   1.747  54.738  1.00  0.00    -0.650 OA
BRANCH  21  23
HETATM   23  O2  UNL     1      29.417   3.115  53.004  1.00  0.00    -0.776 OA
HETATM   24  H17 UNL     1      30.329   3.269  53.431  1.00  0.00     0.167 HD
ENDBRANCH  21  23
ENDBRANCH  20  21
ENDBRANCH  19  20
ENDBRANCH  12  19
TORSDOF 4
ENDMDL
MODEL 5
REMARK VINA RESULT:      -7.8      3.081      6.321
REMARK  4 active torsions:
REMARK  status: ('A' for Active; 'I' for Inactive)
REMARK    1  A    between atoms: C12_12  and  C13_13 
REMARK    2  A    between atoms: C13_13  and  C14_14 
REMARK    3  A    between atoms: C14_14  and  C15_15 
REMARK    4  A    between atoms: C15_15  and  O2_17 
ROOT
HETATM    1  C1  UNL     1      23.321   2.849  53.028  1.00  0.00     0.012 C 
HETATM    2  C2  UNL     1      22.616   2.152  51.831  1.00  0.00    -0.035 C 
HETATM    3  C3  UNL     1      21.729   1.552  51.131  1.00  0.00     0.064 A 
HETATM    4  C4  UNL     1      21.448   1.010  49.755  1.00  0.00     0.089 A 
HETATM    5  C5  UNL     1      20.671   0.844  50.765  1.00  0.00     0.110 A 
HETATM    6  C6  UNL     1      19.732   0.606  51.848  1.00  0.00     0.035 C 
HETATM    7  C7  UNL     1      20.526  -0.099  52.978  1.00  0.00    -0.026 C 
HETATM    8  C8  UNL     1      21.755  -0.382  53.521  1.00  0.00    -0.004 C 
HETATM    9  C9  UNL     1      23.209  -0.120  53.349  1.00  0.00    -0.004 C 
HETATM   10  C10 UNL     1      24.211   0.536  52.703  1.00  0.00    -0.017 C 
HETATM   11  C11 UNL     1      24.033   1.557  51.638  1.00  0.00     0.044 C 
HETATM   12  C12 UNL     1      25.011   2.359  51.070  1.00  0.00    -0.047 C 
HETATM   13  C16 UNL     1      24.392   3.362  50.401  1.00  0.00     0.034 C 
HETATM   14  C17 UNL     1      25.187   4.388  49.700  1.00  0.00     0.070 C 
HETATM   15  N1  UNL     1      22.993   3.613  50.112  1.00  0.00    -0.239 N 
HETATM   16  O3  UNL     1      22.917   2.786  49.031  1.00  0.00    -0.112 OA
HETATM   17  O4  UNL     1      22.599   1.538  49.248  1.00  0.00    -0.210 OA
HETATM   18  H21 UNL     1      22.522   4.291  50.745  1.00  0.00     0.197 HD
ENDROOT
BRANCH  12  19
HETATM   19  C13 UNL     1      26.464   2.403  50.999  1.00  0.00     0.047 C 
BRANCH  19  20
HETATM   20  C14 UNL     1      27.163   1.472  51.959  1.00  0.00     0.114 C 
BRANCH  20  21
HETATM   21  C15 UNL     1      27.735   2.249  53.124  1.00  0.00     0.139 C 
HETATM   22  O1  UNL     1      27.295   2.291  54.301  1.00  0.00    -0.650 OA
BRANCH  21  23
HETATM   23  O2  UNL     1      28.865   2.978  52.816  1.00  0.00    -0.776 OA
HETATM   24  H17 UNL     1      28.750   3.977  52.655  1.00  0.00     0.167 HD
ENDBRANCH  21  23
ENDBRANCH  20  21
ENDBRANCH  19  20
ENDBRANCH  12  19
TORSDOF 4
ENDMDL
MODEL 6
REMARK VINA RESULT:      -7.5      3.584      6.278
REMARK  4 active torsions:
REMARK  status: ('A' for Active; 'I' for Inactive)
REMARK    1  A    between atoms: C12_12  and  C13_13 
REMARK    2  A    between atoms: C13_13  and  C14_14 
REMARK    3  A    between atoms: C14_14  and  C15_15 
REMARK    4  A    between atoms: C15_15  and  O2_17 
ROOT
HETATM    1  C1  UNL     1      24.211   2.902  49.054  1.00  0.00     0.012 C 
HETATM    2  C2  UNL     1      24.136   4.134  49.997  1.00  0.00    -0.035 C 
HETATM    3  C3  UNL     1      24.078   5.346  50.403  1.00  0.00     0.064 A 
HETATM    4  C4  UNL     1      23.970   6.195  51.643  1.00  0.00     0.089 A 
HETATM    5  C5  UNL     1      24.161   6.667  50.462  1.00  0.00     0.110 A 
HETATM    6  C6  UNL     1      24.379   7.291  49.168  1.00  0.00     0.035 C 
HETATM    7  C7  UNL     1      25.671   6.664  48.583  1.00  0.00    -0.026 C 
HETATM    8  C8  UNL     1      26.565   5.622  48.617  1.00  0.00    -0.004 C 
HETATM    9  C9  UNL     1      26.832   4.317  49.280  1.00  0.00    -0.004 C 
HETATM   10  C10 UNL     1      26.428   3.331  50.125  1.00  0.00    -0.017 C 
HETATM   11  C11 UNL     1      25.120   3.273  50.827  1.00  0.00     0.044 C 
HETATM   12  C12 UNL     1      24.608   2.216  51.565  1.00  0.00    -0.047 C 
HETATM   13  C16 UNL     1      23.282   2.435  51.743  1.00  0.00     0.034 C 
HETATM   14  C17 UNL     1      22.462   1.461  52.489  1.00  0.00     0.070 C 
HETATM   15  N1  UNL     1      22.437   3.570  51.421  1.00  0.00    -0.239 N 
HETATM   16  O3  UNL     1      22.753   4.304  52.526  1.00  0.00    -0.112 OA
HETATM   17  O4  UNL     1      23.780   5.106  52.442  1.00  0.00    -0.210 OA
HETATM   18  H21 UNL     1      21.890   3.482  50.541  1.00  0.00     0.197 HD
ENDROOT
BRANCH  12  19
HETATM   19  C13 UNL     1      25.097   0.990  52.178  1.00  0.00     0.047 C 
BRANCH  19  20
HETATM   20  C14 UNL     1      26.572   0.995  52.490  1.00  0.00     0.114 C 
BRANCH  20  21
HETATM   21  C15 UNL     1      26.812   1.494  53.897  1.00  0.00     0.139 C 
HETATM   22  O1  UNL     1      26.543   0.900  54.972  1.00  0.00    -0.650 OA
BRANCH  21  23
HETATM   23  O2  UNL     1      27.393   2.744  53.961  1.00  0.00    -0.776 OA
HETATM   24  H17 UNL     1      26.797   3.549  53.773  1.00  0.00     0.167 HD
ENDBRANCH  21  23
ENDBRANCH  20  21
ENDBRANCH  19  20
ENDBRANCH  12  19
TORSDOF 4
ENDMDL
MODEL 7
REMARK VINA RESULT:      -7.4      3.256      7.123
REMARK  4 active torsions:
REMARK  status: ('A' for Active; 'I' for Inactive)
REMARK    1  A    between atoms: C12_12  and  C13_13 
REMARK    2  A    between atoms: C13_13  and  C14_14 
REMARK    3  A    between atoms: C14_14  and  C15_15 
REMARK    4  A    between atoms: C15_15  and  O2_17 
ROOT
HETATM    1  C1  UNL     1      21.854   0.986  50.647  1.00  0.00     0.012 C 
HETATM    2  C2  UNL     1      21.254   0.456  51.978  1.00  0.00    -0.035 C 
HETATM    3  C3  UNL     1      20.463  -0.110  52.809  1.00  0.00     0.064 A 
HETATM    4  C4  UNL     1      20.295  -0.457  54.265  1.00  0.00     0.089 A 
HETATM    5  C5  UNL     1      19.388  -0.642  53.373  1.00  0.00     0.110 A 
HETATM    6  C6  UNL     1      18.306  -0.888  52.436  1.00  0.00     0.035 C 
HETATM    7  C7  UNL     1      17.982   0.472  51.764  1.00  0.00    -0.026 C 
HETATM    8  C8  UNL     1      18.408   1.744  51.470  1.00  0.00    -0.004 C 
HETATM    9  C9  UNL     1      19.573   2.659  51.607  1.00  0.00    -0.004 C 
HETATM   10  C10 UNL     1      20.867   2.858  51.977  1.00  0.00    -0.017 C 
HETATM   11  C11 UNL     1      21.790   1.815  52.495  1.00  0.00     0.044 C 
HETATM   12  C12 UNL     1      23.151   1.938  52.731  1.00  0.00    -0.047 C 
HETATM   13  C16 UNL     1      23.665   0.692  52.871  1.00  0.00     0.034 C 
HETATM   14  C17 UNL     1      25.107   0.508  53.121  1.00  0.00     0.070 C 
HETATM   15  N1  UNL     1      23.034  -0.613  52.937  1.00  0.00    -0.239 N 
HETATM   16  O3  UNL     1      22.709  -0.550  54.260  1.00  0.00    -0.112 OA
HETATM   17  O4  UNL     1      21.553  -0.029  54.572  1.00  0.00    -0.210 OA
HETATM   18  H21 UNL     1      23.035  -1.153  52.049  1.00  0.00     0.197 HD
ENDROOT
BRANCH  12  19
HETATM   19  C13 UNL     1      24.130   3.007  52.869  1.00  0.00     0.047 C 
BRANCH  19  20
HETATM   20  C14 UNL     1      24.364   3.804  51.610  1.00  0.00     0.114 C 
BRANCH  20  21
HETATM   21  C15 UNL     1      23.695   5.157  51.711  1.00  0.00     0.139 C 
HETATM   22  O1  UNL     1      22.895   5.675  50.892  1.00  0.00    -0.650 OA
BRANCH  21  23
HETATM   23  O2  UNL     1      24.030   5.868  52.845  1.00  0.00    -0.776 OA
HETATM   24  H17 UNL     1      23.617   5.568  53.727  1.00  0.00     0.167 HD
ENDBRANCH  21  23
ENDBRANCH  20  21
ENDBRANCH  19  20
ENDBRANCH  12  19
TORSDOF 4
ENDMDL
MODEL 8
REMARK VINA RESULT:      -7.4      3.757      6.432
REMARK  4 active torsions:
REMARK  status: ('A' for Active; 'I' for Inactive)
REMARK    1  A    between atoms: C12_12  and  C13_13 
REMARK    2  A    between atoms: C13_13  and  C14_14 
REMARK    3  A    between atoms: C14_14  and  C15_15 
REMARK    4  A    between atoms: C15_15  and  O2_17 
ROOT
HETATM    1  C1  UNL     1      23.451   2.783  49.634  1.00  0.00     0.012 C 
HETATM    2  C2  UNL     1      24.263   2.337  50.881  1.00  0.00    -0.035 C 
HETATM    3  C3  UNL     1      24.646   1.664  51.899  1.00  0.00     0.064 A 
HETATM    4  C4  UNL     1      25.700   1.601  52.973  1.00  0.00     0.089 A 
HETATM    5  C5  UNL     1      24.672   0.831  52.929  1.00  0.00     0.110 A 
HETATM    6  C6  UNL     1      23.544  -0.084  52.962  1.00  0.00     0.035 C 
HETATM    7  C7  UNL     1      22.263   0.791  52.969  1.00  0.00    -0.026 C 
HETATM    8  C8  UNL     1      21.703   2.019  52.714  1.00  0.00    -0.004 C 
HETATM    9  C9  UNL     1      22.020   3.374  52.189  1.00  0.00    -0.004 C 
HETATM   10  C10 UNL     1      22.906   4.223  51.602  1.00  0.00    -0.017 C 
HETATM   11  C11 UNL     1      24.272   3.864  51.138  1.00  0.00     0.044 C 
HETATM   12  C12 UNL     1      25.141   4.651  50.397  1.00  0.00    -0.047 C 
HETATM   13  C16 UNL     1      26.116   3.847  49.906  1.00  0.00     0.034 C 
HETATM   14  C17 UNL     1      27.186   4.410  49.061  1.00  0.00     0.070 C 
HETATM   15  N1  UNL     1      26.422   2.448  50.135  1.00  0.00    -0.239 N 
HETATM   16  O3  UNL     1      27.103   2.637  51.301  1.00  0.00    -0.112 OA
HETATM   17  O4  UNL     1      26.415   2.618  52.410  1.00  0.00    -0.210 OA
HETATM   18  H21 UNL     1      26.078   1.791  49.406  1.00  0.00     0.197 HD
ENDROOT
BRANCH  12  19
HETATM   19  C13 UNL     1      25.282   6.052  50.028  1.00  0.00     0.047 C 
BRANCH  19  20
HETATM   20  C14 UNL     1      24.075   6.639  49.340  1.00  0.00     0.114 C 
BRANCH  20  21
HETATM   21  C15 UNL     1      23.446   7.711  50.201  1.00  0.00     0.139 C 
HETATM   22  O1  UNL     1      22.516   8.496  49.884  1.00  0.00    -0.650 OA
BRANCH  21  23
HETATM   23  O2  UNL     1      23.984   7.804  51.469  1.00  0.00    -0.776 OA
HETATM   24  H17 UNL     1      24.999   7.783  51.551  1.00  0.00     0.167 HD
ENDBRANCH  21  23
ENDBRANCH  20  21
ENDBRANCH  19  20
ENDBRANCH  12  19
TORSDOF 4
ENDMDL
MODEL 9
REMARK VINA RESULT:      -7.4      2.935      4.589
REMARK  4 active torsions:
REMARK  status: ('A' for Active; 'I' for Inactive)
REMARK    1  A    between atoms: C12_12  and  C13_13 
REMARK    2  A    between atoms: C13_13  and  C14_14 
REMARK    3  A    between atoms: C14_14  and  C15_15 
REMARK    4  A    between atoms: C15_15  and  O2_17 
ROOT
HETATM    1  C1  UNL     1      24.203   3.162  52.912  1.00  0.00     0.012 C 
HETATM    2  C2  UNL     1      24.554   1.669  53.160  1.00  0.00    -0.035 C 
HETATM    3  C3  UNL     1      25.121   0.619  53.621  1.00  0.00     0.064 A 
HETATM    4  C4  UNL     1      25.086  -0.886  53.574  1.00  0.00     0.089 A 
HETATM    5  C5  UNL     1      25.991  -0.206  54.183  1.00  0.00     0.110 A 
HETATM    6  C6  UNL     1      27.056   0.475  54.899  1.00  0.00     0.035 C 
HETATM    7  C7  UNL     1      27.744   1.420  53.878  1.00  0.00    -0.026 C 
HETATM    8  C8  UNL     1      27.655   2.084  52.680  1.00  0.00    -0.004 C 
HETATM    9  C9  UNL     1      26.731   2.350  51.544  1.00  0.00    -0.004 C 
HETATM   10  C10 UNL     1      25.496   2.228  50.988  1.00  0.00    -0.017 C 
HETATM   11  C11 UNL     1      24.315   1.596  51.631  1.00  0.00     0.044 C 
HETATM   12  C12 UNL     1      23.007   1.593  51.169  1.00  0.00    -0.047 C 
HETATM   13  C16 UNL     1      22.204   1.214  52.192  1.00  0.00     0.034 C 
HETATM   14  C17 UNL     1      20.744   1.131  51.999  1.00  0.00     0.070 C 
HETATM   15  N1  UNL     1      22.501   0.729  53.527  1.00  0.00    -0.239 N 
HETATM   16  O3  UNL     1      22.727  -0.565  53.165  1.00  0.00    -0.112 OA
HETATM   17  O4  UNL     1      23.944  -0.893  52.827  1.00  0.00    -0.210 OA
HETATM   18  H21 UNL     1      22.444   1.442  54.283  1.00  0.00     0.197 HD
ENDROOT
BRANCH  12  19
HETATM   19  C13 UNL     1      22.300   1.871  49.927  1.00  0.00     0.047 C 
BRANCH  19  20
HETATM   20  C14 UNL     1      22.696   3.165  49.261  1.00  0.00     0.114 C 
BRANCH  20  21
HETATM   21  C15 UNL     1      22.207   4.346  50.069  1.00  0.00     0.139 C 
HETATM   22  O1  UNL     1      21.065   4.505  50.571  1.00  0.00    -0.650 OA
BRANCH  21  23
HETATM   23  O2  UNL     1      23.151   5.335  50.250  1.00  0.00    -0.776 OA
HETATM   24  H17 UNL     1      23.048   6.189  49.703  1.00  0.00     0.167 HD
ENDBRANCH  21  23
ENDBRANCH  20  21
ENDBRANCH  19  20
ENDBRANCH  12  19
TORSDOF 4
ENDMDL
