MODEL 1
REMARK VINA RESULT:      -6.6      0.000      0.000
REMARK  6 active torsions:
REMARK  status: ('A' for Active; 'I' for Inactive)
REMARK    1  A    between atoms: O1_2  and  C2_3 
REMARK    2  A    between atoms: C6_9  and  N3_10 
REMARK    3  A    between atoms: N3_10  and  C7_11 
REMARK    4  A    between atoms: C8_12  and  C9_13 
REMARK    5  A    between atoms: C10_14  and  C11_15 
REMARK    6  A    between atoms: C14_19  and  O2_20 
ROOT
HETATM    1  C2  UNL     1      25.632   2.864  51.199  1.00  0.00     0.103 A 
HETATM    2  C3  UNL     1      26.743   2.051  51.451  1.00  0.00     0.072 A 
HETATM    3  C4  UNL     1      26.613   0.961  52.277  1.00  0.00     0.075 A 
HETATM    4  N1  UNL     1      27.560   0.095  52.630  1.00  0.00    -0.241 NA
HETATM    5  C5  UNL     1      27.420  -0.957  53.444  1.00  0.00     0.236 A 
HETATM    6  N2  UNL     1      26.192  -1.174  53.967  1.00  0.00    -0.224 NA
HETATM    7  C6  UNL     1      25.159  -0.333  53.656  1.00  0.00     0.141 A 
HETATM    8  C12 UNL     1      25.376   0.732  52.812  1.00  0.00     0.042 A 
HETATM    9  C13 UNL     1      24.249   1.494  52.600  1.00  0.00     0.057 A 
HETATM   10  C14 UNL     1      24.397   2.595  51.763  1.00  0.00     0.102 A 
ENDROOT
BRANCH   7  11
HETATM   11  N3  UNL     1      24.024  -0.800  54.320  1.00  0.00    -0.350 N 
HETATM   12  H6  UNL     1      24.305  -0.554  55.270  1.00  0.00     0.166 HD
BRANCH  11  13
HETATM   13  C7  UNL     1      22.973  -1.230  55.135  1.00  0.00     0.090 C 
HETATM   14  C8  UNL     1      21.761  -0.895  54.818  1.00  0.00     0.017 C 
BRANCH  14  15
HETATM   15  C9  UNL     1      21.090  -0.114  53.743  1.00  0.00    -0.002 C 
HETATM   16  C10 UNL     1      20.689   1.095  53.390  1.00  0.00    -0.016 C 
BRANCH  16  17
HETATM   17  C11 UNL     1      20.015   1.363  52.113  1.00  0.00     0.112 C 
HETATM   18 BR1  UNL     1      21.090   0.665  50.631  1.00  0.00    -0.092 Br
ENDBRANCH  16  17
ENDBRANCH  14  15
ENDBRANCH  11  13
ENDBRANCH   7  11
BRANCH  10  19
HETATM   19  O2  UNL     1      23.339   3.437  51.478  1.00  0.00    -0.353 OA
HETATM   20  C15 UNL     1      22.894   4.462  52.312  1.00  0.00     0.210 C 
ENDBRANCH  10  19
BRANCH   1  21
HETATM   21  O1  UNL     1      25.738   3.967  50.370  1.00  0.00    -0.353 OA
HETATM   22  C1  UNL     1      26.725   4.081  49.368  1.00  0.00     0.210 C 
ENDBRANCH   1  21
TORSDOF 6
ENDMDL
MODEL 2
REMARK VINA RESULT:      -6.5      2.869      5.446
REMARK  6 active torsions:
REMARK  status: ('A' for Active; 'I' for Inactive)
REMARK    1  A    between atoms: O1_2  and  C2_3 
REMARK    2  A    between atoms: C6_9  and  N3_10 
REMARK    3  A    between atoms: N3_10  and  C7_11 
REMARK    4  A    between atoms: C8_12  and  C9_13 
REMARK    5  A    between atoms: C10_14  and  C11_15 
REMARK    6  A    between atoms: C14_19  and  O2_20 
ROOT
HETATM    1  C2  UNL     1      26.514   0.270  54.073  1.00  0.00     0.103 A 
HETATM    2  C3  UNL     1      25.409  -0.534  53.770  1.00  0.00     0.072 A 
HETATM    3  C4  UNL     1      24.256   0.047  53.298  1.00  0.00     0.075 A 
HETATM    4  N1  UNL     1      23.118  -0.561  52.972  1.00  0.00    -0.241 NA
HETATM    5  C5  UNL     1      22.000   0.019  52.523  1.00  0.00     0.236 A 
HETATM    6  N2  UNL     1      22.017   1.365  52.380  1.00  0.00    -0.224 NA
HETATM    7  C6  UNL     1      23.147   2.070  52.691  1.00  0.00     0.141 A 
HETATM    8  C12 UNL     1      24.262   1.406  53.150  1.00  0.00     0.042 A 
HETATM    9  C13 UNL     1      25.316   2.246  53.431  1.00  0.00     0.057 A 
HETATM   10  C14 UNL     1      26.475   1.644  53.909  1.00  0.00     0.102 A 
ENDROOT
BRANCH   7  11
HETATM   11  N3  UNL     1      22.884   3.416  52.438  1.00  0.00    -0.350 N 
HETATM   12  H6  UNL     1      23.020   3.768  53.387  1.00  0.00     0.166 HD
BRANCH  11  13
HETATM   13  C7  UNL     1      22.632   4.790  52.361  1.00  0.00     0.090 C 
HETATM   14  C8  UNL     1      23.354   5.512  51.563  1.00  0.00     0.017 C 
BRANCH  14  15
HETATM   15  C9  UNL     1      24.481   5.295  50.614  1.00  0.00    -0.002 C 
HETATM   16  C10 UNL     1      25.444   5.900  49.940  1.00  0.00    -0.016 C 
BRANCH  16  17
HETATM   17  C11 UNL     1      26.370   5.175  49.062  1.00  0.00     0.112 C 
HETATM   18 BR1  UNL     1      26.523   3.310  49.645  1.00  0.00    -0.092 Br
ENDBRANCH  16  17
ENDBRANCH  14  15
ENDBRANCH  11  13
ENDBRANCH   7  11
BRANCH  10  19
HETATM   19  O2  UNL     1      27.598   2.383  54.230  1.00  0.00    -0.353 OA
HETATM   20  C15 UNL     1      28.669   2.613  53.367  1.00  0.00     0.210 C 
ENDBRANCH  10  19
BRANCH   1  21
HETATM   21  O1  UNL     1      27.685  -0.292  54.550  1.00  0.00    -0.353 OA
HETATM   22  C1  UNL     1      28.576  -1.019  53.731  1.00  0.00     0.210 C 
ENDBRANCH   1  21
TORSDOF 6
ENDMDL
MODEL 3
REMARK VINA RESULT:      -6.5      2.248      5.249
REMARK  6 active torsions:
REMARK  status: ('A' for Active; 'I' for Inactive)
REMARK    1  A    between atoms: O1_2  and  C2_3 
REMARK    2  A    between atoms: C6_9  and  N3_10 
REMARK    3  A    between atoms: N3_10  and  C7_11 
REMARK    4  A    between atoms: C8_12  and  C9_13 
REMARK    5  A    between atoms: C10_14  and  C11_15 
REMARK    6  A    between atoms: C14_19  and  O2_20 
ROOT
HETATM    1  C2  UNL     1      20.650  -0.177  53.075  1.00  0.00     0.103 A 
HETATM    2  C3  UNL     1      21.060  -0.792  54.263  1.00  0.00     0.072 A 
HETATM    3  C4  UNL     1      22.400  -0.872  54.559  1.00  0.00     0.075 A 
HETATM    4  N1  UNL     1      22.960  -1.426  55.632  1.00  0.00    -0.241 NA
HETATM    5  C5  UNL     1      24.267  -1.505  55.902  1.00  0.00     0.236 A 
HETATM    6  N2  UNL     1      25.118  -0.967  54.998  1.00  0.00    -0.224 NA
HETATM    7  C6  UNL     1      24.627  -0.374  53.867  1.00  0.00     0.141 A 
HETATM    8  C12 UNL     1      23.268  -0.331  53.653  1.00  0.00     0.042 A 
HETATM    9  C13 UNL     1      22.925   0.285  52.471  1.00  0.00     0.057 A 
HETATM   10  C14 UNL     1      21.566   0.357  52.184  1.00  0.00     0.102 A 
ENDROOT
BRANCH   7  11
HETATM   11  N3  UNL     1      25.717   0.097  53.135  1.00  0.00    -0.350 N 
HETATM   12  H6  UNL     1      25.744  -0.641  52.430  1.00  0.00     0.166 HD
BRANCH  11  13
HETATM   13  C7  UNL     1      26.797   0.419  52.307  1.00  0.00     0.090 C 
HETATM   14  C8  UNL     1      26.701   1.451  51.529  1.00  0.00     0.017 C 
BRANCH  14  15
HETATM   15  C9  UNL     1      25.685   2.495  51.222  1.00  0.00    -0.002 C 
HETATM   16  C10 UNL     1      25.347   3.440  50.362  1.00  0.00    -0.016 C 
BRANCH  16  17
HETATM   17  C11 UNL     1      24.145   4.266  50.526  1.00  0.00     0.112 C 
HETATM   18 BR1  UNL     1      23.440   4.068  52.344  1.00  0.00    -0.092 Br
ENDBRANCH  16  17
ENDBRANCH  14  15
ENDBRANCH  11  13
ENDBRANCH   7  11
BRANCH  10  19
HETATM   19  O2  UNL     1      21.098   0.948  51.026  1.00  0.00    -0.353 OA
HETATM   20  C15 UNL     1      21.892   1.278  49.928  1.00  0.00     0.210 C 
ENDBRANCH  10  19
BRANCH   1  21
HETATM   21  O1  UNL     1      19.307  -0.084  52.755  1.00  0.00    -0.353 OA
HETATM   22  C1  UNL     1      18.351  -1.034  53.175  1.00  0.00     0.210 C 
ENDBRANCH   1  21
TORSDOF 6
ENDMDL
MODEL 4
REMARK VINA RESULT:      -6.4      3.185      6.319
REMARK  6 active torsions:
REMARK  status: ('A' for Active; 'I' for Inactive)
REMARK    1  A    between atoms: O1_2  and  C2_3 
REMARK    2  A    between atoms: C6_9  and  N3_10 
REMARK    3  A    between atoms: N3_10  and  C7_11 
REMARK    4  A    between atoms: C8_12  and  C9_13 
REMARK    5  A    between atoms: C10_14  and  C11_15 
REMARK    6  A    between atoms: C14_19  and  O2_20 
ROOT
HETATM    1  C2  UNL     1      19.860  -0.560  53.324  1.00  0.00     0.103 A 
HETATM    2  C3  UNL     1      20.630  -1.158  54.328  1.00  0.00     0.072 A 
HETATM    3  C4  UNL     1      21.985  -0.930  54.370  1.00  0.00     0.075 A 
HETATM    4  N1  UNL     1      22.862  -1.422  55.242  1.00  0.00    -0.241 NA
HETATM    5  C5  UNL     1      24.181  -1.198  55.264  1.00  0.00     0.236 A 
HETATM    6  N2  UNL     1      24.686  -0.387  54.307  1.00  0.00    -0.224 NA
HETATM    7  C6  UNL     1      23.854   0.165  53.371  1.00  0.00     0.141 A 
HETATM    8  C12 UNL     1      22.506  -0.112  53.407  1.00  0.00     0.042 A 
HETATM    9  C13 UNL     1      21.800   0.504  52.398  1.00  0.00     0.057 A 
HETATM   10  C14 UNL     1      20.430   0.262  52.368  1.00  0.00     0.102 A 
ENDROOT
BRANCH   7  11
HETATM   11  N3  UNL     1      24.637   0.955  52.529  1.00  0.00    -0.350 N 
HETATM   12  H6  UNL     1      23.891   1.294  51.919  1.00  0.00     0.166 HD
BRANCH  11  13
HETATM   13  C7  UNL     1      25.274   1.771  51.589  1.00  0.00     0.090 C 
HETATM   14  C8  UNL     1      26.523   2.068  51.767  1.00  0.00     0.017 C 
BRANCH  14  15
HETATM   15  C9  UNL     1      27.583   1.772  52.769  1.00  0.00    -0.002 C 
HETATM   16  C10 UNL     1      28.509   2.316  53.541  1.00  0.00    -0.016 C 
BRANCH  16  17
HETATM   17  C11 UNL     1      29.371   1.520  54.423  1.00  0.00     0.112 C 
HETATM   18 BR1  UNL     1      29.531  -0.306  53.731  1.00  0.00    -0.092 Br
ENDBRANCH  16  17
ENDBRANCH  14  15
ENDBRANCH  11  13
ENDBRANCH   7  11
BRANCH  10  19
HETATM   19  O2  UNL     1      19.616   0.820  51.401  1.00  0.00    -0.353 OA
HETATM   20  C15 UNL     1      19.070   2.101  51.467  1.00  0.00     0.210 C 
ENDBRANCH  10  19
BRANCH   1  21
HETATM   21  O1  UNL     1      18.494  -0.775  53.261  1.00  0.00    -0.353 OA
HETATM   22  C1  UNL     1      17.904  -2.035  53.502  1.00  0.00     0.210 C 
ENDBRANCH   1  21
TORSDOF 6
ENDMDL
MODEL 5
REMARK VINA RESULT:      -6.4      2.311      5.000
REMARK  6 active torsions:
REMARK  status: ('A' for Active; 'I' for Inactive)
REMARK    1  A    between atoms: O1_2  and  C2_3 
REMARK    2  A    between atoms: C6_9  and  N3_10 
REMARK    3  A    between atoms: N3_10  and  C7_11 
REMARK    4  A    between atoms: C8_12  and  C9_13 
REMARK    5  A    between atoms: C10_14  and  C11_15 
REMARK    6  A    between atoms: C14_19  and  O2_20 
ROOT
HETATM    1  C2  UNL     1      23.482   0.062  53.091  1.00  0.00     0.103 A 
HETATM    2  C3  UNL     1      24.721  -0.088  53.723  1.00  0.00     0.072 A 
HETATM    3  C4  UNL     1      25.789   0.673  53.311  1.00  0.00     0.075 A 
HETATM    4  N1  UNL     1      27.031   0.652  53.791  1.00  0.00    -0.241 NA
HETATM    5  C5  UNL     1      28.063   1.392  53.373  1.00  0.00     0.236 A 
HETATM    6  N2  UNL     1      27.833   2.256  52.358  1.00  0.00    -0.224 NA
HETATM    7  C6  UNL     1      26.584   2.344  51.806  1.00  0.00     0.141 A 
HETATM    8  C12 UNL     1      25.568   1.549  52.286  1.00  0.00     0.042 A 
HETATM    9  C13 UNL     1      24.374   1.740  51.628  1.00  0.00     0.057 A 
HETATM   10  C14 UNL     1      23.302   0.962  52.055  1.00  0.00     0.102 A 
ENDROOT
BRANCH   7  11
HETATM   11  N3  UNL     1      26.636   3.311  50.803  1.00  0.00    -0.350 N 
HETATM   12  H6  UNL     1      26.483   2.695  50.003  1.00  0.00     0.166 HD
BRANCH  11  13
HETATM   13  C7  UNL     1      26.679   4.146  49.681  1.00  0.00     0.090 C 
HETATM   14  C8  UNL     1      25.587   4.728  49.296  1.00  0.00     0.017 C 
BRANCH  14  15
HETATM   15  C9  UNL     1      24.164   4.778  49.731  1.00  0.00    -0.002 C 
HETATM   16  C10 UNL     1      22.937   4.397  49.422  1.00  0.00    -0.016 C 
BRANCH  16  17
HETATM   17  C11 UNL     1      21.772   4.733  50.250  1.00  0.00     0.112 C 
HETATM   18 BR1  UNL     1      22.288   4.780  52.140  1.00  0.00    -0.092 Br
ENDBRANCH  16  17
ENDBRANCH  14  15
ENDBRANCH  11  13
ENDBRANCH   7  11
BRANCH  10  19
HETATM   19  O2  UNL     1      22.055   1.061  51.469  1.00  0.00    -0.353 OA
HETATM   20  C15 UNL     1      21.809   0.945  50.102  1.00  0.00     0.210 C 
ENDBRANCH  10  19
BRANCH   1  21
HETATM   21  O1  UNL     1      22.391  -0.693  53.488  1.00  0.00    -0.353 OA
HETATM   22  C1  UNL     1      22.018  -0.848  54.841  1.00  0.00     0.210 C 
ENDBRANCH   1  21
TORSDOF 6
ENDMDL
MODEL 6
REMARK VINA RESULT:      -6.3      2.928      4.360
REMARK  6 active torsions:
REMARK  status: ('A' for Active; 'I' for Inactive)
REMARK    1  A    between atoms: O1_2  and  C2_3 
REMARK    2  A    between atoms: C6_9  and  N3_10 
REMARK    3  A    between atoms: N3_10  and  C7_11 
REMARK    4  A    between atoms: C8_12  and  C9_13 
REMARK    5  A    between atoms: C10_14  and  C11_15 
REMARK    6  A    between atoms: C14_19  and  O2_20 
ROOT
HETATM    1  C2  UNL     1      27.169   0.356  53.595  1.00  0.00     0.103 A 
HETATM    2  C3  UNL     1      27.627   1.416  52.807  1.00  0.00     0.072 A 
HETATM    3  C4  UNL     1      26.778   2.004  51.899  1.00  0.00     0.075 A 
HETATM    4  N1  UNL     1      27.049   3.008  51.069  1.00  0.00    -0.241 NA
HETATM    5  C5  UNL     1      26.214   3.564  50.184  1.00  0.00     0.236 A 
HETATM    6  N2  UNL     1      24.959   3.060  50.119  1.00  0.00    -0.224 NA
HETATM    7  C6  UNL     1      24.595   2.028  50.939  1.00  0.00     0.141 A 
HETATM    8  C12 UNL     1      25.508   1.503  51.825  1.00  0.00     0.042 A 
HETATM    9  C13 UNL     1      25.002   0.465  52.574  1.00  0.00     0.057 A 
HETATM   10  C14 UNL     1      25.874  -0.121  53.486  1.00  0.00     0.102 A 
ENDROOT
BRANCH   7  11
HETATM   11  N3  UNL     1      23.261   1.727  50.666  1.00  0.00    -0.350 N 
HETATM   12  H6  UNL     1      23.235   2.059  49.701  1.00  0.00     0.166 HD
BRANCH  11  13
HETATM   13  C7  UNL     1      21.947   1.508  50.236  1.00  0.00     0.090 C 
HETATM   14  C8  UNL     1      21.095   1.003  51.072  1.00  0.00     0.017 C 
BRANCH  14  15
HETATM   15  C9  UNL     1      21.096   0.542  52.487  1.00  0.00    -0.002 C 
HETATM   16  C10 UNL     1      20.831   0.902  53.731  1.00  0.00    -0.016 C 
BRANCH  16  17
HETATM   17  C11 UNL     1      21.019  -0.000  54.874  1.00  0.00     0.112 C 
HETATM   18 BR1  UNL     1      21.488  -1.794  54.238  1.00  0.00    -0.092 Br
ENDBRANCH  16  17
ENDBRANCH  14  15
ENDBRANCH  11  13
ENDBRANCH   7  11
BRANCH  10  19
HETATM   19  O2  UNL     1      25.484  -1.173  54.291  1.00  0.00    -0.353 OA
HETATM   20  C15 UNL     1      24.844  -1.035  55.523  1.00  0.00     0.210 C 
ENDBRANCH  10  19
BRANCH   1  21
HETATM   21  O1  UNL     1      28.006  -0.252  54.515  1.00  0.00    -0.353 OA
HETATM   22  C1  UNL     1      29.336  -0.620  54.217  1.00  0.00     0.210 C 
ENDBRANCH   1  21
TORSDOF 6
ENDMDL
MODEL 7
REMARK VINA RESULT:      -6.3      2.174      3.849
REMARK  6 active torsions:
REMARK  status: ('A' for Active; 'I' for Inactive)
REMARK    1  A    between atoms: O1_2  and  C2_3 
REMARK    2  A    between atoms: C6_9  and  N3_10 
REMARK    3  A    between atoms: N3_10  and  C7_11 
REMARK    4  A    between atoms: C8_12  and  C9_13 
REMARK    5  A    between atoms: C10_14  and  C11_15 
REMARK    6  A    between atoms: C14_19  and  O2_20 
ROOT
HETATM    1  C2  UNL     1      27.237   0.581  53.323  1.00  0.00     0.103 A 
HETATM    2  C3  UNL     1      26.771  -0.128  54.436  1.00  0.00     0.072 A 
HETATM    3  C4  UNL     1      25.444  -0.478  54.510  1.00  0.00     0.075 A 
HETATM    4  N1  UNL     1      24.835  -1.139  55.493  1.00  0.00    -0.241 NA
HETATM    5  C5  UNL     1      23.539  -1.465  55.555  1.00  0.00     0.236 A 
HETATM    6  N2  UNL     1      22.757  -1.090  54.517  1.00  0.00    -0.224 NA
HETATM    7  C6  UNL     1      23.302  -0.408  53.464  1.00  0.00     0.141 A 
HETATM    8  C12 UNL     1      24.644  -0.104  53.467  1.00  0.00     0.042 A 
HETATM    9  C13 UNL     1      25.045   0.592  52.349  1.00  0.00     0.057 A 
HETATM   10  C14 UNL     1      26.390   0.941  52.288  1.00  0.00     0.102 A 
ENDROOT
BRANCH   7  11
HETATM   11  N3  UNL     1      22.279  -0.166  52.547  1.00  0.00    -0.350 N 
HETATM   12  H6  UNL     1      22.114   0.816  52.774  1.00  0.00     0.166 HD
BRANCH  11  13
HETATM   13  C7  UNL     1      21.237   0.236  51.704  1.00  0.00     0.090 C 
HETATM   14  C8  UNL     1      21.217   1.460  51.279  1.00  0.00     0.017 C 
BRANCH  14  15
HETATM   15  C9  UNL     1      22.051   2.684  51.436  1.00  0.00    -0.002 C 
HETATM   16  C10 UNL     1      22.684   3.442  52.314  1.00  0.00    -0.016 C 
BRANCH  16  17
HETATM   17  C11 UNL     1      23.423   4.651  51.928  1.00  0.00     0.112 C 
HETATM   18 BR1  UNL     1      23.261   4.945  49.997  1.00  0.00    -0.092 Br
ENDBRANCH  16  17
ENDBRANCH  14  15
ENDBRANCH  11  13
ENDBRANCH   7  11
BRANCH  10  19
HETATM   19  O2  UNL     1      26.911   1.644  51.219  1.00  0.00    -0.353 OA
HETATM   20  C15 UNL     1      26.447   2.886  50.785  1.00  0.00     0.210 C 
ENDBRANCH  10  19
BRANCH   1  21
HETATM   21  O1  UNL     1      28.568   0.946  53.226  1.00  0.00    -0.353 OA
HETATM   22  C1  UNL     1      29.623   0.128  53.687  1.00  0.00     0.210 C 
ENDBRANCH   1  21
TORSDOF 6
ENDMDL
MODEL 8
REMARK VINA RESULT:      -6.0      2.433      3.952
REMARK  6 active torsions:
REMARK  status: ('A' for Active; 'I' for Inactive)
REMARK    1  A    between atoms: O1_2  and  C2_3 
REMARK    2  A    between atoms: C6_9  and  N3_10 
REMARK    3  A    between atoms: N3_10  and  C7_11 
REMARK    4  A    between atoms: C8_12  and  C9_13 
REMARK    5  A    between atoms: C10_14  and  C11_15 
REMARK    6  A    between atoms: C14_19  and  O2_20 
ROOT
HETATM    1  C2  UNL     1      27.004   0.617  53.556  1.00  0.00     0.103 A 
HETATM    2  C3  UNL     1      26.329  -0.173  54.493  1.00  0.00     0.072 A 
HETATM    3  C4  UNL     1      24.983  -0.407  54.340  1.00  0.00     0.075 A 
HETATM    4  N1  UNL     1      24.190  -1.122  55.135  1.00  0.00    -0.241 NA
HETATM    5  C5  UNL     1      22.879  -1.333  54.977  1.00  0.00     0.236 A 
HETATM    6  N2  UNL     1      22.287  -0.769  53.899  1.00  0.00    -0.224 NA
HETATM    7  C6  UNL     1      23.029  -0.020  53.028  1.00  0.00     0.141 A 
HETATM    8  C12 UNL     1      24.375   0.158  53.254  1.00  0.00     0.042 A 
HETATM    9  C13 UNL     1      24.986   0.942  52.301  1.00  0.00     0.057 A 
HETATM   10  C14 UNL     1      26.347   1.172  52.471  1.00  0.00     0.102 A 
ENDROOT
BRANCH   7  11
HETATM   11  N3  UNL     1      22.172   0.420  52.019  1.00  0.00    -0.350 N 
HETATM   12  H6  UNL     1      22.076   1.389  52.327  1.00  0.00     0.166 HD
BRANCH  11  13
HETATM   13  C7  UNL     1      21.304   1.014  51.098  1.00  0.00     0.090 C 
HETATM   14  C8  UNL     1      20.060   0.649  51.089  1.00  0.00     0.017 C 
BRANCH  14  15
HETATM   15  C9  UNL     1      19.198  -0.307  51.837  1.00  0.00    -0.002 C 
HETATM   16  C10 UNL     1      18.724  -0.610  53.033  1.00  0.00    -0.016 C 
BRANCH  16  17
HETATM   17  C11 UNL     1      17.835  -1.755  53.265  1.00  0.00     0.112 C 
HETATM   18 BR1  UNL     1      16.132  -1.477  52.335  1.00  0.00    -0.092 Br
ENDBRANCH  16  17
ENDBRANCH  14  15
ENDBRANCH  11  13
ENDBRANCH   7  11
BRANCH  10  19
HETATM   19  O2  UNL     1      27.070   1.945  51.583  1.00  0.00    -0.353 OA
HETATM   20  C15 UNL     1      26.531   2.968  50.802  1.00  0.00     0.210 C 
ENDBRANCH  10  19
BRANCH   1  21
HETATM   21  O1  UNL     1      28.358   0.868  53.690  1.00  0.00    -0.353 OA
HETATM   22  C1  UNL     1      29.325  -0.159  53.757  1.00  0.00     0.210 C 
ENDBRANCH   1  21
TORSDOF 6
ENDMDL
MODEL 9
REMARK VINA RESULT:      -6.0      2.669      4.343
REMARK  6 active torsions:
REMARK  status: ('A' for Active; 'I' for Inactive)
REMARK    1  A    between atoms: O1_2  and  C2_3 
REMARK    2  A    between atoms: C6_9  and  N3_10 
REMARK    3  A    between atoms: N3_10  and  C7_11 
REMARK    4  A    between atoms: C8_12  and  C9_13 
REMARK    5  A    between atoms: C10_14  and  C11_15 
REMARK    6  A    between atoms: C14_19  and  O2_20 
ROOT
HETATM    1  C2  UNL     1      26.071  -0.234  52.944  1.00  0.00     0.103 A 
HETATM    2  C3  UNL     1      26.797   0.538  52.030  1.00  0.00     0.072 A 
HETATM    3  C4  UNL     1      26.255   1.706  51.547  1.00  0.00     0.075 A 
HETATM    4  N1  UNL     1      26.799   2.549  50.673  1.00  0.00    -0.241 NA
HETATM    5  C5  UNL     1      26.255   3.678  50.205  1.00  0.00     0.236 A 
HETATM    6  N2  UNL     1      25.025   4.007  50.662  1.00  0.00    -0.224 NA
HETATM    7  C6  UNL     1      24.393   3.196  51.565  1.00  0.00     0.141 A 
HETATM    8  C12 UNL     1      25.013   2.047  52.002  1.00  0.00     0.042 A 
HETATM    9  C13 UNL     1      24.253   1.330  52.899  1.00  0.00     0.057 A 
HETATM   10  C14 UNL     1      24.813   0.150  53.377  1.00  0.00     0.102 A 
ENDROOT
BRANCH   7  11
HETATM   11  N3  UNL     1      23.163   3.781  51.864  1.00  0.00    -0.350 N 
HETATM   12  H6  UNL     1      23.382   4.733  51.568  1.00  0.00     0.166 HD
BRANCH  11  13
HETATM   13  C7  UNL     1      22.005   4.522  52.121  1.00  0.00     0.090 C 
HETATM   14  C8  UNL     1      20.877   3.894  52.241  1.00  0.00     0.017 C 
BRANCH  14  15
HETATM   15  C9  UNL     1      20.400   2.485  52.179  1.00  0.00    -0.002 C 
HETATM   16  C10 UNL     1      20.296   1.360  52.863  1.00  0.00    -0.016 C 
BRANCH  16  17
HETATM   17  C11 UNL     1      19.696   0.144  52.301  1.00  0.00     0.112 C 
HETATM   18 BR1  UNL     1      18.527   0.610  50.798  1.00  0.00    -0.092 Br
ENDBRANCH  16  17
ENDBRANCH  14  15
ENDBRANCH  11  13
ENDBRANCH   7  11
BRANCH  10  19
HETATM   19  O2  UNL     1      24.146  -0.658  54.277  1.00  0.00    -0.353 OA
HETATM   20  C15 UNL     1      22.777  -0.920  54.245  1.00  0.00     0.210 C 
ENDBRANCH  10  19
BRANCH   1  21
HETATM   21  O1  UNL     1      26.595  -1.413  53.444  1.00  0.00    -0.353 OA
HETATM   22  C1  UNL     1      27.747  -2.029  52.908  1.00  0.00     0.210 C 
ENDBRANCH   1  21
TORSDOF 6
ENDMDL
