MODEL 1
REMARK VINA RESULT:      -8.7      0.000      0.000
REMARK  7 active torsions:
REMARK  status: ('A' for Active; 'I' for Inactive)
REMARK    1  A    between atoms: C8_9  and  C9_10 
REMARK    2  A    between atoms: C10_11  and  C11_12 
REMARK    3  A    between atoms: C11_12  and  C12_13 
REMARK    4  A    between atoms: C12_13  and  C13_15 
REMARK    5  A    between atoms: C17_20  and  N3_21 
REMARK    6  A    between atoms: N3_21  and  C18_22 
REMARK    7  A    between atoms: C18_22  and  P1_23 
ROOT
HETATM    1  C13 UNL     1      22.681   0.791  53.097  1.00  0.00     0.056 A 
HETATM    2  C14 UNL     1      21.334   0.510  53.121  1.00  0.00     0.020 A 
HETATM    3  C15 UNL     1      20.737  -0.517  53.780  1.00  0.00     0.020 A 
HETATM    4  C16 UNL     1      21.626  -1.337  54.487  1.00  0.00     0.119 A 
HETATM    5  N2  UNL     1      22.935  -1.068  54.466  1.00  0.00    -0.243 NA
HETATM    6  C17 UNL     1      23.497  -0.045  53.804  1.00  0.00     0.137 A 
ENDROOT
BRANCH   1   7
HETATM    7  C12 UNL     1      23.247   1.889  52.354  1.00  0.00     0.166 C 
HETATM    8  O1  UNL     1      23.962   2.769  52.889  1.00  0.00    -0.292 OA
BRANCH   7   9
HETATM    9  C11 UNL     1      23.255   2.381  50.963  1.00  0.00     0.111 C 
BRANCH   9  10
HETATM   10  C10 UNL     1      24.591   2.903  50.523  1.00  0.00    -0.019 C 
HETATM   11  C9  UNL     1      24.820   3.693  49.490  1.00  0.00    -0.003 C 
BRANCH  11  12
HETATM   12  C8  UNL     1      26.164   4.134  49.160  1.00  0.00     0.010 C 
HETATM   13  C7  UNL     1      26.447   5.416  49.067  1.00  0.00    -0.023 C 
HETATM   14  C2  UNL     1      27.753   5.972  48.744  1.00  0.00     0.025 C 
HETATM   15  C4  UNL     1      25.546   6.565  49.261  1.00  0.00    -0.002 C 
HETATM   16  C1  UNL     1      28.764   5.230  48.302  1.00  0.00     0.043 C 
HETATM   17  N1  UNL     1      27.767   7.358  48.966  1.00  0.00    -0.389 N 
HETATM   18  C3  UNL     1      26.410   7.786  49.149  1.00  0.00     0.133 C 
HETATM   19  H3  UNL     1      28.563   8.007  49.003  1.00  0.00     0.159 HD
HETATM   20  C5  UNL     1      24.943   6.575  50.663  1.00  0.00     0.021 C 
HETATM   21  C6  UNL     1      24.456   6.644  48.226  1.00  0.00     0.021 C 
ENDBRANCH  11  12
ENDBRANCH   9  10
ENDBRANCH   7   9
ENDBRANCH   1   7
BRANCH   6  22
HETATM   22  N3  UNL     1      24.932   0.047  53.941  1.00  0.00    -0.370 N 
HETATM   23  H20 UNL     1      25.499   0.702  54.477  1.00  0.00     0.161 HD
BRANCH  22  24
HETATM   24  C18 UNL     1      25.791  -0.878  53.264  1.00  0.00     0.155 C 
BRANCH  24  25
HETATM   25  P1  UNL     1      27.334  -0.141  52.753  1.00  0.00    -0.088 P 
HETATM   26  C19 UNL     1      27.210   1.483  52.594  1.00  0.00     0.024 A 
HETATM   27  C20 UNL     1      28.035   2.373  53.401  1.00  0.00     0.116 A 
HETATM   28  N4  UNL     1      28.913   2.058  54.288  1.00  0.00    -0.273 NA
HETATM   29  C21 UNL     1      29.141   0.683  54.546  1.00  0.00     0.116 A 
HETATM   30  C22 UNL     1      28.585  -0.362  54.012  1.00  0.00     0.024 A 
HETATM   31  H23 UNL     1      27.759  -0.662  51.517  1.00  0.00     0.062 HD
ENDBRANCH  24  25
ENDBRANCH  22  24
ENDBRANCH   6  22
TORSDOF 7
ENDMDL
MODEL 2
REMARK VINA RESULT:      -8.2      3.591      8.809
REMARK  7 active torsions:
REMARK  status: ('A' for Active; 'I' for Inactive)
REMARK    1  A    between atoms: C8_9  and  C9_10 
REMARK    2  A    between atoms: C10_11  and  C11_12 
REMARK    3  A    between atoms: C11_12  and  C12_13 
REMARK    4  A    between atoms: C12_13  and  C13_15 
REMARK    5  A    between atoms: C17_20  and  N3_21 
REMARK    6  A    between atoms: N3_21  and  C18_22 
REMARK    7  A    between atoms: C18_22  and  P1_23 
ROOT
HETATM    1  C13 UNL     1      28.000   7.016  48.032  1.00  0.00     0.056 A 
HETATM    2  C14 UNL     1      27.176   7.793  47.252  1.00  0.00     0.020 A 
HETATM    3  C15 UNL     1      27.431   9.056  46.820  1.00  0.00     0.020 A 
HETATM    4  C16 UNL     1      28.667   9.565  47.240  1.00  0.00     0.119 A 
HETATM    5  N2  UNL     1      29.471   8.813  47.999  1.00  0.00    -0.243 NA
HETATM    6  C17 UNL     1      29.191   7.567  48.410  1.00  0.00     0.137 A 
ENDROOT
BRANCH   1   7
HETATM    7  C12 UNL     1      27.652   5.688  48.472  1.00  0.00     0.166 C 
HETATM    8  O1  UNL     1      28.469   4.736  48.462  1.00  0.00    -0.292 OA
BRANCH   7   9
HETATM    9  C11 UNL     1      26.470   4.986  49.008  1.00  0.00     0.111 C 
BRANCH   9  10
HETATM   10  C10 UNL     1      26.806   3.712  49.723  1.00  0.00    -0.019 C 
HETATM   11  C9  UNL     1      25.975   2.970  50.431  1.00  0.00    -0.003 C 
BRANCH  11  12
HETATM   12  C8  UNL     1      26.417   1.750  51.082  1.00  0.00     0.010 C 
HETATM   13  C7  UNL     1      25.644   1.130  51.948  1.00  0.00    -0.023 C 
HETATM   14  C2  UNL     1      25.982  -0.095  52.659  1.00  0.00     0.025 C 
HETATM   15  C4  UNL     1      24.292   1.508  52.397  1.00  0.00    -0.002 C 
HETATM   16  C1  UNL     1      27.206  -0.615  52.660  1.00  0.00     0.043 C 
HETATM   17  N1  UNL     1      24.852  -0.613  53.311  1.00  0.00    -0.389 N 
HETATM   18  C3  UNL     1      23.835   0.398  53.295  1.00  0.00     0.133 C 
HETATM   19  H3  UNL     1      24.711  -1.535  53.742  1.00  0.00     0.159 HD
HETATM   20  C5  UNL     1      23.310   1.569  51.231  1.00  0.00     0.021 C 
HETATM   21  C6  UNL     1      24.265   2.800  53.168  1.00  0.00     0.021 C 
ENDBRANCH  11  12
ENDBRANCH   9  10
ENDBRANCH   7   9
ENDBRANCH   1   7
BRANCH   6  22
HETATM   22  N3  UNL     1      30.222   6.952  49.213  1.00  0.00    -0.370 N 
HETATM   23  H20 UNL     1      30.150   6.247  49.946  1.00  0.00     0.161 HD
BRANCH  22  24
HETATM   24  C18 UNL     1      31.598   7.311  49.036  1.00  0.00     0.155 C 
BRANCH  24  25
HETATM   25  P1  UNL     1      32.367   6.455  47.673  1.00  0.00    -0.088 P 
HETATM   26  C19 UNL     1      33.998   6.433  47.809  1.00  0.00     0.024 A 
HETATM   27  C20 UNL     1      34.718   5.169  47.898  1.00  0.00     0.116 A 
HETATM   28  N4  UNL     1      34.237   3.976  47.885  1.00  0.00    -0.273 NA
HETATM   29  C21 UNL     1      32.833   3.821  47.771  1.00  0.00     0.116 A 
HETATM   30  C22 UNL     1      31.906   4.725  47.674  1.00  0.00     0.024 A 
HETATM   31  H23 UNL     1      32.047   7.065  46.446  1.00  0.00     0.062 HD
ENDBRANCH  24  25
ENDBRANCH  22  24
ENDBRANCH   6  22
TORSDOF 7
ENDMDL
MODEL 3
REMARK VINA RESULT:      -8.0      3.878      7.617
REMARK  7 active torsions:
REMARK  status: ('A' for Active; 'I' for Inactive)
REMARK    1  A    between atoms: C8_9  and  C9_10 
REMARK    2  A    between atoms: C10_11  and  C11_12 
REMARK    3  A    between atoms: C11_12  and  C12_13 
REMARK    4  A    between atoms: C12_13  and  C13_15 
REMARK    5  A    between atoms: C17_20  and  N3_21 
REMARK    6  A    between atoms: N3_21  and  C18_22 
REMARK    7  A    between atoms: C18_22  and  P1_23 
ROOT
HETATM    1  C13 UNL     1      22.157   2.144  52.480  1.00  0.00     0.056 A 
HETATM    2  C14 UNL     1      23.287   2.928  52.475  1.00  0.00     0.020 A 
HETATM    3  C15 UNL     1      23.336   4.269  52.262  1.00  0.00     0.020 A 
HETATM    4  C16 UNL     1      22.086   4.857  52.030  1.00  0.00     0.119 A 
HETATM    5  N2  UNL     1      20.985   4.099  52.034  1.00  0.00    -0.243 NA
HETATM    6  C17 UNL     1      20.968   2.775  52.248  1.00  0.00     0.137 A 
ENDROOT
BRANCH   1   7
HETATM    7  C12 UNL     1      22.185   0.718  52.692  1.00  0.00     0.166 C 
HETATM    8  O1  UNL     1      21.908  -0.105  51.787  1.00  0.00    -0.292 OA
BRANCH   7   9
HETATM    9  C11 UNL     1      22.477  -0.220  53.793  1.00  0.00     0.111 C 
BRANCH   9  10
HETATM   10  C10 UNL     1      23.926  -0.594  53.890  1.00  0.00    -0.019 C 
HETATM   11  C9  UNL     1      24.869  -0.303  53.012  1.00  0.00    -0.003 C 
BRANCH  11  12
HETATM   12  C8  UNL     1      26.244  -0.722  53.215  1.00  0.00     0.010 C 
HETATM   13  C7  UNL     1      27.224   0.156  53.196  1.00  0.00    -0.023 C 
HETATM   14  C2  UNL     1      28.635  -0.147  53.386  1.00  0.00     0.025 C 
HETATM   15  C4  UNL     1      27.140   1.612  52.986  1.00  0.00    -0.002 C 
HETATM   16  C1  UNL     1      29.112  -1.389  53.397  1.00  0.00     0.043 C 
HETATM   17  N1  UNL     1      29.376   1.034  53.549  1.00  0.00    -0.389 N 
HETATM   18  C3  UNL     1      28.533   2.133  53.177  1.00  0.00     0.133 C 
HETATM   19  H3  UNL     1      30.344   1.160  53.870  1.00  0.00     0.159 HD
HETATM   20  C5  UNL     1      26.267   2.282  54.042  1.00  0.00     0.021 C 
HETATM   21  C6  UNL     1      26.666   1.984  51.606  1.00  0.00     0.021 C 
ENDBRANCH  11  12
ENDBRANCH   9  10
ENDBRANCH   7   9
ENDBRANCH   1   7
BRANCH   6  22
HETATM   22  N3  UNL     1      19.655   2.175  52.214  1.00  0.00    -0.370 N 
HETATM   23  H20 UNL     1      19.203   1.546  52.876  1.00  0.00     0.161 HD
BRANCH  22  24
HETATM   24  C18 UNL     1      18.760   2.437  51.126  1.00  0.00     0.155 C 
BRANCH  24  25
HETATM   25  P1  UNL     1      17.607   1.106  50.843  1.00  0.00    -0.088 P 
HETATM   26  C19 UNL     1      18.009  -0.239  51.686  1.00  0.00     0.024 A 
HETATM   27  C20 UNL     1      17.097  -0.796  52.675  1.00  0.00     0.116 A 
HETATM   28  N4  UNL     1      15.934  -0.364  53.018  1.00  0.00    -0.273 NA
HETATM   29  C21 UNL     1      15.436   0.798  52.378  1.00  0.00     0.116 A 
HETATM   30  C22 UNL     1      15.983   1.536  51.460  1.00  0.00     0.024 A 
HETATM   31  H23 UNL     1      17.556   0.759  49.480  1.00  0.00     0.062 HD
ENDBRANCH  24  25
ENDBRANCH  22  24
ENDBRANCH   6  22
TORSDOF 7
ENDMDL
MODEL 4
REMARK VINA RESULT:      -7.9      3.241      8.531
REMARK  7 active torsions:
REMARK  status: ('A' for Active; 'I' for Inactive)
REMARK    1  A    between atoms: C8_9  and  C9_10 
REMARK    2  A    between atoms: C10_11  and  C11_12 
REMARK    3  A    between atoms: C11_12  and  C12_13 
REMARK    4  A    between atoms: C12_13  and  C13_15 
REMARK    5  A    between atoms: C17_20  and  N3_21 
REMARK    6  A    between atoms: N3_21  and  C18_22 
REMARK    7  A    between atoms: C18_22  and  P1_23 
ROOT
HETATM    1  C13 UNL     1      25.425   6.400  49.032  1.00  0.00     0.056 A 
HETATM    2  C14 UNL     1      24.196   6.184  48.454  1.00  0.00     0.020 A 
HETATM    3  C15 UNL     1      23.102   6.982  48.564  1.00  0.00     0.020 A 
HETATM    4  C16 UNL     1      23.302   8.121  49.354  1.00  0.00     0.119 A 
HETATM    5  N2  UNL     1      24.495   8.336  49.918  1.00  0.00    -0.243 NA
HETATM    6  C17 UNL     1      25.559   7.528  49.791  1.00  0.00     0.137 A 
ENDROOT
BRANCH   1   7
HETATM    7  C12 UNL     1      26.537   5.495  48.889  1.00  0.00     0.166 C 
HETATM    8  O1  UNL     1      27.586   5.805  48.274  1.00  0.00    -0.292 OA
BRANCH   7   9
HETATM    9  C11 UNL     1      26.889   4.120  49.292  1.00  0.00     0.111 C 
BRANCH   9  10
HETATM   10  C10 UNL     1      25.713   3.317  49.762  1.00  0.00    -0.019 C 
HETATM   11  C9  UNL     1      25.340   3.137  51.016  1.00  0.00    -0.003 C 
BRANCH  11  12
HETATM   12  C8  UNL     1      24.178   2.333  51.350  1.00  0.00     0.010 C 
HETATM   13  C7  UNL     1      24.279   1.318  52.181  1.00  0.00    -0.023 C 
HETATM   14  C2  UNL     1      23.186   0.446  52.588  1.00  0.00     0.025 C 
HETATM   15  C4  UNL     1      25.479   0.830  52.883  1.00  0.00    -0.002 C 
HETATM   16  C1  UNL     1      21.995   0.458  51.998  1.00  0.00     0.043 C 
HETATM   17  N1  UNL     1      23.581  -0.371  53.659  1.00  0.00    -0.389 N 
HETATM   18  C3  UNL     1      25.006  -0.272  53.783  1.00  0.00     0.133 C 
HETATM   19  H3  UNL     1      23.009  -0.958  54.280  1.00  0.00     0.159 HD
HETATM   20  C5  UNL     1      26.083   1.907  53.778  1.00  0.00     0.021 C 
HETATM   21  C6  UNL     1      26.526   0.281  51.951  1.00  0.00     0.021 C 
ENDBRANCH  11  12
ENDBRANCH   9  10
ENDBRANCH   7   9
ENDBRANCH   1   7
BRANCH   6  22
HETATM   22  N3  UNL     1      26.743   7.977  50.486  1.00  0.00    -0.370 N 
HETATM   23  H20 UNL     1      27.274   7.531  51.233  1.00  0.00     0.161 HD
BRANCH  22  24
HETATM   24  C18 UNL     1      27.354   9.229  50.154  1.00  0.00     0.155 C 
BRANCH  24  25
HETATM   25  P1  UNL     1      28.645   9.066  48.933  1.00  0.00    -0.088 P 
HETATM   26  C19 UNL     1      28.284   9.871  47.554  1.00  0.00     0.024 A 
HETATM   27  C20 UNL     1      29.141  10.947  47.076  1.00  0.00     0.116 A 
HETATM   28  N4  UNL     1      30.221  11.401  47.609  1.00  0.00    -0.273 NA
HETATM   29  C21 UNL     1      30.674  10.808  48.814  1.00  0.00     0.116 A 
HETATM   30  C22 UNL     1      30.155   9.838  49.505  1.00  0.00     0.024 A 
HETATM   31  H23 UNL     1      28.859   7.716  48.599  1.00  0.00     0.062 HD
ENDBRANCH  24  25
ENDBRANCH  22  24
ENDBRANCH   6  22
TORSDOF 7
ENDMDL
MODEL 5
REMARK VINA RESULT:      -7.8      2.726      4.339
REMARK  7 active torsions:
REMARK  status: ('A' for Active; 'I' for Inactive)
REMARK    1  A    between atoms: C8_9  and  C9_10 
REMARK    2  A    between atoms: C10_11  and  C11_12 
REMARK    3  A    between atoms: C11_12  and  C12_13 
REMARK    4  A    between atoms: C12_13  and  C13_15 
REMARK    5  A    between atoms: C17_20  and  N3_21 
REMARK    6  A    between atoms: N3_21  and  C18_22 
REMARK    7  A    between atoms: C18_22  and  P1_23 
ROOT
HETATM    1  C13 UNL     1      24.495   3.239  49.979  1.00  0.00     0.056 A 
HETATM    2  C14 UNL     1      23.510   2.964  49.060  1.00  0.00     0.020 A 
HETATM    3  C15 UNL     1      22.284   2.442  49.325  1.00  0.00     0.020 A 
HETATM    4  C16 UNL     1      22.057   2.177  50.682  1.00  0.00     0.119 A 
HETATM    5  N2  UNL     1      23.012   2.443  51.579  1.00  0.00    -0.243 NA
HETATM    6  C17 UNL     1      24.215   2.959  51.286  1.00  0.00     0.137 A 
ENDROOT
BRANCH   1   7
HETATM    7  C12 UNL     1      25.785   3.775  49.620  1.00  0.00     0.166 C 
HETATM    8  O1  UNL     1      26.850   3.131  49.771  1.00  0.00    -0.292 OA
BRANCH   7   9
HETATM    9  C11 UNL     1      26.333   5.020  49.048  1.00  0.00     0.111 C 
BRANCH   9  10
HETATM   10  C10 UNL     1      27.765   4.900  48.620  1.00  0.00    -0.019 C 
HETATM   11  C9  UNL     1      28.557   5.890  48.251  1.00  0.00    -0.003 C 
BRANCH  11  12
HETATM   12  C8  UNL     1      29.933   5.650  47.855  1.00  0.00     0.010 C 
HETATM   13  C7  UNL     1      30.725   6.650  47.536  1.00  0.00    -0.023 C 
HETATM   14  C2  UNL     1      32.117   6.530  47.126  1.00  0.00     0.025 C 
HETATM   15  C4  UNL     1      30.413   8.091  47.516  1.00  0.00    -0.002 C 
HETATM   16  C1  UNL     1      32.684   5.364  46.830  1.00  0.00     0.043 C 
HETATM   17  N1  UNL     1      32.733   7.791  47.096  1.00  0.00    -0.389 N 
HETATM   18  C3  UNL     1      31.703   8.784  47.192  1.00  0.00     0.133 C 
HETATM   19  H3  UNL     1      33.730   8.031  47.022  1.00  0.00     0.159 HD
HETATM   20  C5  UNL     1      29.973   8.589  48.889  1.00  0.00     0.021 C 
HETATM   21  C6  UNL     1      29.388   8.459  46.477  1.00  0.00     0.021 C 
ENDBRANCH  11  12
ENDBRANCH   9  10
ENDBRANCH   7   9
ENDBRANCH   1   7
BRANCH   6  22
HETATM   22  N3  UNL     1      25.075   3.168  52.427  1.00  0.00    -0.370 N 
HETATM   23  H20 UNL     1      25.481   4.028  52.795  1.00  0.00     0.161 HD
BRANCH  22  24
HETATM   24  C18 UNL     1      25.486   2.065  53.244  1.00  0.00     0.155 C 
BRANCH  24  25
HETATM   25  P1  UNL     1      27.003   1.313  52.679  1.00  0.00    -0.088 P 
HETATM   26  C19 UNL     1      28.143   1.284  53.853  1.00  0.00     0.024 A 
HETATM   27  C20 UNL     1      28.690   0.019  54.324  1.00  0.00     0.116 A 
HETATM   28  N4  UNL     1      28.396  -1.171  53.933  1.00  0.00    -0.273 NA
HETATM   29  C21 UNL     1      27.421  -1.320  52.915  1.00  0.00     0.116 A 
HETATM   30  C22 UNL     1      26.742  -0.412  52.281  1.00  0.00     0.024 A 
HETATM   31  H23 UNL     1      27.537   2.012  51.580  1.00  0.00     0.062 HD
ENDBRANCH  24  25
ENDBRANCH  22  24
ENDBRANCH   6  22
TORSDOF 7
ENDMDL
MODEL 6
REMARK VINA RESULT:      -7.7      3.066      8.285
REMARK  7 active torsions:
REMARK  status: ('A' for Active; 'I' for Inactive)
REMARK    1  A    between atoms: C8_9  and  C9_10 
REMARK    2  A    between atoms: C10_11  and  C11_12 
REMARK    3  A    between atoms: C11_12  and  C12_13 
REMARK    4  A    between atoms: C12_13  and  C13_15 
REMARK    5  A    between atoms: C17_20  and  N3_21 
REMARK    6  A    between atoms: N3_21  and  C18_22 
REMARK    7  A    between atoms: C18_22  and  P1_23 
ROOT
HETATM    1  C13 UNL     1      25.304   4.968  50.084  1.00  0.00     0.056 A 
HETATM    2  C14 UNL     1      26.209   4.024  49.657  1.00  0.00     0.020 A 
HETATM    3  C15 UNL     1      27.328   4.255  48.922  1.00  0.00     0.020 A 
HETATM    4  C16 UNL     1      27.529   5.603  48.596  1.00  0.00     0.119 A 
HETATM    5  N2  UNL     1      26.652   6.523  49.008  1.00  0.00    -0.243 NA
HETATM    6  C17 UNL     1      25.555   6.264  49.734  1.00  0.00     0.137 A 
ENDROOT
BRANCH   1   7
HETATM    7  C12 UNL     1      24.123   4.644  50.844  1.00  0.00     0.166 C 
HETATM    8  O1  UNL     1      23.762   5.306  51.847  1.00  0.00    -0.292 OA
BRANCH   7   9
HETATM    9  C11 UNL     1      23.045   3.637  50.818  1.00  0.00     0.111 C 
BRANCH   9  10
HETATM   10  C10 UNL     1      23.118   2.655  51.950  1.00  0.00    -0.019 C 
HETATM   11  C9  UNL     1      23.682   1.462  51.915  1.00  0.00    -0.003 C 
BRANCH  11  12
HETATM   12  C8  UNL     1      23.690   0.596  53.080  1.00  0.00     0.010 C 
HETATM   13  C7  UNL     1      24.823   0.249  53.653  1.00  0.00    -0.023 C 
HETATM   14  C2  UNL     1      24.952  -0.612  54.820  1.00  0.00     0.025 C 
HETATM   15  C4  UNL     1      26.193   0.631  53.269  1.00  0.00    -0.002 C 
HETATM   16  C1  UNL     1      23.936  -1.312  55.317  1.00  0.00     0.043 C 
HETATM   17  N1  UNL     1      26.265  -0.580  55.313  1.00  0.00    -0.389 N 
HETATM   18  C3  UNL     1      27.089   0.053  54.324  1.00  0.00     0.133 C 
HETATM   19  H3  UNL     1      26.638  -0.927  56.206  1.00  0.00     0.159 HD
HETATM   20  C5  UNL     1      26.384   2.144  53.305  1.00  0.00     0.021 C 
HETATM   21  C6  UNL     1      26.606   0.086  51.928  1.00  0.00     0.021 C 
ENDBRANCH  11  12
ENDBRANCH   9  10
ENDBRANCH   7   9
ENDBRANCH   1   7
BRANCH   6  22
HETATM   22  N3  UNL     1      24.765   7.426  50.068  1.00  0.00    -0.370 N 
HETATM   23  H20 UNL     1      24.421   7.748  50.972  1.00  0.00     0.161 HD
BRANCH  22  24
HETATM   24  C18 UNL     1      24.343   8.341  49.050  1.00  0.00     0.155 C 
BRANCH  24  25
HETATM   25  P1  UNL     1      22.580   8.306  48.776  1.00  0.00    -0.088 P 
HETATM   26  C19 UNL     1      22.160   7.199  47.646  1.00  0.00     0.024 A 
HETATM   27  C20 UNL     1      21.271   6.096  47.982  1.00  0.00     0.116 A 
HETATM   28  N4  UNL     1      20.720   5.834  49.115  1.00  0.00    -0.273 NA
HETATM   29  C21 UNL     1      20.983   6.702  50.204  1.00  0.00     0.116 A 
HETATM   30  C22 UNL     1      21.723   7.769  50.252  1.00  0.00     0.024 A 
HETATM   31  H23 UNL     1      22.109   9.560  48.344  1.00  0.00     0.062 HD
ENDBRANCH  24  25
ENDBRANCH  22  24
ENDBRANCH   6  22
TORSDOF 7
ENDMDL
MODEL 7
REMARK VINA RESULT:      -7.7      2.735      8.132
REMARK  7 active torsions:
REMARK  status: ('A' for Active; 'I' for Inactive)
REMARK    1  A    between atoms: C8_9  and  C9_10 
REMARK    2  A    between atoms: C10_11  and  C11_12 
REMARK    3  A    between atoms: C11_12  and  C12_13 
REMARK    4  A    between atoms: C12_13  and  C13_15 
REMARK    5  A    between atoms: C17_20  and  N3_21 
REMARK    6  A    between atoms: N3_21  and  C18_22 
REMARK    7  A    between atoms: C18_22  and  P1_23 
ROOT
HETATM    1  C13 UNL     1      25.199   4.999  50.234  1.00  0.00     0.056 A 
HETATM    2  C14 UNL     1      25.810   3.829  49.847  1.00  0.00     0.020 A 
HETATM    3  C15 UNL     1      26.930   3.719  49.086  1.00  0.00     0.020 A 
HETATM    4  C16 UNL     1      27.472   4.947  48.686  1.00  0.00     0.119 A 
HETATM    5  N2  UNL     1      26.882   6.086  49.060  1.00  0.00    -0.243 NA
HETATM    6  C17 UNL     1      25.774   6.163  49.813  1.00  0.00     0.137 A 
ENDROOT
BRANCH   1   7
HETATM    7  C12 UNL     1      23.995   5.038  51.027  1.00  0.00     0.166 C 
HETATM    8  O1  UNL     1      23.886   5.745  52.057  1.00  0.00    -0.292 OA
BRANCH   7   9
HETATM    9  C11 UNL     1      22.654   4.423  51.012  1.00  0.00     0.111 C 
BRANCH   9  10
HETATM   10  C10 UNL     1      22.535   3.230  51.914  1.00  0.00    -0.019 C 
HETATM   11  C9  UNL     1      23.391   2.230  52.005  1.00  0.00    -0.003 C 
BRANCH  11  12
HETATM   12  C8  UNL     1      23.167   1.124  52.919  1.00  0.00     0.010 C 
HETATM   13  C7  UNL     1      24.180   0.496  53.476  1.00  0.00    -0.023 C 
HETATM   14  C2  UNL     1      24.077  -0.621  54.404  1.00  0.00     0.025 C 
HETATM   15  C4  UNL     1      25.621   0.759  53.307  1.00  0.00    -0.002 C 
HETATM   16  C1  UNL     1      22.936  -1.266  54.632  1.00  0.00     0.043 C 
HETATM   17  N1  UNL     1      25.323  -0.891  54.991  1.00  0.00    -0.389 N 
HETATM   18  C3  UNL     1      26.320  -0.169  54.255  1.00  0.00     0.133 C 
HETATM   19  H3  UNL     1      25.551  -1.485  55.798  1.00  0.00     0.159 HD
HETATM   20  C5  UNL     1      25.985   2.180  53.728  1.00  0.00     0.021 C 
HETATM   21  C6  UNL     1      26.111   0.488  51.910  1.00  0.00     0.021 C 
ENDBRANCH  11  12
ENDBRANCH   9  10
ENDBRANCH   7   9
ENDBRANCH   1   7
BRANCH   6  22
HETATM   22  N3  UNL     1      25.330   7.508  50.096  1.00  0.00    -0.370 N 
HETATM   23  H20 UNL     1      25.211   7.987  50.988  1.00  0.00     0.161 HD
BRANCH  22  24
HETATM   24  C18 UNL     1      24.976   8.400  49.032  1.00  0.00     0.155 C 
BRANCH  24  25
HETATM   25  P1  UNL     1      26.249   9.600  48.683  1.00  0.00    -0.088 P 
HETATM   26  C19 UNL     1      27.428   9.585  49.818  1.00  0.00     0.024 A 
HETATM   27  C20 UNL     1      28.806   9.281  49.453  1.00  0.00     0.116 A 
HETATM   28  N4  UNL     1      29.278   9.000  48.290  1.00  0.00    -0.273 NA
HETATM   29  C21 UNL     1      28.381   8.972  47.192  1.00  0.00     0.116 A 
HETATM   30  C22 UNL     1      27.102   9.192  47.163  1.00  0.00     0.024 A 
HETATM   31  H23 UNL     1      25.718  10.903  48.633  1.00  0.00     0.062 HD
ENDBRANCH  24  25
ENDBRANCH  22  24
ENDBRANCH   6  22
TORSDOF 7
ENDMDL
MODEL 8
REMARK VINA RESULT:      -7.7      2.821      4.958
REMARK  7 active torsions:
REMARK  status: ('A' for Active; 'I' for Inactive)
REMARK    1  A    between atoms: C8_9  and  C9_10 
REMARK    2  A    between atoms: C10_11  and  C11_12 
REMARK    3  A    between atoms: C11_12  and  C12_13 
REMARK    4  A    between atoms: C12_13  and  C13_15 
REMARK    5  A    between atoms: C17_20  and  N3_21 
REMARK    6  A    between atoms: N3_21  and  C18_22 
REMARK    7  A    between atoms: C18_22  and  P1_23 
ROOT
HETATM    1  C13 UNL     1      23.727   0.382  53.079  1.00  0.00     0.056 A 
HETATM    2  C14 UNL     1      23.604  -0.532  54.100  1.00  0.00     0.020 A 
HETATM    3  C15 UNL     1      22.482  -1.220  54.435  1.00  0.00     0.020 A 
HETATM    4  C16 UNL     1      21.373  -0.932  53.628  1.00  0.00     0.119 A 
HETATM    5  N2  UNL     1      21.488  -0.045  52.635  1.00  0.00    -0.243 NA
HETATM    6  C17 UNL     1      22.612   0.620  52.328  1.00  0.00     0.137 A 
ENDROOT
BRANCH   1   7
HETATM    7  C12 UNL     1      24.949   1.093  52.797  1.00  0.00     0.166 C 
HETATM    8  O1  UNL     1      25.203   2.221  53.282  1.00  0.00    -0.292 OA
BRANCH   7   9
HETATM    9  C11 UNL     1      26.177   0.888  52.003  1.00  0.00     0.111 C 
BRANCH   9  10
HETATM   10  C10 UNL     1      26.653   2.130  51.310  1.00  0.00    -0.019 C 
HETATM   11  C9  UNL     1      26.224   2.592  50.150  1.00  0.00    -0.003 C 
BRANCH  11  12
HETATM   12  C8  UNL     1      26.763   3.811  49.575  1.00  0.00     0.010 C 
HETATM   13  C7  UNL     1      25.981   4.838  49.321  1.00  0.00    -0.023 C 
HETATM   14  C2  UNL     1      26.409   6.106  48.748  1.00  0.00     0.025 C 
HETATM   15  C4  UNL     1      24.530   4.957  49.546  1.00  0.00    -0.002 C 
HETATM   16  C1  UNL     1      27.618   6.290  48.225  1.00  0.00     0.043 C 
HETATM   17  N1  UNL     1      25.382   7.058  48.836  1.00  0.00    -0.389 N 
HETATM   18  C3  UNL     1      24.175   6.369  49.188  1.00  0.00     0.133 C 
HETATM   19  H3  UNL     1      25.418   8.075  48.689  1.00  0.00     0.159 HD
HETATM   20  C5  UNL     1      24.172   4.768  51.017  1.00  0.00     0.021 C 
HETATM   21  C6  UNL     1      23.720   4.020  48.690  1.00  0.00     0.021 C 
ENDBRANCH  11  12
ENDBRANCH   9  10
ENDBRANCH   7   9
ENDBRANCH   1   7
BRANCH   6  22
HETATM   22  N3  UNL     1      22.493   1.520  51.204  1.00  0.00    -0.370 N 
HETATM   23  H20 UNL     1      22.834   2.473  51.087  1.00  0.00     0.161 HD
BRANCH  22  24
HETATM   24  C18 UNL     1      21.809   1.113  50.013  1.00  0.00     0.155 C 
BRANCH  24  25
HETATM   25  P1  UNL     1      20.331   2.063  49.705  1.00  0.00    -0.088 P 
HETATM   26  C19 UNL     1      19.019   1.399  50.424  1.00  0.00     0.024 A 
HETATM   27  C20 UNL     1      18.265   2.143  51.424  1.00  0.00     0.116 A 
HETATM   28  N4  UNL     1      18.484   3.332  51.865  1.00  0.00    -0.273 NA
HETATM   29  C21 UNL     1      19.589   4.048  51.340  1.00  0.00     0.116 A 
HETATM   30  C22 UNL     1      20.459   3.687  50.446  1.00  0.00     0.024 A 
HETATM   31  H23 UNL     1      20.064   2.154  48.326  1.00  0.00     0.062 HD
ENDBRANCH  24  25
ENDBRANCH  22  24
ENDBRANCH   6  22
TORSDOF 7
ENDMDL
MODEL 9
REMARK VINA RESULT:      -7.7      2.688      7.422
REMARK  7 active torsions:
REMARK  status: ('A' for Active; 'I' for Inactive)
REMARK    1  A    between atoms: C8_9  and  C9_10 
REMARK    2  A    between atoms: C10_11  and  C11_12 
REMARK    3  A    between atoms: C11_12  and  C12_13 
REMARK    4  A    between atoms: C12_13  and  C13_15 
REMARK    5  A    between atoms: C17_20  and  N3_21 
REMARK    6  A    between atoms: N3_21  and  C18_22 
REMARK    7  A    between atoms: C18_22  and  P1_23 
ROOT
HETATM    1  C13 UNL     1      25.327   0.123  53.798  1.00  0.00     0.056 A 
HETATM    2  C14 UNL     1      26.408  -0.151  54.604  1.00  0.00     0.020 A 
HETATM    3  C15 UNL     1      27.610   0.481  54.582  1.00  0.00     0.020 A 
HETATM    4  C16 UNL     1      27.702   1.501  53.627  1.00  0.00     0.119 A 
HETATM    5  N2  UNL     1      26.654   1.771  52.842  1.00  0.00    -0.243 NA
HETATM    6  C17 UNL     1      25.478   1.128  52.887  1.00  0.00     0.137 A 
ENDROOT
BRANCH   1   7
HETATM    7  C12 UNL     1      24.086  -0.608  53.864  1.00  0.00     0.166 C 
HETATM    8  O1  UNL     1      23.621  -1.239  52.885  1.00  0.00    -0.292 OA
BRANCH   7   9
HETATM    9  C11 UNL     1      23.034  -0.892  54.859  1.00  0.00     0.111 C 
BRANCH   9  10
HETATM   10  C10 UNL     1      21.692  -1.162  54.247  1.00  0.00    -0.019 C 
HETATM   11  C9  UNL     1      20.717  -0.286  54.084  1.00  0.00    -0.003 C 
BRANCH  11  12
HETATM   12  C8  UNL     1      19.454  -0.666  53.476  1.00  0.00     0.010 C 
HETATM   13  C7  UNL     1      19.074  -0.142  52.331  1.00  0.00    -0.023 C 
HETATM   14  C2  UNL     1      17.835  -0.446  51.631  1.00  0.00     0.025 C 
HETATM   15  C4  UNL     1      19.784   0.848  51.501  1.00  0.00    -0.002 C 
HETATM   16  C1  UNL     1      16.846  -1.144  52.183  1.00  0.00     0.043 C 
HETATM   17  N1  UNL     1      17.855   0.094  50.336  1.00  0.00    -0.389 N 
HETATM   18  C3  UNL     1      18.960   1.005  50.258  1.00  0.00     0.133 C 
HETATM   19  H3  UNL     1      17.227  -0.085  49.542  1.00  0.00     0.159 HD
HETATM   20  C5  UNL     1      21.153   0.335  51.064  1.00  0.00     0.021 C 
HETATM   21  C6  UNL     1      19.920   2.190  52.168  1.00  0.00     0.021 C 
ENDBRANCH  11  12
ENDBRANCH   9  10
ENDBRANCH   7   9
ENDBRANCH   1   7
BRANCH   6  22
HETATM   22  N3  UNL     1      24.493   1.607  51.945  1.00  0.00    -0.370 N 
HETATM   23  H20 UNL     1      24.234   1.248  51.026  1.00  0.00     0.161 HD
BRANCH  22  24
HETATM   24  C18 UNL     1      23.695   2.758  52.243  1.00  0.00     0.155 C 
BRANCH  24  25
HETATM   25  P1  UNL     1      23.525   3.862  50.852  1.00  0.00    -0.088 P 
HETATM   26  C19 UNL     1      23.520   5.431  51.316  1.00  0.00     0.024 A 
HETATM   27  C20 UNL     1      24.541   6.351  50.833  1.00  0.00     0.116 A 
HETATM   28  N4  UNL     1      25.522   6.106  50.037  1.00  0.00    -0.273 NA
HETATM   29  C21 UNL     1      25.668   4.786  49.541  1.00  0.00     0.116 A 
HETATM   30  C22 UNL     1      24.942   3.732  49.767  1.00  0.00     0.024 A 
HETATM   31  H23 UNL     1      22.327   3.617  50.154  1.00  0.00     0.062 HD
ENDBRANCH  24  25
ENDBRANCH  22  24
ENDBRANCH   6  22
TORSDOF 7
ENDMDL
