MODEL 1
REMARK VINA RESULT:      -8.0      0.000      0.000
REMARK  2 active torsions:
REMARK  status: ('A' for Active; 'I' for Inactive)
REMARK    1  A    between atoms: C2_2  and  C3_3 
REMARK    2  A    between atoms: C11_13  and  C12_14 
ROOT
HETATM    1  C3  UNL     1      23.588  -1.175  54.469  1.00  0.00     0.029 C 
HETATM    2  C4  UNL     1      24.493  -0.394  53.930  1.00  0.00     0.044 C 
HETATM    3  C5  UNL     1      25.886  -0.902  53.894  1.00  0.00     0.052 C 
HETATM    4  C6  UNL     1      27.056  -0.419  53.436  1.00  0.00     0.042 C 
HETATM    5 BR1  UNL     1      28.791  -1.183  53.457  1.00  0.00    -0.049 Br
HETATM    6  C7  UNL     1      26.559   0.844  52.909  1.00  0.00     0.074 C 
HETATM    7  C8  UNL     1      26.476   0.908  51.563  1.00  0.00     0.044 C 
HETATM    8  C9  UNL     1      26.173   2.285  51.186  1.00  0.00    -0.009 C 
HETATM    9  C10 UNL     1      26.496   3.280  50.375  1.00  0.00     0.093 C 
HETATM   10  N1  UNL     1      25.695   4.432  50.607  1.00  0.00    -0.387 N 
HETATM   11  C11 UNL     1      24.557   3.935  51.404  1.00  0.00     0.145 C 
HETATM   12  C17 UNL     1      25.042   2.718  52.097  1.00  0.00     0.116 C 
HETATM   13  C18 UNL     1      25.669   2.978  53.442  1.00  0.00     0.124 C 
HETATM   14  N2  UNL     1      26.167   1.854  53.821  1.00  0.00    -0.261 NA
HETATM   15  N3  UNL     1      24.044   1.713  52.281  1.00  0.00    -0.218 NA
HETATM   16  N4  UNL     1      24.177   0.903  53.400  1.00  0.00    -0.320 N 
HETATM   17  H8  UNL     1      25.918   5.389  50.262  1.00  0.00     0.159 HD
HETATM   18  H15 UNL     1      23.135   2.254  52.442  1.00  0.00     0.148 HD
HETATM   19  H16 UNL     1      23.958   1.377  54.334  1.00  0.00     0.181 HD
ENDROOT
BRANCH  11  20
HETATM   20  C12 UNL     1      23.486   3.683  50.395  1.00  0.00    -0.050 A 
HETATM   21  C13 UNL     1      23.242   3.103  49.232  1.00  0.00     0.028 A 
HETATM   22  C14 UNL     1      21.848   3.298  48.855  1.00  0.00     0.030 A 
HETATM   23 CL1  UNL     1      21.172   2.663  47.373  1.00  0.00    -0.085 Cl
HETATM   24  C15 UNL     1      21.222   3.995  49.769  1.00  0.00     0.001 A 
HETATM   25  C16 UNL     1      22.183   4.310  50.827  1.00  0.00     0.065 A 
ENDBRANCH  11  20
BRANCH   1  26
HETATM   26  C2  UNL     1      22.231  -0.660  54.496  1.00  0.00    -0.008 C 
HETATM   27  C1  UNL     1      21.247  -1.494  54.205  1.00  0.00     0.011 C 
ENDBRANCH   1  26
TORSDOF 2
ENDMDL
MODEL 2
REMARK VINA RESULT:      -7.4      1.342      1.515
REMARK  2 active torsions:
REMARK  status: ('A' for Active; 'I' for Inactive)
REMARK    1  A    between atoms: C2_2  and  C3_3 
REMARK    2  A    between atoms: C11_13  and  C12_14 
ROOT
HETATM    1  C3  UNL     1      22.047  -0.592  53.801  1.00  0.00     0.029 C 
HETATM    2  C4  UNL     1      23.051   0.146  53.389  1.00  0.00     0.044 C 
HETATM    3  C5  UNL     1      24.377  -0.513  53.299  1.00  0.00     0.052 C 
HETATM    4  C6  UNL     1      25.607  -0.111  52.929  1.00  0.00     0.042 C 
HETATM    5 BR1  UNL     1      27.242  -1.069  52.861  1.00  0.00    -0.049 Br
HETATM    6  C7  UNL     1      25.274   1.263  52.581  1.00  0.00     0.074 C 
HETATM    7  C8  UNL     1      25.238   1.524  51.257  1.00  0.00     0.044 C 
HETATM    8  C9  UNL     1      25.105   2.967  51.077  1.00  0.00    -0.009 C 
HETATM    9  C10 UNL     1      25.563   4.021  50.420  1.00  0.00     0.093 C 
HETATM   10  N1  UNL     1      24.894   5.215  50.805  1.00  0.00    -0.387 N 
HETATM   11  C11 UNL     1      23.684   4.748  51.509  1.00  0.00     0.145 C 
HETATM   12  C17 UNL     1      24.006   3.397  52.027  1.00  0.00     0.116 C 
HETATM   13  C18 UNL     1      24.619   3.391  53.403  1.00  0.00     0.124 C 
HETATM   14  N2  UNL     1      24.974   2.174  53.623  1.00  0.00    -0.261 NA
HETATM   15  N3  UNL     1      22.894   2.501  52.054  1.00  0.00    -0.218 NA
HETATM   16  N4  UNL     1      22.902   1.532  53.047  1.00  0.00    -0.320 N 
HETATM   17  H8  UNL     1      25.234   6.178  50.603  1.00  0.00     0.159 HD
HETATM   18  H15 UNL     1      22.049   3.117  52.278  1.00  0.00     0.148 HD
HETATM   19  H16 UNL     1      22.711   1.893  54.036  1.00  0.00     0.181 HD
ENDROOT
BRANCH  11  20
HETATM   20  C12 UNL     1      22.620   4.768  50.461  1.00  0.00    -0.050 A 
HETATM   21  C13 UNL     1      22.338   4.375  49.231  1.00  0.00     0.028 A 
HETATM   22  C14 UNL     1      20.994   4.799  48.863  1.00  0.00     0.030 A 
HETATM   23 CL1  UNL     1      20.287   4.448  47.302  1.00  0.00    -0.085 Cl
HETATM   24  C15 UNL     1      20.435   5.453  49.850  1.00  0.00     0.001 A 
HETATM   25  C16 UNL     1      21.396   5.504  50.952  1.00  0.00     0.065 A 
ENDBRANCH  11  20
BRANCH   1  26
HETATM   26  C2  UNL     1      20.758   0.070  53.884  1.00  0.00    -0.008 C 
HETATM   27  C1  UNL     1      19.696  -0.588  53.452  1.00  0.00     0.011 C 
ENDBRANCH   1  26
TORSDOF 2
ENDMDL
MODEL 3
REMARK VINA RESULT:      -7.3      3.684      6.793
REMARK  2 active torsions:
REMARK  status: ('A' for Active; 'I' for Inactive)
REMARK    1  A    between atoms: C2_2  and  C3_3 
REMARK    2  A    between atoms: C11_13  and  C12_14 
ROOT
HETATM    1  C3  UNL     1      24.825   5.933  48.721  1.00  0.00     0.029 C 
HETATM    2  C4  UNL     1      23.934   5.049  49.105  1.00  0.00     0.044 C 
HETATM    3  C5  UNL     1      22.855   4.719  48.141  1.00  0.00     0.052 C 
HETATM    4  C6  UNL     1      21.796   3.889  48.159  1.00  0.00     0.042 C 
HETATM    5 BR1  UNL     1      20.473   3.562  46.840  1.00  0.00    -0.049 Br
HETATM    6  C7  UNL     1      22.007   3.319  49.482  1.00  0.00     0.074 C 
HETATM    7  C8  UNL     1      22.479   2.054  49.490  1.00  0.00     0.044 C 
HETATM    8  C9  UNL     1      22.435   1.557  50.861  1.00  0.00    -0.009 C 
HETATM    9  C10 UNL     1      22.084   0.539  51.631  1.00  0.00     0.093 C 
HETATM   10  N1  UNL     1      22.368   0.790  53.002  1.00  0.00    -0.387 N 
HETATM   11  C11 UNL     1      23.298   1.936  52.981  1.00  0.00     0.145 C 
HETATM   12  C17 UNL     1      23.031   2.658  51.714  1.00  0.00     0.116 C 
HETATM   13  C18 UNL     1      21.969   3.722  51.820  1.00  0.00     0.124 C 
HETATM   14  N2  UNL     1      21.759   4.128  50.617  1.00  0.00    -0.261 NA
HETATM   15  N3  UNL     1      24.185   3.266  51.134  1.00  0.00    -0.218 NA
HETATM   16  N4  UNL     1      23.973   4.422  50.396  1.00  0.00    -0.320 N 
HETATM   17  H8  UNL     1      21.974   0.248  53.799  1.00  0.00     0.159 HD
HETATM   18  H15 UNL     1      24.781   3.577  51.966  1.00  0.00     0.148 HD
HETATM   19  H16 UNL     1      23.732   5.291  50.972  1.00  0.00     0.181 HD
ENDROOT
BRANCH  11  20
HETATM   20  C12 UNL     1      24.651   1.309  53.058  1.00  0.00    -0.050 A 
HETATM   21  C13 UNL     1      25.344   0.238  52.711  1.00  0.00     0.028 A 
HETATM   22  C14 UNL     1      26.719   0.355  53.176  1.00  0.00     0.030 A 
HETATM   23 CL1  UNL     1      27.922  -0.883  52.892  1.00  0.00    -0.085 Cl
HETATM   24  C15 UNL     1      26.891   1.487  53.811  1.00  0.00     0.001 A 
HETATM   25  C16 UNL     1      25.614   2.201  53.805  1.00  0.00     0.065 A 
ENDBRANCH  11  20
BRANCH   1  26
HETATM   26  C2  UNL     1      25.872   6.243  49.677  1.00  0.00    -0.008 C 
HETATM   27  C1  UNL     1      26.003   7.500  50.066  1.00  0.00     0.011 C 
ENDBRANCH   1  26
TORSDOF 2
ENDMDL
MODEL 4
REMARK VINA RESULT:      -7.1      3.135      4.747
REMARK  2 active torsions:
REMARK  status: ('A' for Active; 'I' for Inactive)
REMARK    1  A    between atoms: C2_2  and  C3_3 
REMARK    2  A    between atoms: C11_13  and  C12_14 
ROOT
HETATM    1  C3  UNL     1      25.598   0.117  52.947  1.00  0.00     0.029 C 
HETATM    2  C4  UNL     1      24.497   0.697  52.533  1.00  0.00     0.044 C 
HETATM    3  C5  UNL     1      23.260   0.424  53.306  1.00  0.00     0.052 C 
HETATM    4  C6  UNL     1      21.978   0.820  53.206  1.00  0.00     0.042 C 
HETATM    5 BR1  UNL     1      20.474   0.387  54.276  1.00  0.00    -0.049 Br
HETATM    6  C7  UNL     1      22.125   1.689  52.047  1.00  0.00     0.074 C 
HETATM    7  C8  UNL     1      22.083   3.011  52.316  1.00  0.00     0.044 C 
HETATM    8  C9  UNL     1      22.028   3.736  51.050  1.00  0.00    -0.009 C 
HETATM    9  C10 UNL     1      21.420   4.705  50.385  1.00  0.00     0.093 C 
HETATM   10  N1  UNL     1      21.949   4.858  49.073  1.00  0.00    -0.387 N 
HETATM   11  C11 UNL     1      23.231   4.128  49.106  1.00  0.00     0.145 C 
HETATM   12  C17 UNL     1      23.098   3.112  50.177  1.00  0.00     0.116 C 
HETATM   13  C18 UNL     1      22.538   1.793  49.713  1.00  0.00     0.124 C 
HETATM   14  N2  UNL     1      22.345   1.099  50.779  1.00  0.00    -0.261 NA
HETATM   15  N3  UNL     1      24.313   2.836  50.874  1.00  0.00    -0.218 NA
HETATM   16  N4  UNL     1      24.460   1.551  51.379  1.00  0.00    -0.320 N 
HETATM   17  H8  UNL     1      21.484   5.383  48.303  1.00  0.00     0.159 HD
HETATM   18  H15 UNL     1      25.082   2.930  50.137  1.00  0.00     0.148 HD
HETATM   19  H16 UNL     1      24.638   0.792  50.647  1.00  0.00     0.181 HD
ENDROOT
BRANCH  11  20
HETATM   20  C12 UNL     1      24.247   5.187  49.386  1.00  0.00    -0.050 A 
HETATM   21  C13 UNL     1      24.407   6.388  49.912  1.00  0.00     0.028 A 
HETATM   22  C14 UNL     1      25.801   6.800  49.812  1.00  0.00     0.030 A 
HETATM   23 CL1  UNL     1      26.377   8.340  50.410  1.00  0.00    -0.085 Cl
HETATM   24  C15 UNL     1      26.511   5.869  49.228  1.00  0.00     0.001 A 
HETATM   25  C16 UNL     1      25.612   4.763  48.898  1.00  0.00     0.065 A 
ENDBRANCH  11  20
BRANCH   1  26
HETATM   26  C2  UNL     1      26.796   0.395  52.178  1.00  0.00    -0.008 C 
HETATM   27  C1  UNL     1      27.787   1.027  52.783  1.00  0.00     0.011 C 
ENDBRANCH   1  26
TORSDOF 2
ENDMDL
MODEL 5
REMARK VINA RESULT:      -7.0      8.392     11.035
REMARK  2 active torsions:
REMARK  status: ('A' for Active; 'I' for Inactive)
REMARK    1  A    between atoms: C2_2  and  C3_3 
REMARK    2  A    between atoms: C11_13  and  C12_14 
ROOT
HETATM    1  C3  UNL     1      34.705   3.306  46.357  1.00  0.00     0.029 C 
HETATM    2  C4  UNL     1      34.244   4.444  45.895  1.00  0.00     0.044 C 
HETATM    3  C5  UNL     1      34.645   4.823  44.518  1.00  0.00     0.052 C 
HETATM    4  C6  UNL     1      34.387   5.871  43.714  1.00  0.00     0.042 C 
HETATM    5 BR1  UNL     1      34.976   6.237  41.949  1.00  0.00    -0.049 Br
HETATM    6  C7  UNL     1      33.506   6.602  44.614  1.00  0.00     0.074 C 
HETATM    7  C8  UNL     1      32.196   6.557  44.291  1.00  0.00     0.044 C 
HETATM    8  C9  UNL     1      31.481   7.499  45.147  1.00  0.00    -0.009 C 
HETATM    9  C10 UNL     1      30.580   8.468  45.172  1.00  0.00     0.093 C 
HETATM   10  N1  UNL     1      30.372   8.964  46.489  1.00  0.00    -0.387 N 
HETATM   11  C11 UNL     1      30.963   7.935  47.366  1.00  0.00     0.145 C 
HETATM   12  C17 UNL     1      31.988   7.240  46.552  1.00  0.00     0.116 C 
HETATM   13  C18 UNL     1      33.359   7.862  46.619  1.00  0.00     0.124 C 
HETATM   14  N2  UNL     1      34.069   7.239  45.746  1.00  0.00    -0.261 NA
HETATM   15  N3  UNL     1      32.135   5.853  46.857  1.00  0.00    -0.218 NA
HETATM   16  N4  UNL     1      33.397   5.307  46.670  1.00  0.00    -0.320 N 
HETATM   17  H8  UNL     1      29.898   9.863  46.717  1.00  0.00     0.159 HD
HETATM   18  H15 UNL     1      31.960   5.782  47.910  1.00  0.00     0.148 HD
HETATM   19  H16 UNL     1      34.133   5.604  47.387  1.00  0.00     0.181 HD
ENDROOT
BRANCH  11  20
HETATM   20  C12 UNL     1      29.804   7.078  47.757  1.00  0.00    -0.050 A 
HETATM   21  C13 UNL     1      29.471   5.861  48.149  1.00  0.00     0.028 A 
HETATM   22  C14 UNL     1      28.032   5.773  48.355  1.00  0.00     0.030 A 
HETATM   23 CL1  UNL     1      27.239   4.305  48.879  1.00  0.00    -0.085 Cl
HETATM   24  C15 UNL     1      27.463   6.923  48.093  1.00  0.00     0.001 A 
HETATM   25  C16 UNL     1      28.513   7.858  47.689  1.00  0.00     0.065 A 
ENDBRANCH  11  20
BRANCH   1  26
HETATM   26  C2  UNL     1      34.302   2.953  47.706  1.00  0.00    -0.008 C 
HETATM   27  C1  UNL     1      33.319   2.080  47.849  1.00  0.00     0.011 C 
ENDBRANCH   1  26
TORSDOF 2
ENDMDL
MODEL 6
REMARK VINA RESULT:      -7.0      3.118      6.009
REMARK  2 active torsions:
REMARK  status: ('A' for Active; 'I' for Inactive)
REMARK    1  A    between atoms: C2_2  and  C3_3 
REMARK    2  A    between atoms: C11_13  and  C12_14 
ROOT
HETATM    1  C3  UNL     1      22.288   4.602  47.286  1.00  0.00     0.029 C 
HETATM    2  C4  UNL     1      23.024   4.611  48.372  1.00  0.00     0.044 C 
HETATM    3  C5  UNL     1      23.548   5.925  48.818  1.00  0.00     0.052 C 
HETATM    4  C6  UNL     1      24.310   6.337  49.849  1.00  0.00     0.042 C 
HETATM    5 BR1  UNL     1      24.917   8.073  50.308  1.00  0.00    -0.049 Br
HETATM    6  C7  UNL     1      24.490   5.044  50.495  1.00  0.00     0.074 C 
HETATM    7  C8  UNL     1      23.777   4.868  51.627  1.00  0.00     0.044 C 
HETATM    8  C9  UNL     1      24.222   3.631  52.262  1.00  0.00    -0.009 C 
HETATM    9  C10 UNL     1      24.592   3.074  53.404  1.00  0.00     0.093 C 
HETATM   10  N1  UNL     1      24.917   1.699  53.242  1.00  0.00    -0.387 N 
HETATM   11  C11 UNL     1      24.343   1.338  51.931  1.00  0.00     0.145 C 
HETATM   12  C17 UNL     1      24.269   2.598  51.154  1.00  0.00     0.116 C 
HETATM   13  C18 UNL     1      25.507   2.905  50.352  1.00  0.00     0.124 C 
HETATM   14  N2  UNL     1      25.332   4.088  49.877  1.00  0.00    -0.261 NA
HETATM   15  N3  UNL     1      23.156   2.669  50.262  1.00  0.00    -0.218 NA
HETATM   16  N4  UNL     1      23.335   3.416  49.106  1.00  0.00    -0.320 N 
HETATM   17  H8  UNL     1      25.447   1.129  53.933  1.00  0.00     0.159 HD
HETATM   18  H15 UNL     1      23.012   1.666  49.920  1.00  0.00     0.148 HD
HETATM   19  H16 UNL     1      23.972   2.972  48.371  1.00  0.00     0.181 HD
ENDROOT
BRANCH  11  20
HETATM   20  C12 UNL     1      23.015   0.743  52.266  1.00  0.00    -0.050 A 
HETATM   21  C13 UNL     1      21.722   0.824  52.005  1.00  0.00     0.028 A 
HETATM   22  C14 UNL     1      20.989  -0.170  52.778  1.00  0.00     0.030 A 
HETATM   23 CL1  UNL     1      19.252  -0.350  52.680  1.00  0.00    -0.085 Cl
HETATM   24  C15 UNL     1      21.811  -0.868  53.519  1.00  0.00     0.001 A 
HETATM   25  C16 UNL     1      23.165  -0.368  53.278  1.00  0.00     0.065 A 
ENDBRANCH  11  20
BRANCH   1  26
HETATM   26  C2  UNL     1      21.786   3.307  46.865  1.00  0.00    -0.008 C 
HETATM   27  C1  UNL     1      20.489   3.078  46.982  1.00  0.00     0.011 C 
ENDBRANCH   1  26
TORSDOF 2
ENDMDL
MODEL 7
REMARK VINA RESULT:      -6.9      3.244      4.472
REMARK  2 active torsions:
REMARK  status: ('A' for Active; 'I' for Inactive)
REMARK    1  A    between atoms: C2_2  and  C3_3 
REMARK    2  A    between atoms: C11_13  and  C12_14 
ROOT
HETATM    1  C3  UNL     1      23.378  -0.170  53.763  1.00  0.00     0.029 C 
HETATM    2  C4  UNL     1      23.223   0.840  52.940  1.00  0.00     0.044 C 
HETATM    3  C5  UNL     1      24.425   1.292  52.196  1.00  0.00     0.052 C 
HETATM    4  C6  UNL     1      24.666   2.257  51.289  1.00  0.00     0.042 C 
HETATM    5 BR1  UNL     1      26.274   2.737  50.407  1.00  0.00    -0.049 Br
HETATM    6  C7  UNL     1      23.311   2.784  51.191  1.00  0.00     0.074 C 
HETATM    7  C8  UNL     1      22.652   2.455  50.059  1.00  0.00     0.044 C 
HETATM    8  C9  UNL     1      21.411   3.222  50.013  1.00  0.00    -0.009 C 
HETATM    9  C10 UNL     1      20.633   3.975  49.251  1.00  0.00     0.093 C 
HETATM   10  N1  UNL     1      19.476   4.417  49.950  1.00  0.00    -0.387 N 
HETATM   11  C11 UNL     1      19.408   3.544  51.137  1.00  0.00     0.145 C 
HETATM   12  C17 UNL     1      20.794   3.084  51.390  1.00  0.00     0.116 C 
HETATM   13  C18 UNL     1      21.591   3.988  52.295  1.00  0.00     0.124 C 
HETATM   14  N2  UNL     1      22.793   3.531  52.276  1.00  0.00    -0.261 NA
HETATM   15  N3  UNL     1      20.883   1.763  51.924  1.00  0.00    -0.218 NA
HETATM   16  N4  UNL     1      21.962   1.502  52.757  1.00  0.00    -0.320 N 
HETATM   17  H8  UNL     1      18.855   5.193  49.639  1.00  0.00     0.159 HD
HETATM   18  H15 UNL     1      20.023   1.659  52.550  1.00  0.00     0.148 HD
HETATM   19  H16 UNL     1      21.909   1.954  53.725  1.00  0.00     0.181 HD
ENDROOT
BRANCH  11  20
HETATM   20  C12 UNL     1      18.463   2.458  50.738  1.00  0.00    -0.050 A 
HETATM   21  C13 UNL     1      18.337   1.398  49.959  1.00  0.00     0.028 A 
HETATM   22  C14 UNL     1      17.019   0.800  50.130  1.00  0.00     0.030 A 
HETATM   23 CL1  UNL     1      16.506  -0.624  49.255  1.00  0.00    -0.085 Cl
HETATM   24  C15 UNL     1      16.322   1.478  51.007  1.00  0.00     0.001 A 
HETATM   25  C16 UNL     1      17.152   2.588  51.476  1.00  0.00     0.065 A 
ENDBRANCH  11  20
BRANCH   1  26
HETATM   26  C2  UNL     1      22.193  -0.597  54.482  1.00  0.00    -0.008 C 
HETATM   27  C1  UNL     1      21.668  -1.770  54.168  1.00  0.00     0.011 C 
ENDBRANCH   1  26
TORSDOF 2
ENDMDL
MODEL 8
REMARK VINA RESULT:      -6.7      8.151     10.270
REMARK  2 active torsions:
REMARK  status: ('A' for Active; 'I' for Inactive)
REMARK    1  A    between atoms: C2_2  and  C3_3 
REMARK    2  A    between atoms: C11_13  and  C12_14 
ROOT
HETATM    1  C3  UNL     1      28.772   5.465  48.208  1.00  0.00     0.029 C 
HETATM    2  C4  UNL     1      29.755   6.334  48.203  1.00  0.00     0.044 C 
HETATM    3  C5  UNL     1      31.097   5.829  47.822  1.00  0.00     0.052 C 
HETATM    4  C6  UNL     1      32.316   6.387  47.697  1.00  0.00     0.042 C 
HETATM    5 BR1  UNL     1      33.973   5.614  47.199  1.00  0.00    -0.049 Br
HETATM    6  C7  UNL     1      31.947   7.754  48.038  1.00  0.00     0.074 C 
HETATM    7  C8  UNL     1      31.899   8.610  46.995  1.00  0.00     0.044 C 
HETATM    8  C9  UNL     1      31.730   9.962  47.518  1.00  0.00    -0.009 C 
HETATM    9  C10 UNL     1      32.158  11.211  47.443  1.00  0.00     0.093 C 
HETATM   10  N1  UNL     1      31.460  12.065  48.341  1.00  0.00    -0.387 N 
HETATM   11  C11 UNL     1      30.265  11.292  48.730  1.00  0.00     0.145 C 
HETATM   12  C17 UNL     1      30.623   9.865  48.549  1.00  0.00     0.116 C 
HETATM   13  C18 UNL     1      31.242   9.222  49.764  1.00  0.00     0.124 C 
HETATM   14  N2  UNL     1      31.628   8.055  49.385  1.00  0.00    -0.261 NA
HETATM   15  N3  UNL     1      29.534   9.037  48.139  1.00  0.00    -0.218 NA
HETATM   16  N4  UNL     1      29.570   7.713  48.556  1.00  0.00    -0.320 N 
HETATM   17  H8  UNL     1      31.776  13.017  48.622  1.00  0.00     0.159 HD
HETATM   18  H15 UNL     1      28.675   9.452  48.621  1.00  0.00     0.148 HD
HETATM   19  H16 UNL     1      29.374   7.558  49.596  1.00  0.00     0.181 HD
ENDROOT
BRANCH  11  20
HETATM   20  C12 UNL     1      29.198  11.780  47.806  1.00  0.00    -0.050 A 
HETATM   21  C13 UNL     1      28.875  11.901  46.531  1.00  0.00     0.028 A 
HETATM   22  C14 UNL     1      27.565  12.525  46.399  1.00  0.00     0.030 A 
HETATM   23 CL1  UNL     1      26.819  12.840  44.849  1.00  0.00    -0.085 Cl
HETATM   24  C15 UNL     1      27.068  12.795  47.580  1.00  0.00     0.001 A 
HETATM   25  C16 UNL     1      28.040  12.359  48.583  1.00  0.00     0.065 A 
ENDBRANCH  11  20
BRANCH   1  26
HETATM   26  C2  UNL     1      27.467   5.978  48.583  1.00  0.00    -0.008 C 
HETATM   27  C1  UNL     1      26.545   5.108  48.958  1.00  0.00     0.011 C 
ENDBRANCH   1  26
TORSDOF 2
ENDMDL
MODEL 9
REMARK VINA RESULT:      -6.7      4.105      7.285
REMARK  2 active torsions:
REMARK  status: ('A' for Active; 'I' for Inactive)
REMARK    1  A    between atoms: C2_2  and  C3_3 
REMARK    2  A    between atoms: C11_13  and  C12_14 
ROOT
HETATM    1  C3  UNL     1      23.034   5.440  49.610  1.00  0.00     0.029 C 
HETATM    2  C4  UNL     1      22.049   4.580  49.724  1.00  0.00     0.044 C 
HETATM    3  C5  UNL     1      21.197   4.371  48.528  1.00  0.00     0.052 C 
HETATM    4  C6  UNL     1      20.130   3.598  48.253  1.00  0.00     0.042 C 
HETATM    5 BR1  UNL     1      19.118   3.427  46.659  1.00  0.00    -0.049 Br
HETATM    6  C7  UNL     1      20.025   2.932  49.544  1.00  0.00     0.074 C 
HETATM    7  C8  UNL     1      20.437   1.647  49.558  1.00  0.00     0.044 C 
HETATM    8  C9  UNL     1      20.074   1.063  50.846  1.00  0.00    -0.009 C 
HETATM    9  C10 UNL     1      19.526   0.017  51.443  1.00  0.00     0.093 C 
HETATM   10  N1  UNL     1      19.510   0.162  52.858  1.00  0.00    -0.387 N 
HETATM   11  C11 UNL     1      20.464   1.257  53.125  1.00  0.00     0.145 C 
HETATM   12  C17 UNL     1      20.508   2.074  51.889  1.00  0.00     0.116 C 
HETATM   13  C18 UNL     1      19.489   3.183  51.842  1.00  0.00     0.124 C 
HETATM   14  N2  UNL     1      19.563   3.677  50.656  1.00  0.00    -0.261 NA
HETATM   15  N3  UNL     1      21.783   2.657  51.619  1.00  0.00    -0.218 NA
HETATM   16  N4  UNL     1      21.781   3.869  50.943  1.00  0.00    -0.320 N 
HETATM   17  H8  UNL     1      18.931  -0.409  53.507  1.00  0.00     0.159 HD
HETATM   18  H15 UNL     1      22.193   2.882  52.582  1.00  0.00     0.148 HD
HETATM   19  H16 UNL     1      21.451   4.710  51.516  1.00  0.00     0.181 HD
ENDROOT
BRANCH  11  20
HETATM   20  C12 UNL     1      21.743   0.557  53.446  1.00  0.00    -0.050 A 
HETATM   21  C13 UNL     1      23.018   0.472  53.107  1.00  0.00     0.028 A 
HETATM   22  C14 UNL     1      23.696  -0.513  53.939  1.00  0.00     0.030 A 
HETATM   23 CL1  UNL     1      25.396  -0.885  53.768  1.00  0.00    -0.085 Cl
HETATM   24  C15 UNL     1      22.857  -1.044  54.792  1.00  0.00     0.001 A 
HETATM   25  C16 UNL     1      21.547  -0.432  54.570  1.00  0.00     0.065 A 
ENDBRANCH  11  20
BRANCH   1  26
HETATM   26  C2  UNL     1      23.856   5.631  50.791  1.00  0.00    -0.008 C 
HETATM   27  C1  UNL     1      24.275   6.856  51.061  1.00  0.00     0.011 C 
ENDBRANCH   1  26
TORSDOF 2
ENDMDL
