MODEL 1
REMARK VINA RESULT:      -7.8      0.000      0.000
REMARK  6 active torsions:
REMARK  status: ('A' for Active; 'I' for Inactive)
REMARK    1  A    between atoms: N1_1  and  C1_2 
REMARK    2  A    between atoms: C1_2  and  N2_3 
REMARK    3  A    between atoms: C4_6  and  N3_7 
REMARK    4  A    between atoms: N3_7  and  C5_8 
REMARK    5  A    between atoms: N4_17  and  C13_18 
REMARK    6  A    between atoms: C13_18  and  C14_19 
ROOT
HETATM    1  N2  UNL     1      24.628   5.570  50.420  1.00  0.00    -0.242 NA
HETATM    2  C2  UNL     1      25.661   5.487  49.707  1.00  0.00     0.138 A 
HETATM    3  C3  UNL     1      26.438   4.251  49.735  1.00  0.00     0.026 A 
HETATM    4  C4  UNL     1      26.358   3.087  50.359  1.00  0.00     0.103 C 
HETATM    5  C11 UNL     1      27.576   4.481  48.819  1.00  0.00     0.034 A 
HETATM    6  C12 UNL     1      27.512   5.722  48.279  1.00  0.00     0.094 A 
HETATM    7  N4  UNL     1      26.332   6.358  48.814  1.00  0.00    -0.337 N 
ENDROOT
BRANCH   4   8
HETATM    8  N3  UNL     1      25.267   2.878  51.270  1.00  0.00    -0.365 N 
HETATM    9  H6  UNL     1      24.527   3.583  51.427  1.00  0.00     0.165 HD
BRANCH   8  10
HETATM   10  C5  UNL     1      25.274   1.630  51.928  1.00  0.00     0.033 A 
HETATM   11  C6  UNL     1      26.390   0.836  51.897  1.00  0.00     0.029 A 
HETATM   12  C7  UNL     1      26.644  -0.412  52.458  1.00  0.00     0.004 A 
HETATM   13  C8  UNL     1      25.504  -0.841  53.152  1.00  0.00     0.019 A 
HETATM   14  C9  UNL     1      24.293  -0.168  53.288  1.00  0.00     0.013 A 
HETATM   15 BR1  UNL     1      22.824  -0.871  54.263  1.00  0.00    -0.051 Br
HETATM   16  C10 UNL     1      24.270   1.048  52.646  1.00  0.00     0.048 A 
ENDBRANCH   8  10
ENDBRANCH   4   8
BRANCH   1  17
HETATM   17  C1  UNL     1      23.669   6.592  50.629  1.00  0.00     0.417 C 
BRANCH  17  18
HETATM   18  N1  UNL     1      24.138   7.642  51.542  1.00  0.00     0.097 N 
HETATM   19  H1  UNL     1      25.092   7.432  51.923  1.00  0.00     0.315 HD
HETATM   20  H2  UNL     1      24.081   8.587  51.088  1.00  0.00     0.315 HD
ENDBRANCH  17  18
ENDBRANCH   1  17
BRANCH   7  21
HETATM   21  C13 UNL     1      25.937   7.691  48.396  1.00  0.00     0.170 C 
BRANCH  21  22
HETATM   22  C14 UNL     1      27.127   8.605  48.409  1.00  0.00    -0.018 A 
HETATM   23  C15 UNL     1      27.494   8.980  49.708  1.00  0.00     0.012 A 
HETATM   24  C16 UNL     1      28.556   9.834  49.857  1.00  0.00     0.024 A 
HETATM   25  C17 UNL     1      29.320  10.375  48.850  1.00  0.00     0.035 A 
HETATM   26 CL1  UNL     1      30.656  11.453  49.105  1.00  0.00    -0.084 Cl
HETATM   27  C18 UNL     1      28.923   9.977  47.558  1.00  0.00     0.048 A 
HETATM   28  C19 UNL     1      27.866   9.125  47.377  1.00  0.00     0.043 A 
HETATM   29 CL2  UNL     1      27.311   8.564  45.802  1.00  0.00    -0.084 Cl
ENDBRANCH  21  22
ENDBRANCH   7  21
TORSDOF 6
ENDMDL
MODEL 2
REMARK VINA RESULT:      -7.8      1.721      3.034
REMARK  6 active torsions:
REMARK  status: ('A' for Active; 'I' for Inactive)
REMARK    1  A    between atoms: N1_1  and  C1_2 
REMARK    2  A    between atoms: C1_2  and  N2_3 
REMARK    3  A    between atoms: C4_6  and  N3_7 
REMARK    4  A    between atoms: N3_7  and  C5_8 
REMARK    5  A    between atoms: N4_17  and  C13_18 
REMARK    6  A    between atoms: C13_18  and  C14_19 
ROOT
HETATM    1  N2  UNL     1      24.708   5.766  50.232  1.00  0.00    -0.242 NA
HETATM    2  C2  UNL     1      25.774   5.716  49.564  1.00  0.00     0.138 A 
HETATM    3  C3  UNL     1      26.516   4.461  49.517  1.00  0.00     0.026 A 
HETATM    4  C4  UNL     1      26.376   3.247  50.028  1.00  0.00     0.103 C 
HETATM    5  C11 UNL     1      27.704   4.737  48.681  1.00  0.00     0.034 A 
HETATM    6  C12 UNL     1      27.699   6.023  48.254  1.00  0.00     0.094 A 
HETATM    7  N4  UNL     1      26.511   6.644  48.788  1.00  0.00    -0.337 N 
ENDROOT
BRANCH   4   8
HETATM    8  N3  UNL     1      25.236   2.990  50.863  1.00  0.00    -0.365 N 
HETATM    9  H6  UNL     1      24.418   3.623  50.903  1.00  0.00     0.165 HD
BRANCH   8  10
HETATM   10  C5  UNL     1      25.309   1.801  51.617  1.00  0.00     0.033 A 
HETATM   11  C6  UNL     1      26.486   1.104  51.701  1.00  0.00     0.029 A 
HETATM   12  C7  UNL     1      26.809  -0.072  52.370  1.00  0.00     0.004 A 
HETATM   13  C8  UNL     1      25.673  -0.543  53.043  1.00  0.00     0.019 A 
HETATM   14  C9  UNL     1      24.405   0.033  53.068  1.00  0.00     0.013 A 
HETATM   15 BR1  UNL     1      22.949  -0.717  54.026  1.00  0.00    -0.051 Br
HETATM   16  C10 UNL     1      24.319   1.191  52.332  1.00  0.00     0.048 A 
ENDBRANCH   8  10
ENDBRANCH   4   8
BRANCH   1  17
HETATM   17  C1  UNL     1      23.767   6.794  50.488  1.00  0.00     0.417 C 
BRANCH  17  18
HETATM   18  N1  UNL     1      24.188   7.705  51.559  1.00  0.00     0.097 N 
HETATM   19  H1  UNL     1      23.856   7.383  52.500  1.00  0.00     0.315 HD
HETATM   20  H2  UNL     1      25.225   7.866  51.529  1.00  0.00     0.315 HD
ENDBRANCH  17  18
ENDBRANCH   1  17
BRANCH   7  21
HETATM   21  C13 UNL     1      26.171   8.020  48.475  1.00  0.00     0.170 C 
BRANCH  21  22
HETATM   22  C14 UNL     1      25.721   8.124  47.046  1.00  0.00    -0.018 A 
HETATM   23  C15 UNL     1      24.390   7.723  46.879  1.00  0.00     0.012 A 
HETATM   24  C16 UNL     1      23.863   7.749  45.613  1.00  0.00     0.024 A 
HETATM   25  C17 UNL     1      24.512   8.134  44.464  1.00  0.00     0.035 A 
HETATM   26 CL1  UNL     1      23.786   8.144  42.887  1.00  0.00    -0.084 Cl
HETATM   27  C18 UNL     1      25.848   8.530  44.669  1.00  0.00     0.048 A 
HETATM   28  C19 UNL     1      26.402   8.515  45.922  1.00  0.00     0.043 A 
HETATM   29 CL2  UNL     1      28.057   9.007  46.273  1.00  0.00    -0.084 Cl
ENDBRANCH  21  22
ENDBRANCH   7  21
TORSDOF 6
ENDMDL
MODEL 3
REMARK VINA RESULT:      -7.7      2.879      4.223
REMARK  6 active torsions:
REMARK  status: ('A' for Active; 'I' for Inactive)
REMARK    1  A    between atoms: N1_1  and  C1_2 
REMARK    2  A    between atoms: C1_2  and  N2_3 
REMARK    3  A    between atoms: C4_6  and  N3_7 
REMARK    4  A    between atoms: N3_7  and  C5_8 
REMARK    5  A    between atoms: N4_17  and  C13_18 
REMARK    6  A    between atoms: C13_18  and  C14_19 
ROOT
HETATM    1  N2  UNL     1      22.203   3.800  51.807  1.00  0.00    -0.242 NA
HETATM    2  C2  UNL     1      22.408   3.504  50.601  1.00  0.00     0.138 A 
HETATM    3  C3  UNL     1      22.089   2.155  50.145  1.00  0.00     0.026 A 
HETATM    4  C4  UNL     1      21.604   1.050  50.691  1.00  0.00     0.103 C 
HETATM    5  C11 UNL     1      22.456   2.127  48.713  1.00  0.00     0.034 A 
HETATM    6  C12 UNL     1      22.946   3.328  48.322  1.00  0.00     0.094 A 
HETATM    7  N4  UNL     1      22.921   4.194  49.476  1.00  0.00    -0.337 N 
ENDROOT
BRANCH   4   8
HETATM    8  N3  UNL     1      21.275   1.072  52.089  1.00  0.00    -0.365 N 
HETATM    9  H6  UNL     1      20.439   1.556  52.459  1.00  0.00     0.165 HD
BRANCH   8  10
HETATM   10  C5  UNL     1      22.174   0.373  52.920  1.00  0.00     0.033 A 
HETATM   11  C6  UNL     1      21.718  -0.301  54.024  1.00  0.00     0.029 A 
HETATM   12  C7  UNL     1      22.390  -1.053  54.982  1.00  0.00     0.004 A 
HETATM   13  C8  UNL     1      23.758  -1.064  54.677  1.00  0.00     0.019 A 
HETATM   14  C9  UNL     1      24.392  -0.440  53.606  1.00  0.00     0.013 A 
HETATM   15 BR1  UNL     1      26.265  -0.538  53.313  1.00  0.00    -0.051 Br
HETATM   16  C10 UNL     1      23.527   0.250  52.789  1.00  0.00     0.048 A 
ENDBRANCH   8  10
ENDBRANCH   4   8
BRANCH   1  17
HETATM   17  C1  UNL     1      22.395   4.982  52.566  1.00  0.00     0.417 C 
BRANCH  17  18
HETATM   18  N1  UNL     1      23.783   5.162  53.006  1.00  0.00     0.097 N 
HETATM   19  H1  UNL     1      23.842   5.684  53.914  1.00  0.00     0.315 HD
HETATM   20  H2  UNL     1      24.291   4.243  53.033  1.00  0.00     0.315 HD
ENDBRANCH  17  18
ENDBRANCH   1  17
BRANCH   7  21
HETATM   21  C13 UNL     1      23.336   5.583  49.389  1.00  0.00     0.170 C 
BRANCH  21  22
HETATM   22  C14 UNL     1      24.788   5.660  49.017  1.00  0.00    -0.018 A 
HETATM   23  C15 UNL     1      25.505   4.535  49.442  1.00  0.00     0.012 A 
HETATM   24  C16 UNL     1      26.851   4.492  49.183  1.00  0.00     0.024 A 
HETATM   25  C17 UNL     1      27.591   5.454  48.537  1.00  0.00     0.035 A 
HETATM   26 CL1  UNL     1      29.298   5.340  48.240  1.00  0.00    -0.084 Cl
HETATM   27  C18 UNL     1      26.839   6.572  48.125  1.00  0.00     0.048 A 
HETATM   28  C19 UNL     1      25.493   6.642  48.369  1.00  0.00     0.043 A 
HETATM   29 CL2  UNL     1      24.472   7.991  47.877  1.00  0.00    -0.084 Cl
ENDBRANCH  21  22
ENDBRANCH   7  21
TORSDOF 6
ENDMDL
MODEL 4
REMARK VINA RESULT:      -7.7      4.807      8.407
REMARK  6 active torsions:
REMARK  status: ('A' for Active; 'I' for Inactive)
REMARK    1  A    between atoms: N1_1  and  C1_2 
REMARK    2  A    between atoms: C1_2  and  N2_3 
REMARK    3  A    between atoms: C4_6  and  N3_7 
REMARK    4  A    between atoms: N3_7  and  C5_8 
REMARK    5  A    between atoms: N4_17  and  C13_18 
REMARK    6  A    between atoms: C13_18  and  C14_19 
ROOT
HETATM    1  N2  UNL     1      23.344   4.457  51.411  1.00  0.00    -0.242 NA
HETATM    2  C2  UNL     1      22.976   3.432  50.779  1.00  0.00     0.138 A 
HETATM    3  C3  UNL     1      22.891   3.496  49.323  1.00  0.00     0.026 A 
HETATM    4  C4  UNL     1      23.108   4.413  48.393  1.00  0.00     0.103 C 
HETATM    5  C11 UNL     1      22.422   2.161  48.898  1.00  0.00     0.034 A 
HETATM    6  C12 UNL     1      22.238   1.354  49.971  1.00  0.00     0.094 A 
HETATM    7  N4  UNL     1      22.579   2.122  51.144  1.00  0.00    -0.337 N 
ENDROOT
BRANCH   4   8
HETATM    8  N3  UNL     1      23.537   5.718  48.812  1.00  0.00    -0.365 N 
HETATM    9  H6  UNL     1      22.899   6.400  49.258  1.00  0.00     0.165 HD
BRANCH   8  10
HETATM   10  C5  UNL     1      24.900   5.997  48.581  1.00  0.00     0.033 A 
HETATM   11  C6  UNL     1      25.866   5.100  48.956  1.00  0.00     0.029 A 
HETATM   12  C7  UNL     1      27.251   5.141  48.837  1.00  0.00     0.004 A 
HETATM   13  C8  UNL     1      27.622   6.342  48.217  1.00  0.00     0.019 A 
HETATM   14  C9  UNL     1      26.781   7.360  47.773  1.00  0.00     0.013 A 
HETATM   15 BR1  UNL     1      27.423   8.942  46.944  1.00  0.00    -0.051 Br
HETATM   16  C10 UNL     1      25.449   7.102  47.997  1.00  0.00     0.048 A 
ENDBRANCH   8  10
ENDBRANCH   4   8
BRANCH   1  17
HETATM   17  C1  UNL     1      23.530   4.737  52.787  1.00  0.00     0.417 C 
BRANCH  17  18
HETATM   18  N1  UNL     1      24.167   6.037  53.028  1.00  0.00     0.097 N 
HETATM   19  H1  UNL     1      24.520   6.125  54.012  1.00  0.00     0.315 HD
HETATM   20  H2  UNL     1      24.911   6.228  52.312  1.00  0.00     0.315 HD
ENDBRANCH  17  18
ENDBRANCH   1  17
BRANCH   7  21
HETATM   21  C13 UNL     1      22.541   1.534  52.470  1.00  0.00     0.170 C 
BRANCH  21  22
HETATM   22  C14 UNL     1      23.817   0.791  52.737  1.00  0.00    -0.018 A 
HETATM   23  C15 UNL     1      24.903   1.335  52.040  1.00  0.00     0.012 A 
HETATM   24  C16 UNL     1      26.127   0.733  52.180  1.00  0.00     0.024 A 
HETATM   25  C17 UNL     1      26.412  -0.372  52.947  1.00  0.00     0.035 A 
HETATM   26 CL1  UNL     1      27.987  -1.089  53.082  1.00  0.00    -0.084 Cl
HETATM   27  C18 UNL     1      25.298  -0.894  53.633  1.00  0.00     0.048 A 
HETATM   28  C19 UNL     1      24.063  -0.312  53.513  1.00  0.00     0.043 A 
HETATM   29 CL2  UNL     1      22.619  -0.886  54.344  1.00  0.00    -0.084 Cl
ENDBRANCH  21  22
ENDBRANCH   7  21
TORSDOF 6
ENDMDL
MODEL 5
REMARK VINA RESULT:      -7.4      1.593      2.066
REMARK  6 active torsions:
REMARK  status: ('A' for Active; 'I' for Inactive)
REMARK    1  A    between atoms: N1_1  and  C1_2 
REMARK    2  A    between atoms: C1_2  and  N2_3 
REMARK    3  A    between atoms: C4_6  and  N3_7 
REMARK    4  A    between atoms: N3_7  and  C5_8 
REMARK    5  A    between atoms: N4_17  and  C13_18 
REMARK    6  A    between atoms: C13_18  and  C14_19 
ROOT
HETATM    1  N2  UNL     1      24.851   5.872  50.075  1.00  0.00    -0.242 NA
HETATM    2  C2  UNL     1      25.917   5.794  49.411  1.00  0.00     0.138 A 
HETATM    3  C3  UNL     1      26.688   4.556  49.460  1.00  0.00     0.026 A 
HETATM    4  C4  UNL     1      26.576   3.384  50.065  1.00  0.00     0.103 C 
HETATM    5  C11 UNL     1      27.869   4.794  48.603  1.00  0.00     0.034 A 
HETATM    6  C12 UNL     1      27.834   6.042  48.077  1.00  0.00     0.094 A 
HETATM    7  N4  UNL     1      26.632   6.676  48.563  1.00  0.00    -0.337 N 
ENDROOT
BRANCH   4   8
HETATM    8  N3  UNL     1      25.442   3.166  50.919  1.00  0.00    -0.365 N 
HETATM    9  H6  UNL     1      24.640   3.818  50.961  1.00  0.00     0.165 HD
BRANCH   8  10
HETATM   10  C5  UNL     1      25.498   1.987  51.691  1.00  0.00     0.033 A 
HETATM   11  C6  UNL     1      24.348   1.417  52.172  1.00  0.00     0.029 A 
HETATM   12  C7  UNL     1      24.142   0.276  52.940  1.00  0.00     0.004 A 
HETATM   13  C8  UNL     1      25.381  -0.320  53.215  1.00  0.00     0.019 A 
HETATM   14  C9  UNL     1      26.639   0.118  52.810  1.00  0.00     0.013 A 
HETATM   15 BR1  UNL     1      28.244  -0.792  53.257  1.00  0.00    -0.051 Br
HETATM   16  C10 UNL     1      26.599   1.270  52.061  1.00  0.00     0.048 A 
ENDBRANCH   8  10
ENDBRANCH   4   8
BRANCH   1  17
HETATM   17  C1  UNL     1      23.886   6.894  50.252  1.00  0.00     0.417 C 
BRANCH  17  18
HETATM   18  N1  UNL     1      24.116   7.700  51.457  1.00  0.00     0.097 N 
HETATM   19  H1  UNL     1      24.056   7.123  52.331  1.00  0.00     0.315 HD
HETATM   20  H2  UNL     1      25.018   8.233  51.385  1.00  0.00     0.315 HD
ENDBRANCH  17  18
ENDBRANCH   1  17
BRANCH   7  21
HETATM   21  C13 UNL     1      26.260   8.015  48.145  1.00  0.00     0.170 C 
BRANCH  21  22
HETATM   22  C14 UNL     1      27.475   8.896  48.115  1.00  0.00    -0.018 A 
HETATM   23  C15 UNL     1      27.995   9.039  46.822  1.00  0.00     0.012 A 
HETATM   24  C16 UNL     1      29.122   9.804  46.661  1.00  0.00     0.024 A 
HETATM   25  C17 UNL     1      29.813  10.462  47.651  1.00  0.00     0.035 A 
HETATM   26 CL1  UNL     1      31.237  11.417  47.381  1.00  0.00    -0.084 Cl
HETATM   27  C18 UNL     1      29.264  10.296  48.937  1.00  0.00     0.048 A 
HETATM   28  C19 UNL     1      28.139   9.538  49.129  1.00  0.00     0.043 A 
HETATM   29 CL2  UNL     1      27.375   9.289  50.697  1.00  0.00    -0.084 Cl
ENDBRANCH  21  22
ENDBRANCH   7  21
TORSDOF 6
ENDMDL
MODEL 6
REMARK VINA RESULT:      -7.3      2.019      2.577
REMARK  6 active torsions:
REMARK  status: ('A' for Active; 'I' for Inactive)
REMARK    1  A    between atoms: N1_1  and  C1_2 
REMARK    2  A    between atoms: C1_2  and  N2_3 
REMARK    3  A    between atoms: C4_6  and  N3_7 
REMARK    4  A    between atoms: N3_7  and  C5_8 
REMARK    5  A    between atoms: N4_17  and  C13_18 
REMARK    6  A    between atoms: C13_18  and  C14_19 
ROOT
HETATM    1  N2  UNL     1      23.690   5.067  50.755  1.00  0.00    -0.242 NA
HETATM    2  C2  UNL     1      24.790   4.653  50.304  1.00  0.00     0.138 A 
HETATM    3  C3  UNL     1      25.348   3.416  50.839  1.00  0.00     0.026 A 
HETATM    4  C4  UNL     1      24.995   2.524  51.752  1.00  0.00     0.103 C 
HETATM    5  C11 UNL     1      26.628   3.221  50.126  1.00  0.00     0.034 A 
HETATM    6  C12 UNL     1      26.841   4.225  49.242  1.00  0.00     0.094 A 
HETATM    7  N4  UNL     1      25.712   5.120  49.335  1.00  0.00    -0.337 N 
ENDROOT
BRANCH   4   8
HETATM    8  N3  UNL     1      23.765   2.732  52.464  1.00  0.00    -0.365 N 
HETATM    9  H6  UNL     1      23.441   3.669  52.759  1.00  0.00     0.165 HD
BRANCH   8  10
HETATM   10  C5  UNL     1      23.023   1.560  52.720  1.00  0.00     0.033 A 
HETATM   11  C6  UNL     1      23.625   0.468  53.287  1.00  0.00     0.029 A 
HETATM   12  C7  UNL     1      23.119  -0.781  53.635  1.00  0.00     0.004 A 
HETATM   13  C8  UNL     1      21.756  -0.828  53.312  1.00  0.00     0.019 A 
HETATM   14  C9  UNL     1      20.988   0.180  52.735  1.00  0.00     0.013 A 
HETATM   15 BR1  UNL     1      19.140  -0.022  52.349  1.00  0.00    -0.051 Br
HETATM   16  C10 UNL     1      21.701   1.326  52.475  1.00  0.00     0.048 A 
ENDBRANCH   8  10
ENDBRANCH   4   8
BRANCH   1  17
HETATM   17  C1  UNL     1      22.885   6.198  50.471  1.00  0.00     0.417 C 
BRANCH  17  18
HETATM   18  N1  UNL     1      21.914   6.494  51.531  1.00  0.00     0.097 N 
HETATM   19  H1  UNL     1      21.974   5.805  52.320  1.00  0.00     0.315 HD
HETATM   20  H2  UNL     1      22.004   7.489  51.855  1.00  0.00     0.315 HD
ENDBRANCH  17  18
ENDBRANCH   1  17
BRANCH   7  21
HETATM   21  C13 UNL     1      25.598   6.285  48.477  1.00  0.00     0.170 C 
BRANCH  21  22
HETATM   22  C14 UNL     1      26.696   7.259  48.789  1.00  0.00    -0.018 A 
HETATM   23  C15 UNL     1      27.897   6.927  48.149  1.00  0.00     0.012 A 
HETATM   24  C16 UNL     1      28.989   7.726  48.370  1.00  0.00     0.024 A 
HETATM   25  C17 UNL     1      29.036   8.845  49.168  1.00  0.00     0.035 A 
HETATM   26 CL1  UNL     1      30.454   9.818  49.406  1.00  0.00    -0.084 Cl
HETATM   27  C18 UNL     1      27.812   9.150  49.796  1.00  0.00     0.048 A 
HETATM   28  C19 UNL     1      26.705   8.369  49.594  1.00  0.00     0.043 A 
HETATM   29 CL2  UNL     1      25.132   8.683  50.325  1.00  0.00    -0.084 Cl
ENDBRANCH  21  22
ENDBRANCH   7  21
TORSDOF 6
ENDMDL
MODEL 7
REMARK VINA RESULT:      -7.3      4.527      8.502
REMARK  6 active torsions:
REMARK  status: ('A' for Active; 'I' for Inactive)
REMARK    1  A    between atoms: N1_1  and  C1_2 
REMARK    2  A    between atoms: C1_2  and  N2_3 
REMARK    3  A    between atoms: C4_6  and  N3_7 
REMARK    4  A    between atoms: N3_7  and  C5_8 
REMARK    5  A    between atoms: N4_17  and  C13_18 
REMARK    6  A    between atoms: C13_18  and  C14_19 
ROOT
HETATM    1  N2  UNL     1      23.253   3.624  49.494  1.00  0.00    -0.242 NA
HETATM    2  C2  UNL     1      23.382   3.748  50.740  1.00  0.00     0.138 A 
HETATM    3  C3  UNL     1      23.548   5.086  51.300  1.00  0.00     0.026 A 
HETATM    4  C4  UNL     1      23.610   6.320  50.825  1.00  0.00     0.103 C 
HETATM    5  C11 UNL     1      23.688   4.887  52.758  1.00  0.00     0.034 A 
HETATM    6  C12 UNL     1      23.615   3.571  53.070  1.00  0.00     0.094 A 
HETATM    7  N4  UNL     1      23.423   2.850  51.834  1.00  0.00    -0.337 N 
ENDROOT
BRANCH   4   8
HETATM    8  N3  UNL     1      23.502   6.507  49.405  1.00  0.00    -0.365 N 
HETATM    9  H6  UNL     1      22.609   6.398  48.893  1.00  0.00     0.165 HD
BRANCH   8  10
HETATM   10  C5  UNL     1      24.704   6.863  48.760  1.00  0.00     0.033 A 
HETATM   11  C6  UNL     1      24.763   7.982  47.970  1.00  0.00     0.029 A 
HETATM   12  C7  UNL     1      25.811   8.537  47.242  1.00  0.00     0.004 A 
HETATM   13  C8  UNL     1      26.955   7.745  47.412  1.00  0.00     0.019 A 
HETATM   14  C9  UNL     1      27.076   6.585  48.173  1.00  0.00     0.013 A 
HETATM   15 BR1  UNL     1      28.697   5.607  48.315  1.00  0.00    -0.051 Br
HETATM   16  C10 UNL     1      25.909   6.223  48.803  1.00  0.00     0.048 A 
ENDBRANCH   8  10
ENDBRANCH   4   8
BRANCH   1  17
HETATM   17  C1  UNL     1      23.080   2.507  48.640  1.00  0.00     0.417 C 
BRANCH  17  18
HETATM   18  N1  UNL     1      21.689   2.043  48.575  1.00  0.00     0.097 N 
HETATM   19  H1  UNL     1      21.039   2.797  48.244  1.00  0.00     0.315 HD
HETATM   20  H2  UNL     1      21.613   1.164  48.006  1.00  0.00     0.315 HD
ENDBRANCH  17  18
ENDBRANCH   1  17
BRANCH   7  21
HETATM   21  C13 UNL     1      23.252   1.409  51.818  1.00  0.00     0.170 C 
BRANCH  21  22
HETATM   22  C14 UNL     1      24.489   0.741  52.342  1.00  0.00    -0.018 A 
HETATM   23  C15 UNL     1      25.645   1.168  51.677  1.00  0.00     0.012 A 
HETATM   24  C16 UNL     1      26.845   0.616  52.047  1.00  0.00     0.024 A 
HETATM   25  C17 UNL     1      27.042  -0.332  53.023  1.00  0.00     0.035 A 
HETATM   26 CL1  UNL     1      28.591  -0.993  53.445  1.00  0.00    -0.084 Cl
HETATM   27  C18 UNL     1      25.860  -0.739  53.671  1.00  0.00     0.048 A 
HETATM   28  C19 UNL     1      24.647  -0.205  53.323  1.00  0.00     0.043 A 
HETATM   29 CL2  UNL     1      23.122  -0.642  54.089  1.00  0.00    -0.084 Cl
ENDBRANCH  21  22
ENDBRANCH   7  21
TORSDOF 6
ENDMDL
MODEL 8
REMARK VINA RESULT:      -7.3      4.808      8.596
REMARK  6 active torsions:
REMARK  status: ('A' for Active; 'I' for Inactive)
REMARK    1  A    between atoms: N1_1  and  C1_2 
REMARK    2  A    between atoms: C1_2  and  N2_3 
REMARK    3  A    between atoms: C4_6  and  N3_7 
REMARK    4  A    between atoms: N3_7  and  C5_8 
REMARK    5  A    between atoms: N4_17  and  C13_18 
REMARK    6  A    between atoms: C13_18  and  C14_19 
ROOT
HETATM    1  N2  UNL     1      24.972   5.604  50.357  1.00  0.00    -0.242 NA
HETATM    2  C2  UNL     1      25.279   4.406  50.588  1.00  0.00     0.138 A 
HETATM    3  C3  UNL     1      26.412   3.820  49.879  1.00  0.00     0.026 A 
HETATM    4  C4  UNL     1      27.288   4.229  48.974  1.00  0.00     0.103 C 
HETATM    5  C11 UNL     1      26.495   2.423  50.356  1.00  0.00     0.034 A 
HETATM    6  C12 UNL     1      25.522   2.169  51.263  1.00  0.00     0.094 A 
HETATM    7  N4  UNL     1      24.761   3.385  51.423  1.00  0.00    -0.337 N 
ENDROOT
BRANCH   4   8
HETATM    8  N3  UNL     1      27.187   5.578  48.493  1.00  0.00    -0.365 N 
HETATM    9  H6  UNL     1      26.300   6.111  48.502  1.00  0.00     0.165 HD
BRANCH   8  10
HETATM   10  C5  UNL     1      28.394   6.130  48.016  1.00  0.00     0.033 A 
HETATM   11  C6  UNL     1      28.393   7.322  47.339  1.00  0.00     0.029 A 
HETATM   12  C7  UNL     1      29.431   8.061  46.781  1.00  0.00     0.004 A 
HETATM   13  C8  UNL     1      30.641   7.389  47.003  1.00  0.00     0.019 A 
HETATM   14  C9  UNL     1      30.828   6.178  47.666  1.00  0.00     0.013 A 
HETATM   15 BR1  UNL     1      32.534   5.378  47.895  1.00  0.00    -0.051 Br
HETATM   16  C10 UNL     1      29.658   5.627  48.132  1.00  0.00     0.048 A 
ENDBRANCH   8  10
ENDBRANCH   4   8
BRANCH   1  17
HETATM   17  C1  UNL     1      23.959   6.463  50.851  1.00  0.00     0.417 C 
BRANCH  17  18
HETATM   18  N1  UNL     1      24.313   7.092  52.130  1.00  0.00     0.097 N 
HETATM   19  H1  UNL     1      25.348   7.084  52.297  1.00  0.00     0.315 HD
HETATM   20  H2  UNL     1      23.897   8.053  52.202  1.00  0.00     0.315 HD
ENDBRANCH  17  18
ENDBRANCH   1  17
BRANCH   7  21
HETATM   21  C13 UNL     1      23.665   3.472  52.370  1.00  0.00     0.170 C 
BRANCH  21  22
HETATM   22  C14 UNL     1      22.497   2.669  51.877  1.00  0.00    -0.018 A 
HETATM   23  C15 UNL     1      21.731   3.369  50.937  1.00  0.00     0.012 A 
HETATM   24  C16 UNL     1      20.619   2.752  50.423  1.00  0.00     0.024 A 
HETATM   25  C17 UNL     1      20.163   1.493  50.735  1.00  0.00     0.035 A 
HETATM   26 CL1  UNL     1      18.744   0.767  50.048  1.00  0.00    -0.084 Cl
HETATM   27  C18 UNL     1      20.957   0.818  51.684  1.00  0.00     0.048 A 
HETATM   28  C19 UNL     1      22.073   1.409  52.214  1.00  0.00     0.043 A 
HETATM   29 CL2  UNL     1      23.132   0.635  53.391  1.00  0.00    -0.084 Cl
ENDBRANCH  21  22
ENDBRANCH   7  21
TORSDOF 6
ENDMDL
MODEL 9
REMARK VINA RESULT:      -7.2      5.233      8.293
REMARK  6 active torsions:
REMARK  status: ('A' for Active; 'I' for Inactive)
REMARK    1  A    between atoms: N1_1  and  C1_2 
REMARK    2  A    between atoms: C1_2  and  N2_3 
REMARK    3  A    between atoms: C4_6  and  N3_7 
REMARK    4  A    between atoms: N3_7  and  C5_8 
REMARK    5  A    between atoms: N4_17  and  C13_18 
REMARK    6  A    between atoms: C13_18  and  C14_19 
ROOT
HETATM    1  N2  UNL     1      22.894   2.118  51.593  1.00  0.00    -0.242 NA
HETATM    2  C2  UNL     1      24.023   2.520  51.209  1.00  0.00     0.138 A 
HETATM    3  C3  UNL     1      24.164   3.027  49.847  1.00  0.00     0.026 A 
HETATM    4  C4  UNL     1      23.367   3.197  48.804  1.00  0.00     0.103 C 
HETATM    5  C11 UNL     1      25.589   3.394  49.710  1.00  0.00     0.034 A 
HETATM    6  C12 UNL     1      26.260   3.145  50.860  1.00  0.00     0.094 A 
HETATM    7  N4  UNL     1      25.308   2.606  51.800  1.00  0.00    -0.337 N 
ENDROOT
BRANCH   4   8
HETATM    8  N3  UNL     1      21.989   2.813  48.932  1.00  0.00    -0.365 N 
HETATM    9  H6  UNL     1      21.685   1.825  48.975  1.00  0.00     0.165 HD
BRANCH   8  10
HETATM   10  C5  UNL     1      21.079   3.888  49.007  1.00  0.00     0.033 A 
HETATM   11  C6  UNL     1      19.764   3.708  48.662  1.00  0.00     0.029 A 
HETATM   12  C7  UNL     1      18.690   4.593  48.653  1.00  0.00     0.004 A 
HETATM   13  C8  UNL     1      19.129   5.851  49.087  1.00  0.00     0.019 A 
HETATM   14  C9  UNL     1      20.418   6.210  49.474  1.00  0.00     0.013 A 
HETATM   15 BR1  UNL     1      20.875   7.962  50.044  1.00  0.00    -0.051 Br
HETATM   16  C10 UNL     1      21.317   5.172  49.401  1.00  0.00     0.048 A 
ENDBRANCH   8  10
ENDBRANCH   4   8
BRANCH   1  17
HETATM   17  C1  UNL     1      22.416   1.578  52.812  1.00  0.00     0.417 C 
BRANCH  17  18
HETATM   18  N1  UNL     1      22.443   0.110  52.840  1.00  0.00     0.097 N 
HETATM   19  H1  UNL     1      22.199  -0.304  51.908  1.00  0.00     0.315 HD
HETATM   20  H2  UNL     1      23.360  -0.241  53.212  1.00  0.00     0.315 HD
ENDBRANCH  17  18
ENDBRANCH   1  17
BRANCH   7  21
HETATM   21  C13 UNL     1      25.691   2.276  53.161  1.00  0.00     0.170 C 
BRANCH  21  22
HETATM   22  C14 UNL     1      26.623   1.099  53.158  1.00  0.00    -0.018 A 
HETATM   23  C15 UNL     1      25.957  -0.103  52.889  1.00  0.00     0.012 A 
HETATM   24  C16 UNL     1      26.693  -1.261  52.880  1.00  0.00     0.024 A 
HETATM   25  C17 UNL     1      28.045  -1.373  53.110  1.00  0.00     0.035 A 
HETATM   26 CL1  UNL     1      28.920  -2.871  53.083  1.00  0.00    -0.084 Cl
HETATM   27  C18 UNL     1      28.682  -0.145  53.377  1.00  0.00     0.048 A 
HETATM   28  C19 UNL     1      27.972   1.027  53.392  1.00  0.00     0.043 A 
HETATM   29 CL2  UNL     1      28.688   2.607  53.701  1.00  0.00    -0.084 Cl
ENDBRANCH  21  22
ENDBRANCH   7  21
TORSDOF 6
ENDMDL
