MODEL 1
REMARK VINA RESULT:      -8.3      0.000      0.000
REMARK  6 active torsions:
REMARK  status: ('A' for Active; 'I' for Inactive)
REMARK    1  A    between atoms: C6_6  and  C7_7 
REMARK    2  A    between atoms: C7_7  and  N1_8 
REMARK    3  A    between atoms: N1_8  and  C8_9 
REMARK    4  A    between atoms: C13_16  and  C14_17 
REMARK    5  A    between atoms: C14_17  and  N4_18 
REMARK    6  A    between atoms: C17_21  and  N5_22 
ROOT
HETATM    1  C1  UNL     1      28.469   9.439  46.792  1.00  0.00     0.018 C 
HETATM    2  C2  UNL     1      28.084   8.413  47.295  1.00  0.00    -0.077 C 
HETATM    3  C3  UNL     1      27.627   7.162  47.884  1.00  0.00     0.018 A 
HETATM    4  C4  UNL     1      28.490   6.193  48.031  1.00  0.00     0.021 A 
HETATM    5  C5  UNL     1      28.011   4.949  48.620  1.00  0.00     0.006 A 
HETATM    6  C6  UNL     1      26.805   4.670  49.028  1.00  0.00    -0.058 A 
HETATM    7  C20 UNL     1      25.559   5.446  49.048  1.00  0.00     0.072 A 
HETATM    8  P1  UNL     1      25.862   7.124  48.344  1.00  0.00    -0.081 P 
HETATM    9  H26 UNL     1      25.614   8.151  49.314  1.00  0.00     0.063 HD
ENDROOT
BRANCH   6  10
HETATM   10  C7  UNL     1      26.527   3.350  49.597  1.00  0.00     0.155 C 
BRANCH  10  11
HETATM   11  N1  UNL     1      26.160   3.353  50.979  1.00  0.00    -0.371 N 
HETATM   12  H6  UNL     1      26.772   3.880  51.665  1.00  0.00     0.161 HD
BRANCH  11  13
HETATM   13  C8  UNL     1      25.027   2.698  51.529  1.00  0.00     0.129 A 
HETATM   14  N2  UNL     1      23.928   3.374  51.346  1.00  0.00    -0.252 NA
HETATM   15  C9  UNL     1      22.635   2.965  51.789  1.00  0.00     0.289 A 
HETATM   16  N3  UNL     1      22.673   1.690  52.465  1.00  0.00    -0.298 N 
HETATM   17  C10 UNL     1      21.489   1.131  52.957  1.00  0.00     0.003 C 
HETATM   18  C12 UNL     1      23.872   0.957  52.663  1.00  0.00     0.115 A 
HETATM   19  C11 UNL     1      20.459   0.624  53.384  1.00  0.00     0.037 C 
HETATM   20  C13 UNL     1      25.040   1.399  52.230  1.00  0.00     0.021 A 
BRANCH  20  21
HETATM   21  C14 UNL     1      26.398   0.853  52.312  1.00  0.00     0.161 C 
BRANCH  21  22
HETATM   22  N4  UNL     1      26.525  -0.001  53.436  1.00  0.00    -0.408 N 
HETATM   23  C15 UNL     1      27.015   0.576  54.642  1.00  0.00     0.119 C 
HETATM   24  C16 UNL     1      28.396   0.161  55.057  1.00  0.00     0.055 C 
HETATM   25  C17 UNL     1      29.247  -0.447  54.009  1.00  0.00     0.221 C 
HETATM   26  C18 UNL     1      28.558  -1.299  52.997  1.00  0.00     0.055 C 
HETATM   27  C19 UNL     1      27.057  -1.302  53.141  1.00  0.00     0.119 C 
BRANCH  25  28
HETATM   28  N5  UNL     1      30.105   0.584  53.411  1.00  0.00     0.083 N 
HETATM   29  H18 UNL     1      29.576   1.504  53.421  1.00  0.00     0.313 HD
HETATM   30  H19 UNL     1      30.183   0.325  52.386  1.00  0.00     0.313 HD
ENDBRANCH  25  28
ENDBRANCH  21  22
ENDBRANCH  20  21
ENDBRANCH  11  13
ENDBRANCH  10  11
ENDBRANCH   6  10
TORSDOF 6
ENDMDL
MODEL 2
REMARK VINA RESULT:      -7.9      3.228      8.718
REMARK  6 active torsions:
REMARK  status: ('A' for Active; 'I' for Inactive)
REMARK    1  A    between atoms: C6_6  and  C7_7 
REMARK    2  A    between atoms: C7_7  and  N1_8 
REMARK    3  A    between atoms: N1_8  and  C8_9 
REMARK    4  A    between atoms: C13_16  and  C14_17 
REMARK    5  A    between atoms: C14_17  and  N4_18 
REMARK    6  A    between atoms: C17_21  and  N5_22 
ROOT
HETATM    1  C1  UNL     1      15.391  -1.117  51.528  1.00  0.00     0.018 C 
HETATM    2  C2  UNL     1      16.532  -0.932  51.871  1.00  0.00    -0.077 C 
HETATM    3  C3  UNL     1      17.902  -0.702  52.306  1.00  0.00     0.018 A 
HETATM    4  C4  UNL     1      18.350  -1.381  53.328  1.00  0.00     0.021 A 
HETATM    5  C5  UNL     1      19.724  -1.134  53.749  1.00  0.00     0.006 A 
HETATM    6  C6  UNL     1      20.584  -0.305  53.226  1.00  0.00    -0.058 A 
HETATM    7  C20 UNL     1      20.502   0.629  52.097  1.00  0.00     0.072 A 
HETATM    8  P1  UNL     1      18.825   0.536  51.334  1.00  0.00    -0.081 P 
HETATM    9  H26 UNL     1      18.894   0.097  49.971  1.00  0.00     0.063 HD
ENDROOT
BRANCH   6  10
HETATM   10  C7  UNL     1      21.926  -0.207  53.801  1.00  0.00     0.155 C 
BRANCH  10  11
HETATM   11  N1  UNL     1      22.825   0.650  53.094  1.00  0.00    -0.371 N 
HETATM   12  H6  UNL     1      22.422   1.365  52.423  1.00  0.00     0.161 HD
BRANCH  11  13
HETATM   13  C8  UNL     1      24.240   0.631  53.209  1.00  0.00     0.129 A 
HETATM   14  N2  UNL     1      24.706  -0.573  53.384  1.00  0.00    -0.252 NA
HETATM   15  C9  UNL     1      26.086  -0.901  53.532  1.00  0.00     0.289 A 
HETATM   16  N3  UNL     1      26.931   0.267  53.454  1.00  0.00    -0.298 N 
HETATM   17  C10 UNL     1      28.318   0.128  53.568  1.00  0.00     0.003 C 
HETATM   18  C12 UNL     1      26.420   1.577  53.265  1.00  0.00     0.115 A 
HETATM   19  C11 UNL     1      29.535   0.020  53.655  1.00  0.00     0.037 C 
HETATM   20  C13 UNL     1      25.125   1.811  53.140  1.00  0.00     0.021 A 
BRANCH  20  21
HETATM   21  C14 UNL     1      24.354   3.042  52.950  1.00  0.00     0.161 C 
BRANCH  21  22
HETATM   22  N4  UNL     1      24.078   3.250  51.575  1.00  0.00    -0.408 N 
HETATM   23  C15 UNL     1      25.101   3.846  50.786  1.00  0.00     0.119 C 
HETATM   24  C16 UNL     1      24.843   5.250  50.325  1.00  0.00     0.055 C 
HETATM   25  C17 UNL     1      23.794   6.003  51.050  1.00  0.00     0.221 C 
HETATM   26  C18 UNL     1      22.619   5.220  51.531  1.00  0.00     0.055 C 
HETATM   27  C19 UNL     1      22.754   3.736  51.299  1.00  0.00     0.119 C 
BRANCH  25  28
HETATM   28  N5  UNL     1      24.413   6.823  52.099  1.00  0.00     0.083 N 
HETATM   29  H18 UNL     1      24.813   6.174  52.838  1.00  0.00     0.313 HD
HETATM   30  H19 UNL     1      23.608   7.320  52.579  1.00  0.00     0.313 HD
ENDBRANCH  25  28
ENDBRANCH  21  22
ENDBRANCH  20  21
ENDBRANCH  11  13
ENDBRANCH  10  11
ENDBRANCH   6  10
TORSDOF 6
ENDMDL
MODEL 3
REMARK VINA RESULT:      -7.8      2.883      8.330
REMARK  6 active torsions:
REMARK  status: ('A' for Active; 'I' for Inactive)
REMARK    1  A    between atoms: C6_6  and  C7_7 
REMARK    2  A    between atoms: C7_7  and  N1_8 
REMARK    3  A    between atoms: N1_8  and  C8_9 
REMARK    4  A    between atoms: C13_16  and  C14_17 
REMARK    5  A    between atoms: C14_17  and  N4_18 
REMARK    6  A    between atoms: C17_21  and  N5_22 
ROOT
HETATM    1  C1  UNL     1      21.964  -1.535  54.583  1.00  0.00     0.018 C 
HETATM    2  C2  UNL     1      22.797  -0.870  54.019  1.00  0.00    -0.077 C 
HETATM    3  C3  UNL     1      23.793  -0.073  53.317  1.00  0.00     0.018 A 
HETATM    4  C4  UNL     1      23.379   0.887  52.532  1.00  0.00     0.021 A 
HETATM    5  C5  UNL     1      24.393   1.671  51.838  1.00  0.00     0.006 A 
HETATM    6  C6  UNL     1      25.688   1.537  51.898  1.00  0.00    -0.058 A 
HETATM    7  C20 UNL     1      26.557   0.611  52.634  1.00  0.00     0.072 A 
HETATM    8  P1  UNL     1      25.526  -0.540  53.641  1.00  0.00    -0.081 P 
HETATM    9  H26 UNL     1      25.792  -0.391  55.042  1.00  0.00     0.063 HD
ENDROOT
BRANCH   6  10
HETATM   10  C7  UNL     1      26.539   2.436  51.116  1.00  0.00     0.155 C 
BRANCH  10  11
HETATM   11  N1  UNL     1      25.925   2.985  49.948  1.00  0.00    -0.371 N 
HETATM   12  H6  UNL     1      25.142   2.441  49.484  1.00  0.00     0.161 HD
BRANCH  11  13
HETATM   13  C8  UNL     1      26.277   4.216  49.337  1.00  0.00     0.129 A 
HETATM   14  N2  UNL     1      27.553   4.297  49.084  1.00  0.00    -0.252 NA
HETATM   15  C9  UNL     1      28.195   5.415  48.476  1.00  0.00     0.289 A 
HETATM   16  N3  UNL     1      27.260   6.466  48.150  1.00  0.00    -0.298 N 
HETATM   17  C10 UNL     1      27.718   7.635  47.535  1.00  0.00     0.003 C 
HETATM   18  C12 UNL     1      25.871   6.376  48.427  1.00  0.00     0.115 A 
HETATM   19  C11 UNL     1      28.103   8.661  46.986  1.00  0.00     0.037 C 
HETATM   20  C13 UNL     1      25.342   5.309  49.001  1.00  0.00     0.021 A 
BRANCH  20  21
HETATM   21  C14 UNL     1      23.971   4.974  49.396  1.00  0.00     0.161 C 
BRANCH  21  22
HETATM   22  N4  UNL     1      23.568   5.756  50.508  1.00  0.00    -0.408 N 
HETATM   23  C15 UNL     1      23.694   5.169  51.799  1.00  0.00     0.119 C 
HETATM   24  C16 UNL     1      22.411   4.806  52.486  1.00  0.00     0.055 C 
HETATM   25  C17 UNL     1      21.209   4.701  51.628  1.00  0.00     0.221 C 
HETATM   26  C18 UNL     1      21.119   5.650  50.481  1.00  0.00     0.055 C 
HETATM   27  C19 UNL     1      22.354   6.498  50.309  1.00  0.00     0.119 C 
BRANCH  25  28
HETATM   28  N5  UNL     1      21.001   3.300  51.239  1.00  0.00     0.083 N 
HETATM   29  H18 UNL     1      20.459   3.284  50.327  1.00  0.00     0.313 HD
HETATM   30  H19 UNL     1      20.333   2.904  51.961  1.00  0.00     0.313 HD
ENDBRANCH  25  28
ENDBRANCH  21  22
ENDBRANCH  20  21
ENDBRANCH  11  13
ENDBRANCH  10  11
ENDBRANCH   6  10
TORSDOF 6
ENDMDL
MODEL 4
REMARK VINA RESULT:      -7.7      1.426      1.947
REMARK  6 active torsions:
REMARK  status: ('A' for Active; 'I' for Inactive)
REMARK    1  A    between atoms: C6_6  and  C7_7 
REMARK    2  A    between atoms: C7_7  and  N1_8 
REMARK    3  A    between atoms: N1_8  and  C8_9 
REMARK    4  A    between atoms: C13_16  and  C14_17 
REMARK    5  A    between atoms: C14_17  and  N4_18 
REMARK    6  A    between atoms: C17_21  and  N5_22 
ROOT
HETATM    1  C1  UNL     1      29.191   9.096  48.125  1.00  0.00     0.018 C 
HETATM    2  C2  UNL     1      28.392   8.263  48.476  1.00  0.00    -0.077 C 
HETATM    3  C3  UNL     1      27.423   7.253  48.876  1.00  0.00     0.018 A 
HETATM    4  C4  UNL     1      27.601   6.025  48.465  1.00  0.00     0.021 A 
HETATM    5  C5  UNL     1      26.618   5.030  48.875  1.00  0.00     0.006 A 
HETATM    6  C6  UNL     1      25.561   5.209  49.616  1.00  0.00    -0.058 A 
HETATM    7  C20 UNL     1      24.996   6.394  50.271  1.00  0.00     0.072 A 
HETATM    8  P1  UNL     1      26.060   7.861  49.924  1.00  0.00    -0.081 P 
HETATM    9  H26 UNL     1      26.610   8.405  51.132  1.00  0.00     0.063 HD
ENDROOT
BRANCH   6  10
HETATM   10  C7  UNL     1      24.695   4.067  49.917  1.00  0.00     0.155 C 
BRANCH  10  11
HETATM   11  N1  UNL     1      24.164   4.045  51.244  1.00  0.00    -0.371 N 
HETATM   12  H6  UNL     1      24.425   4.829  51.908  1.00  0.00     0.161 HD
BRANCH  11  13
HETATM   13  C8  UNL     1      23.303   3.045  51.767  1.00  0.00     0.129 A 
HETATM   14  N2  UNL     1      22.108   3.102  51.251  1.00  0.00    -0.252 NA
HETATM   15  C9  UNL     1      21.032   2.227  51.585  1.00  0.00     0.289 A 
HETATM   16  N3  UNL     1      21.420   1.242  52.566  1.00  0.00    -0.298 N 
HETATM   17  C10 UNL     1      20.489   0.293  53.002  1.00  0.00     0.003 C 
HETATM   18  C12 UNL     1      22.722   1.183  53.128  1.00  0.00     0.115 A 
HETATM   19  C11 UNL     1      19.688  -0.551  53.384  1.00  0.00     0.037 C 
HETATM   20  C13 UNL     1      23.673   2.032  52.777  1.00  0.00     0.021 A 
BRANCH  20  21
HETATM   21  C14 UNL     1      25.066   2.191  53.201  1.00  0.00     0.161 C 
BRANCH  21  22
HETATM   22  N4  UNL     1      25.941   1.544  52.292  1.00  0.00    -0.408 N 
HETATM   23  C15 UNL     1      26.092   0.135  52.422  1.00  0.00     0.119 C 
HETATM   24  C16 UNL     1      27.417  -0.341  52.939  1.00  0.00     0.055 C 
HETATM   25  C17 UNL     1      28.254   0.662  53.636  1.00  0.00     0.221 C 
HETATM   26  C18 UNL     1      28.187   2.061  53.125  1.00  0.00     0.055 C 
HETATM   27  C19 UNL     1      27.164   2.252  52.034  1.00  0.00     0.119 C 
BRANCH  25  28
HETATM   28  N5  UNL     1      28.036   0.563  55.085  1.00  0.00     0.083 N 
HETATM   29  H18 UNL     1      27.538  -0.352  55.286  1.00  0.00     0.313 HD
HETATM   30  H19 UNL     1      27.328   1.317  55.315  1.00  0.00     0.313 HD
ENDBRANCH  25  28
ENDBRANCH  21  22
ENDBRANCH  20  21
ENDBRANCH  11  13
ENDBRANCH  10  11
ENDBRANCH   6  10
TORSDOF 6
ENDMDL
MODEL 5
REMARK VINA RESULT:      -7.6      3.091      7.104
REMARK  6 active torsions:
REMARK  status: ('A' for Active; 'I' for Inactive)
REMARK    1  A    between atoms: C6_6  and  C7_7 
REMARK    2  A    between atoms: C7_7  and  N1_8 
REMARK    3  A    between atoms: N1_8  and  C8_9 
REMARK    4  A    between atoms: C13_16  and  C14_17 
REMARK    5  A    between atoms: C14_17  and  N4_18 
REMARK    6  A    between atoms: C17_21  and  N5_22 
ROOT
HETATM    1  C1  UNL     1      30.260  -0.775  53.666  1.00  0.00     0.018 C 
HETATM    2  C2  UNL     1      29.104  -0.458  53.546  1.00  0.00    -0.077 C 
HETATM    3  C3  UNL     1      27.706  -0.085  53.379  1.00  0.00     0.018 A 
HETATM    4  C4  UNL     1      26.825  -1.037  53.224  1.00  0.00     0.021 A 
HETATM    5  C5  UNL     1      25.432  -0.642  53.057  1.00  0.00     0.006 A 
HETATM    6  C6  UNL     1      24.939   0.564  53.041  1.00  0.00    -0.058 A 
HETATM    7  C20 UNL     1      25.554   1.890  53.175  1.00  0.00     0.072 A 
HETATM    8  P1  UNL     1      27.374   1.708  53.411  1.00  0.00    -0.081 P 
HETATM    9  H26 UNL     1      27.792   2.235  54.678  1.00  0.00     0.063 HD
ENDROOT
BRANCH   6  10
HETATM   10  C7  UNL     1      23.497   0.748  52.861  1.00  0.00     0.155 C 
BRANCH  10  11
HETATM   11  N1  UNL     1      23.108   2.035  52.376  1.00  0.00    -0.371 N 
HETATM   12  H6  UNL     1      23.865   2.749  52.170  1.00  0.00     0.161 HD
BRANCH  11  13
HETATM   13  C8  UNL     1      21.773   2.455  52.142  1.00  0.00     0.129 A 
HETATM   14  N2  UNL     1      20.928   1.463  52.180  1.00  0.00    -0.252 NA
HETATM   15  C9  UNL     1      19.521   1.582  51.981  1.00  0.00     0.289 A 
HETATM   16  N3  UNL     1      19.122   2.948  51.740  1.00  0.00    -0.298 N 
HETATM   17  C10 UNL     1      17.772   3.250  51.534  1.00  0.00     0.003 C 
HETATM   18  C12 UNL     1      20.044   4.026  51.698  1.00  0.00     0.115 A 
HETATM   19  C11 UNL     1      16.591   3.530  51.363  1.00  0.00     0.037 C 
HETATM   20  C13 UNL     1      21.340   3.844  51.886  1.00  0.00     0.021 A 
BRANCH  20  21
HETATM   21  C14 UNL     1      22.480   4.764  51.885  1.00  0.00     0.161 C 
BRANCH  21  22
HETATM   22  N4  UNL     1      22.532   5.491  50.669  1.00  0.00    -0.408 N 
HETATM   23  C15 UNL     1      22.861   4.767  49.489  1.00  0.00     0.119 C 
HETATM   24  C16 UNL     1      24.209   5.049  48.896  1.00  0.00     0.055 C 
HETATM   25  C17 UNL     1      25.198   5.704  49.784  1.00  0.00     0.221 C 
HETATM   26  C18 UNL     1      24.666   6.695  50.763  1.00  0.00     0.055 C 
HETATM   27  C19 UNL     1      23.160   6.779  50.770  1.00  0.00     0.119 C 
BRANCH  25  28
HETATM   28  N5  UNL     1      26.059   4.685  50.399  1.00  0.00     0.083 N 
HETATM   29  H18 UNL     1      25.570   4.315  51.265  1.00  0.00     0.313 HD
HETATM   30  H19 UNL     1      26.901   5.213  50.765  1.00  0.00     0.313 HD
ENDBRANCH  25  28
ENDBRANCH  21  22
ENDBRANCH  20  21
ENDBRANCH  11  13
ENDBRANCH  10  11
ENDBRANCH   6  10
TORSDOF 6
ENDMDL
MODEL 6
REMARK VINA RESULT:      -7.4      3.081      7.582
REMARK  6 active torsions:
REMARK  status: ('A' for Active; 'I' for Inactive)
REMARK    1  A    between atoms: C6_6  and  C7_7 
REMARK    2  A    between atoms: C7_7  and  N1_8 
REMARK    3  A    between atoms: N1_8  and  C8_9 
REMARK    4  A    between atoms: C13_16  and  C14_17 
REMARK    5  A    between atoms: C14_17  and  N4_18 
REMARK    6  A    between atoms: C17_21  and  N5_22 
ROOT
HETATM    1  C1  UNL     1      16.909   2.493  48.460  1.00  0.00     0.018 C 
HETATM    2  C2  UNL     1      17.769   2.048  49.180  1.00  0.00    -0.077 C 
HETATM    3  C3  UNL     1      18.817   1.501  50.029  1.00  0.00     0.018 A 
HETATM    4  C4  UNL     1      20.056   1.827  49.773  1.00  0.00     0.021 A 
HETATM    5  C5  UNL     1      21.090   1.267  50.634  1.00  0.00     0.006 A 
HETATM    6  C6  UNL     1      20.937   0.464  51.650  1.00  0.00    -0.058 A 
HETATM    7  C20 UNL     1      19.750  -0.139  52.268  1.00  0.00     0.072 A 
HETATM    8  P1  UNL     1      18.235   0.407  51.368  1.00  0.00    -0.081 P 
HETATM    9  H26 UNL     1      17.357   1.149  52.224  1.00  0.00     0.063 HD
ENDROOT
BRANCH   6  10
HETATM   10  C7  UNL     1      22.116   0.013  52.392  1.00  0.00     0.155 C 
BRANCH  10  11
HETATM   11  N1  UNL     1      23.136   0.999  52.561  1.00  0.00    -0.371 N 
HETATM   12  H6  UNL     1      22.857   2.022  52.569  1.00  0.00     0.161 HD
BRANCH  11  13
HETATM   13  C8  UNL     1      24.520   0.730  52.721  1.00  0.00     0.129 A 
HETATM   14  N2  UNL     1      24.738  -0.432  53.272  1.00  0.00    -0.252 NA
HETATM   15  C9  UNL     1      26.027  -0.971  53.558  1.00  0.00     0.289 A 
HETATM   16  N3  UNL     1      27.088  -0.081  53.152  1.00  0.00    -0.298 N 
HETATM   17  C10 UNL     1      28.421  -0.457  53.347  1.00  0.00     0.003 C 
HETATM   18  C12 UNL     1      26.848   1.183  52.553  1.00  0.00     0.115 A 
HETATM   19  C11 UNL     1      29.593  -0.778  53.502  1.00  0.00     0.037 C 
HETATM   20  C13 UNL     1      25.624   1.626  52.322  1.00  0.00     0.021 A 
BRANCH  20  21
HETATM   21  C14 UNL     1      25.114   2.869  51.738  1.00  0.00     0.161 C 
BRANCH  21  22
HETATM   22  N4  UNL     1      25.286   2.866  50.331  1.00  0.00    -0.408 N 
HETATM   23  C15 UNL     1      26.549   3.288  49.827  1.00  0.00     0.119 C 
HETATM   24  C16 UNL     1      26.567   4.609  49.119  1.00  0.00     0.055 C 
HETATM   25  C17 UNL     1      25.419   5.510  49.368  1.00  0.00     0.221 C 
HETATM   26  C18 UNL     1      24.089   4.862  49.560  1.00  0.00     0.055 C 
HETATM   27  C19 UNL     1      24.157   3.356  49.590  1.00  0.00     0.119 C 
BRANCH  25  28
HETATM   28  N5  UNL     1      25.760   6.461  50.434  1.00  0.00     0.083 N 
HETATM   29  H18 UNL     1      25.052   7.252  50.414  1.00  0.00     0.313 HD
HETATM   30  H19 UNL     1      26.674   6.904  50.133  1.00  0.00     0.313 HD
ENDBRANCH  25  28
ENDBRANCH  21  22
ENDBRANCH  20  21
ENDBRANCH  11  13
ENDBRANCH  10  11
ENDBRANCH   6  10
TORSDOF 6
ENDMDL
MODEL 7
REMARK VINA RESULT:      -7.4      4.416      7.739
REMARK  6 active torsions:
REMARK  status: ('A' for Active; 'I' for Inactive)
REMARK    1  A    between atoms: C6_6  and  C7_7 
REMARK    2  A    between atoms: C7_7  and  N1_8 
REMARK    3  A    between atoms: N1_8  and  C8_9 
REMARK    4  A    between atoms: C13_16  and  C14_17 
REMARK    5  A    between atoms: C14_17  and  N4_18 
REMARK    6  A    between atoms: C17_21  and  N5_22 
ROOT
HETATM    1  C1  UNL     1      28.154   0.453  53.619  1.00  0.00     0.018 C 
HETATM    2  C2  UNL     1      27.013   0.113  53.810  1.00  0.00    -0.077 C 
HETATM    3  C3  UNL     1      25.628  -0.274  54.035  1.00  0.00     0.018 A 
HETATM    4  C4  UNL     1      24.771  -0.109  53.062  1.00  0.00     0.021 A 
HETATM    5  C5  UNL     1      23.390  -0.501  53.310  1.00  0.00     0.006 A 
HETATM    6  C6  UNL     1      22.885  -1.008  54.400  1.00  0.00    -0.058 A 
HETATM    7  C20 UNL     1      23.472  -1.349  55.701  1.00  0.00     0.072 A 
HETATM    8  P1  UNL     1      25.274  -0.954  55.691  1.00  0.00    -0.081 P 
HETATM    9  H26 UNL     1      26.068  -2.132  55.887  1.00  0.00     0.063 HD
ENDROOT
BRANCH   6  10
HETATM   10  C7  UNL     1      21.459  -1.338  54.444  1.00  0.00     0.155 C 
BRANCH  10  11
HETATM   11  N1  UNL     1      20.576  -0.219  54.334  1.00  0.00    -0.371 N 
HETATM   12  H6  UNL     1      20.566   0.498  55.116  1.00  0.00     0.161 HD
BRANCH  11  13
HETATM   13  C8  UNL     1      19.691   0.026  53.252  1.00  0.00     0.129 A 
HETATM   14  N2  UNL     1      18.778  -0.899  53.142  1.00  0.00    -0.252 NA
HETATM   15  C9  UNL     1      17.754  -0.919  52.149  1.00  0.00     0.289 A 
HETATM   16  N3  UNL     1      17.830   0.222  51.269  1.00  0.00    -0.298 N 
HETATM   17  C10 UNL     1      16.893   0.368  50.241  1.00  0.00     0.003 C 
HETATM   18  C12 UNL     1      18.826   1.226  51.391  1.00  0.00     0.115 A 
HETATM   19  C11 UNL     1      16.073   0.515  49.342  1.00  0.00     0.037 C 
HETATM   20  C13 UNL     1      19.752   1.180  52.334  1.00  0.00     0.021 A 
BRANCH  20  21
HETATM   21  C14 UNL     1      20.873   2.063  52.665  1.00  0.00     0.161 C 
BRANCH  21  22
HETATM   22  N4  UNL     1      21.379   2.686  51.496  1.00  0.00    -0.408 N 
HETATM   23  C15 UNL     1      22.526   2.102  50.890  1.00  0.00     0.119 C 
HETATM   24  C16 UNL     1      23.802   2.882  51.006  1.00  0.00     0.055 C 
HETATM   25  C17 UNL     1      23.845   3.928  52.053  1.00  0.00     0.221 C 
HETATM   26  C18 UNL     1      22.574   4.662  52.319  1.00  0.00     0.055 C 
HETATM   27  C19 UNL     1      21.399   4.122  51.545  1.00  0.00     0.119 C 
BRANCH  25  28
HETATM   28  N5  UNL     1      24.466   3.384  53.267  1.00  0.00     0.083 N 
HETATM   29  H18 UNL     1      24.634   4.185  53.943  1.00  0.00     0.313 HD
HETATM   30  H19 UNL     1      25.433   3.068  52.971  1.00  0.00     0.313 HD
ENDBRANCH  25  28
ENDBRANCH  21  22
ENDBRANCH  20  21
ENDBRANCH  11  13
ENDBRANCH  10  11
ENDBRANCH   6  10
TORSDOF 6
ENDMDL
MODEL 8
REMARK VINA RESULT:      -7.4      3.364      8.089
REMARK  6 active torsions:
REMARK  status: ('A' for Active; 'I' for Inactive)
REMARK    1  A    between atoms: C6_6  and  C7_7 
REMARK    2  A    between atoms: C7_7  and  N1_8 
REMARK    3  A    between atoms: N1_8  and  C8_9 
REMARK    4  A    between atoms: C13_16  and  C14_17 
REMARK    5  A    between atoms: C14_17  and  N4_18 
REMARK    6  A    between atoms: C17_21  and  N5_22 
ROOT
HETATM    1  C1  UNL     1      21.929  -1.645  54.583  1.00  0.00     0.018 C 
HETATM    2  C2  UNL     1      22.465  -0.763  53.961  1.00  0.00    -0.077 C 
HETATM    3  C3  UNL     1      23.100   0.296  53.190  1.00  0.00     0.018 A 
HETATM    4  C4  UNL     1      22.337   1.176  52.598  1.00  0.00     0.021 A 
HETATM    5  C5  UNL     1      22.994   2.226  51.830  1.00  0.00     0.006 A 
HETATM    6  C6  UNL     1      24.273   2.407  51.652  1.00  0.00    -0.058 A 
HETATM    7  C20 UNL     1      25.454   1.673  52.121  1.00  0.00     0.072 A 
HETATM    8  P1  UNL     1      24.924   0.242  53.158  1.00  0.00    -0.081 P 
HETATM    9  H26 UNL     1      25.415   0.359  54.500  1.00  0.00     0.063 HD
ENDROOT
BRANCH   6  10
HETATM   10  C7  UNL     1      24.731   3.535  50.839  1.00  0.00     0.155 C 
BRANCH  10  11
HETATM   11  N1  UNL     1      24.589   4.818  51.451  1.00  0.00    -0.371 N 
HETATM   12  H6  UNL     1      25.089   5.000  52.369  1.00  0.00     0.161 HD
BRANCH  11  13
HETATM   13  C8  UNL     1      23.821   5.894  50.935  1.00  0.00     0.129 A 
HETATM   14  N2  UNL     1      22.549   5.759  51.184  1.00  0.00    -0.252 NA
HETATM   15  C9  UNL     1      21.537   6.682  50.788  1.00  0.00     0.289 A 
HETATM   16  N3  UNL     1      22.084   7.813  50.077  1.00  0.00    -0.298 N 
HETATM   17  C10 UNL     1      21.232   8.825  49.623  1.00  0.00     0.003 C 
HETATM   18  C12 UNL     1      23.470   7.957  49.806  1.00  0.00     0.115 A 
HETATM   19  C11 UNL     1      20.499   9.725  49.229  1.00  0.00     0.037 C 
HETATM   20  C13 UNL     1      24.355   7.058  50.198  1.00  0.00     0.021 A 
BRANCH  20  21
HETATM   21  C14 UNL     1      25.809   6.965  50.042  1.00  0.00     0.161 C 
BRANCH  21  22
HETATM   22  N4  UNL     1      26.140   6.401  48.784  1.00  0.00    -0.408 N 
HETATM   23  C15 UNL     1      27.123   5.371  48.768  1.00  0.00     0.119 C 
HETATM   24  C16 UNL     1      28.446   5.733  48.162  1.00  0.00     0.055 C 
HETATM   25  C17 UNL     1      28.741   7.178  48.030  1.00  0.00     0.221 C 
HETATM   26  C18 UNL     1      27.587   8.071  47.722  1.00  0.00     0.055 C 
HETATM   27  C19 UNL     1      26.261   7.354  47.716  1.00  0.00     0.119 C 
BRANCH  25  28
HETATM   28  N5  UNL     1      29.530   7.628  49.184  1.00  0.00     0.083 N 
HETATM   29  H18 UNL     1      30.557   7.593  48.919  1.00  0.00     0.313 HD
HETATM   30  H19 UNL     1      29.412   6.872  49.917  1.00  0.00     0.313 HD
ENDBRANCH  25  28
ENDBRANCH  21  22
ENDBRANCH  20  21
ENDBRANCH  11  13
ENDBRANCH  10  11
ENDBRANCH   6  10
TORSDOF 6
ENDMDL
MODEL 9
REMARK VINA RESULT:      -7.3      2.864      7.198
REMARK  6 active torsions:
REMARK  status: ('A' for Active; 'I' for Inactive)
REMARK    1  A    between atoms: C6_6  and  C7_7 
REMARK    2  A    between atoms: C7_7  and  N1_8 
REMARK    3  A    between atoms: N1_8  and  C8_9 
REMARK    4  A    between atoms: C13_16  and  C14_17 
REMARK    5  A    between atoms: C14_17  and  N4_18 
REMARK    6  A    between atoms: C17_21  and  N5_22 
ROOT
HETATM    1  C1  UNL     1      16.068   0.092  52.037  1.00  0.00     0.018 C 
HETATM    2  C2  UNL     1      17.267   0.182  51.943  1.00  0.00    -0.077 C 
HETATM    3  C3  UNL     1      18.713   0.277  51.809  1.00  0.00     0.018 A 
HETATM    4  C4  UNL     1      19.202   0.815  50.723  1.00  0.00     0.021 A 
HETATM    5  C5  UNL     1      20.652   0.898  50.608  1.00  0.00     0.006 A 
HETATM    6  C6  UNL     1      21.547   0.498  51.467  1.00  0.00    -0.058 A 
HETATM    7  C20 UNL     1      21.443  -0.144  52.783  1.00  0.00     0.072 A 
HETATM    8  P1  UNL     1      19.666  -0.385  53.217  1.00  0.00    -0.081 P 
HETATM    9  H26 UNL     1      19.313   0.344  54.400  1.00  0.00     0.063 HD
ENDROOT
BRANCH   6  10
HETATM   10  C7  UNL     1      22.967   0.677  51.160  1.00  0.00     0.155 C 
BRANCH  10  11
HETATM   11  N1  UNL     1      23.561   1.856  51.710  1.00  0.00    -0.371 N 
HETATM   12  H6  UNL     1      23.338   2.114  52.714  1.00  0.00     0.161 HD
BRANCH  11  13
HETATM   13  C8  UNL     1      24.438   2.732  51.020  1.00  0.00     0.129 A 
HETATM   14  N2  UNL     1      23.796   3.631  50.328  1.00  0.00    -0.252 NA
HETATM   15  C9  UNL     1      24.412   4.644  49.534  1.00  0.00     0.289 A 
HETATM   16  N3  UNL     1      25.853   4.573  49.590  1.00  0.00    -0.298 N 
HETATM   17  C10 UNL     1      26.620   5.500  48.877  1.00  0.00     0.003 C 
HETATM   18  C12 UNL     1      26.549   3.592  50.343  1.00  0.00     0.115 A 
HETATM   19  C11 UNL     1      27.305   6.312  48.267  1.00  0.00     0.037 C 
HETATM   20  C13 UNL     1      25.913   2.677  51.054  1.00  0.00     0.021 A 
BRANCH  20  21
HETATM   21  C14 UNL     1      26.383   1.571  51.892  1.00  0.00     0.161 C 
BRANCH  21  22
HETATM   22  N4  UNL     1      26.862   2.058  53.135  1.00  0.00    -0.408 N 
HETATM   23  C15 UNL     1      28.272   2.166  53.295  1.00  0.00     0.119 C 
HETATM   24  C16 UNL     1      28.906   1.186  54.236  1.00  0.00     0.055 C 
HETATM   25  C17 UNL     1      28.113  -0.019  54.569  1.00  0.00     0.221 C 
HETATM   26  C18 UNL     1      26.635   0.158  54.668  1.00  0.00     0.055 C 
HETATM   27  C19 UNL     1      26.172   1.541  54.285  1.00  0.00     0.119 C 
BRANCH  25  28
HETATM   28  N5  UNL     1      28.506  -1.128  53.690  1.00  0.00     0.083 N 
HETATM   29  H18 UNL     1      27.973  -1.996  53.989  1.00  0.00     0.313 HD
HETATM   30  H19 UNL     1      29.518  -1.331  53.930  1.00  0.00     0.313 HD
ENDBRANCH  25  28
ENDBRANCH  21  22
ENDBRANCH  20  21
ENDBRANCH  11  13
ENDBRANCH  10  11
ENDBRANCH   6  10
TORSDOF 6
ENDMDL
