MODEL 1
REMARK VINA RESULT:      -7.3      0.000      0.000
REMARK  9 active torsions:
REMARK  status: ('A' for Active; 'I' for Inactive)
REMARK    1  A    between atoms: C2_2  and  C3_3 
REMARK    2  A    between atoms: C3_3  and  C4_4 
REMARK    3  A    between atoms: C4_4  and  N1_5 
REMARK    4  A    between atoms: N1_5  and  C5_6 
REMARK    5  A    between atoms: N1_5  and  C13_15 
REMARK    6  A    between atoms: C5_6  and  C6_7 
REMARK    7  A    between atoms: C12_13  and  O1_14 
REMARK    8  A    between atoms: C13_15  and  N2_17 
REMARK    9  A    between atoms: N2_17  and  C14_18 
ROOT
HETATM    1  N1  UNL     1      25.792   2.327  52.298  1.00  0.00    -0.354 N 
ENDROOT
BRANCH   1   2
HETATM    2  C4  UNL     1      26.654   2.752  51.250  1.00  0.00     0.125 C 
BRANCH   2   3
HETATM    3  C3  UNL     1      26.068   2.870  49.884  1.00  0.00     0.020 C 
BRANCH   3   4
HETATM    4  C2  UNL     1      26.156   4.372  49.535  1.00  0.00    -0.003 C 
HETATM    5  C1  UNL     1      27.421   4.662  48.776  1.00  0.00     0.005 C 
ENDBRANCH   3   4
ENDBRANCH   2   3
ENDBRANCH   1   2
BRANCH   1   6
HETATM    6  C5  UNL     1      26.358   1.931  53.546  1.00  0.00     0.166 C 
BRANCH   6   7
HETATM    7  C6  UNL     1      27.416   0.923  53.520  1.00  0.00    -0.007 A 
HETATM    8  C7  UNL     1      28.723   1.320  53.816  1.00  0.00     0.011 A 
HETATM    9  C8  UNL     1      29.835   0.503  53.818  1.00  0.00     0.001 A 
HETATM   10  C9  UNL     1      29.628  -0.823  53.495  1.00  0.00     0.009 A 
HETATM   11  C10 UNL     1      28.366  -1.304  53.187  1.00  0.00    -0.028 A 
HETATM   12  C11 UNL     1      28.153  -2.736  52.841  1.00  0.00     0.051 C 
HETATM   13  C12 UNL     1      27.320  -0.418  53.213  1.00  0.00     0.079 A 
BRANCH  13  14
HETATM   14  O1  UNL     1      26.082  -0.922  52.908  1.00  0.00    -0.360 OA
HETATM   15  H18 UNL     1      25.970  -1.927  52.894  1.00  0.00     0.217 HD
ENDBRANCH  13  14
ENDBRANCH   6   7
ENDBRANCH   1   6
BRANCH   1  16
HETATM   16  C13 UNL     1      24.349   2.268  52.150  1.00  0.00     0.176 C 
HETATM   17  S1  UNL     1      23.272   3.499  52.170  1.00  0.00    -0.041 SA
BRANCH  16  18
HETATM   18  N2  UNL     1      23.640   1.020  51.948  1.00  0.00    -0.314 N 
HETATM   19  H19 UNL     1      23.397   0.357  51.152  1.00  0.00     0.170 HD
BRANCH  18  20
HETATM   20  C14 UNL     1      22.980   0.229  52.916  1.00  0.00     0.144 A 
HETATM   21  C15 UNL     1      21.686   0.137  52.647  1.00  0.00     0.056 A 
HETATM   22  C16 UNL     1      20.802  -0.650  53.538  1.00  0.00     0.002 A 
HETATM   23  C17 UNL     1      21.361  -1.233  54.577  1.00  0.00    -0.000 A 
HETATM   24  C18 UNL     1      22.780  -1.184  54.947  1.00  0.00     0.204 A 
HETATM   25  O2  UNL     1      23.481  -0.412  54.026  1.00  0.00    -0.332 OA
ENDBRANCH  18  20
ENDBRANCH  16  18
ENDBRANCH   1  16
TORSDOF 9
ENDMDL
MODEL 2
REMARK VINA RESULT:      -7.1      1.318      1.970
REMARK  9 active torsions:
REMARK  status: ('A' for Active; 'I' for Inactive)
REMARK    1  A    between atoms: C2_2  and  C3_3 
REMARK    2  A    between atoms: C3_3  and  C4_4 
REMARK    3  A    between atoms: C4_4  and  N1_5 
REMARK    4  A    between atoms: N1_5  and  C5_6 
REMARK    5  A    between atoms: N1_5  and  C13_15 
REMARK    6  A    between atoms: C5_6  and  C6_7 
REMARK    7  A    between atoms: C12_13  and  O1_14 
REMARK    8  A    between atoms: C13_15  and  N2_17 
REMARK    9  A    between atoms: N2_17  and  C14_18 
ROOT
HETATM    1  N1  UNL     1      25.704   2.511  51.940  1.00  0.00    -0.354 N 
ENDROOT
BRANCH   1   2
HETATM    2  C4  UNL     1      26.561   2.872  50.864  1.00  0.00     0.125 C 
BRANCH   2   3
HETATM    3  C3  UNL     1      25.919   3.253  49.573  1.00  0.00     0.020 C 
BRANCH   3   4
HETATM    4  C2  UNL     1      26.294   4.735  49.357  1.00  0.00    -0.003 C 
HETATM    5  C1  UNL     1      27.617   4.846  48.653  1.00  0.00     0.005 C 
ENDBRANCH   3   4
ENDBRANCH   2   3
ENDBRANCH   1   2
BRANCH   1   6
HETATM    6  C5  UNL     1      26.278   2.017  53.149  1.00  0.00     0.166 C 
BRANCH   6   7
HETATM    7  C6  UNL     1      26.985   0.740  53.090  1.00  0.00    -0.007 A 
HETATM    8  C7  UNL     1      26.279  -0.396  52.685  1.00  0.00     0.011 A 
HETATM    9  C8  UNL     1      26.789  -1.675  52.593  1.00  0.00     0.001 A 
HETATM   10  C9  UNL     1      28.116  -1.837  52.936  1.00  0.00     0.009 A 
HETATM   11  C10 UNL     1      28.892  -0.767  53.350  1.00  0.00    -0.028 A 
HETATM   12  C11 UNL     1      30.323  -0.952  53.718  1.00  0.00     0.051 C 
HETATM   13  C12 UNL     1      28.299   0.468  53.409  1.00  0.00     0.079 A 
BRANCH  13  14
HETATM   14  O1  UNL     1      29.091   1.509  53.818  1.00  0.00    -0.360 OA
HETATM   15  H18 UNL     1      29.536   2.074  53.106  1.00  0.00     0.217 HD
ENDBRANCH  13  14
ENDBRANCH   6   7
ENDBRANCH   1   6
BRANCH   1  16
HETATM   16  C13 UNL     1      24.258   2.615  51.859  1.00  0.00     0.176 C 
HETATM   17  S1  UNL     1      23.316   3.932  52.093  1.00  0.00    -0.041 SA
BRANCH  16  18
HETATM   18  N2  UNL     1      23.416   1.481  51.533  1.00  0.00    -0.314 N 
HETATM   19  H19 UNL     1      23.264   0.801  50.729  1.00  0.00     0.170 HD
BRANCH  18  20
HETATM   20  C14 UNL     1      22.414   0.885  52.332  1.00  0.00     0.144 A 
HETATM   21  C15 UNL     1      22.951   0.199  53.330  1.00  0.00     0.056 A 
HETATM   22  C16 UNL     1      22.078  -0.509  54.294  1.00  0.00     0.002 A 
HETATM   23  C17 UNL     1      20.778  -0.417  54.107  1.00  0.00    -0.000 A 
HETATM   24  C18 UNL     1      20.100   0.320  53.033  1.00  0.00     0.204 A 
HETATM   25  O2  UNL     1      21.043   0.926  52.210  1.00  0.00    -0.332 OA
ENDBRANCH  18  20
ENDBRANCH  16  18
ENDBRANCH   1  16
TORSDOF 9
ENDMDL
MODEL 3
REMARK VINA RESULT:      -7.0      1.805      5.625
REMARK  9 active torsions:
REMARK  status: ('A' for Active; 'I' for Inactive)
REMARK    1  A    between atoms: C2_2  and  C3_3 
REMARK    2  A    between atoms: C3_3  and  C4_4 
REMARK    3  A    between atoms: C4_4  and  N1_5 
REMARK    4  A    between atoms: N1_5  and  C5_6 
REMARK    5  A    between atoms: N1_5  and  C13_15 
REMARK    6  A    between atoms: C5_6  and  C6_7 
REMARK    7  A    between atoms: C12_13  and  O1_14 
REMARK    8  A    between atoms: C13_15  and  N2_17 
REMARK    9  A    between atoms: N2_17  and  C14_18 
ROOT
HETATM    1  N1  UNL     1      24.491   2.725  51.890  1.00  0.00    -0.354 N 
ENDROOT
BRANCH   1   2
HETATM    2  C4  UNL     1      23.970   3.547  52.926  1.00  0.00     0.125 C 
BRANCH   2   3
HETATM    3  C3  UNL     1      23.479   4.904  52.545  1.00  0.00     0.020 C 
BRANCH   3   4
HETATM    4  C2  UNL     1      21.948   4.759  52.418  1.00  0.00    -0.003 C 
HETATM    5  C1  UNL     1      21.525   4.882  50.981  1.00  0.00     0.005 C 
ENDBRANCH   3   4
ENDBRANCH   2   3
ENDBRANCH   1   2
BRANCH   1   6
HETATM    6  C5  UNL     1      23.727   1.607  51.440  1.00  0.00     0.166 C 
BRANCH   6   7
HETATM    7  C6  UNL     1      22.888   0.922  52.420  1.00  0.00    -0.007 A 
HETATM    8  C7  UNL     1      21.512   1.166  52.407  1.00  0.00     0.011 A 
HETATM    9  C8  UNL     1      20.585   0.619  53.271  1.00  0.00     0.001 A 
HETATM   10  C9  UNL     1      21.072  -0.244  54.233  1.00  0.00     0.009 A 
HETATM   11  C10 UNL     1      22.421  -0.543  54.321  1.00  0.00    -0.028 A 
HETATM   12  C11 UNL     1      22.935  -1.475  55.361  1.00  0.00     0.051 C 
HETATM   13  C12 UNL     1      23.267   0.047  53.418  1.00  0.00     0.079 A 
BRANCH  13  14
HETATM   14  O1  UNL     1      24.597  -0.269  53.525  1.00  0.00    -0.360 OA
HETATM   15  H18 UNL     1      24.842  -1.128  54.000  1.00  0.00     0.217 HD
ENDBRANCH  13  14
ENDBRANCH   6   7
ENDBRANCH   1   6
BRANCH   1  16
HETATM   16  C13 UNL     1      25.781   2.969  51.270  1.00  0.00     0.176 C 
HETATM   17  S1  UNL     1      26.112   3.303  49.704  1.00  0.00    -0.041 SA
BRANCH  16  18
HETATM   18  N2  UNL     1      27.020   2.946  52.023  1.00  0.00    -0.314 N 
HETATM   19  H19 UNL     1      27.800   3.613  52.301  1.00  0.00     0.170 HD
BRANCH  18  20
HETATM   20  C14 UNL     1      27.608   1.850  52.695  1.00  0.00     0.144 A 
HETATM   21  C15 UNL     1      28.476   2.265  53.606  1.00  0.00     0.056 A 
HETATM   22  C16 UNL     1      29.210   1.278  54.430  1.00  0.00     0.002 A 
HETATM   23  C17 UNL     1      28.956   0.005  54.210  1.00  0.00    -0.000 A 
HETATM   24  C18 UNL     1      28.014  -0.541  53.226  1.00  0.00     0.204 A 
HETATM   25  O2  UNL     1      27.406   0.498  52.530  1.00  0.00    -0.332 OA
ENDBRANCH  18  20
ENDBRANCH  16  18
ENDBRANCH   1  16
TORSDOF 9
ENDMDL
MODEL 4
REMARK VINA RESULT:      -6.9      2.838      6.350
REMARK  9 active torsions:
REMARK  status: ('A' for Active; 'I' for Inactive)
REMARK    1  A    between atoms: C2_2  and  C3_3 
REMARK    2  A    between atoms: C3_3  and  C4_4 
REMARK    3  A    between atoms: C4_4  and  N1_5 
REMARK    4  A    between atoms: N1_5  and  C5_6 
REMARK    5  A    between atoms: N1_5  and  C13_15 
REMARK    6  A    between atoms: C5_6  and  C6_7 
REMARK    7  A    between atoms: C12_13  and  O1_14 
REMARK    8  A    between atoms: C13_15  and  N2_17 
REMARK    9  A    between atoms: N2_17  and  C14_18 
ROOT
HETATM    1  N1  UNL     1      24.697   1.853  52.570  1.00  0.00    -0.354 N 
ENDROOT
BRANCH   1   2
HETATM    2  C4  UNL     1      25.348   1.885  51.306  1.00  0.00     0.125 C 
BRANCH   2   3
HETATM    3  C3  UNL     1      26.596   2.695  51.197  1.00  0.00     0.020 C 
BRANCH   3   4
HETATM    4  C2  UNL     1      26.557   3.308  49.780  1.00  0.00    -0.003 C 
HETATM    5  C1  UNL     1      25.151   3.692  49.412  1.00  0.00     0.005 C 
ENDBRANCH   3   4
ENDBRANCH   2   3
ENDBRANCH   1   2
BRANCH   1   6
HETATM    6  C5  UNL     1      24.225   3.073  53.140  1.00  0.00     0.166 C 
BRANCH   6   7
HETATM    7  C6  UNL     1      23.130   3.759  52.460  1.00  0.00    -0.007 A 
HETATM    8  C7  UNL     1      21.974   3.033  52.156  1.00  0.00     0.011 A 
HETATM    9  C8  UNL     1      20.861   3.522  51.503  1.00  0.00     0.001 A 
HETATM   10  C9  UNL     1      20.903   4.847  51.118  1.00  0.00     0.009 A 
HETATM   11  C10 UNL     1      22.007   5.641  51.377  1.00  0.00    -0.028 A 
HETATM   12  C11 UNL     1      22.042   7.069  50.959  1.00  0.00     0.051 C 
HETATM   13  C12 UNL     1      23.067   5.069  52.033  1.00  0.00     0.079 A 
BRANCH  13  14
HETATM   14  O1  UNL     1      24.145   5.879  52.279  1.00  0.00    -0.360 OA
HETATM   15  H18 UNL     1      24.514   6.422  51.510  1.00  0.00     0.217 HD
ENDBRANCH  13  14
ENDBRANCH   6   7
ENDBRANCH   1   6
BRANCH   1  16
HETATM   16  C13 UNL     1      24.497   0.624  53.317  1.00  0.00     0.176 C 
HETATM   17  S1  UNL     1      23.138  -0.277  53.452  1.00  0.00    -0.041 SA
BRANCH  16  18
HETATM   18  N2  UNL     1      25.557   0.002  54.084  1.00  0.00    -0.314 N 
HETATM   19  H19 UNL     1      25.670  -0.727  54.852  1.00  0.00     0.170 HD
BRANCH  18  20
HETATM   20  C14 UNL     1      26.948   0.240  53.997  1.00  0.00     0.144 A 
HETATM   21  C15 UNL     1      27.576  -0.807  53.482  1.00  0.00     0.056 A 
HETATM   22  C16 UNL     1      29.045  -0.771  53.301  1.00  0.00     0.002 A 
HETATM   23  C17 UNL     1      29.669   0.328  53.669  1.00  0.00    -0.000 A 
HETATM   24  C18 UNL     1      29.055   1.531  54.244  1.00  0.00     0.204 A 
HETATM   25  O2  UNL     1      27.680   1.349  54.357  1.00  0.00    -0.332 OA
ENDBRANCH  18  20
ENDBRANCH  16  18
ENDBRANCH   1  16
TORSDOF 9
ENDMDL
MODEL 5
REMARK VINA RESULT:      -6.9      2.301      5.836
REMARK  9 active torsions:
REMARK  status: ('A' for Active; 'I' for Inactive)
REMARK    1  A    between atoms: C2_2  and  C3_3 
REMARK    2  A    between atoms: C3_3  and  C4_4 
REMARK    3  A    between atoms: C4_4  and  N1_5 
REMARK    4  A    between atoms: N1_5  and  C5_6 
REMARK    5  A    between atoms: N1_5  and  C13_15 
REMARK    6  A    between atoms: C5_6  and  C6_7 
REMARK    7  A    between atoms: C12_13  and  O1_14 
REMARK    8  A    between atoms: C13_15  and  N2_17 
REMARK    9  A    between atoms: N2_17  and  C14_18 
ROOT
HETATM    1  N1  UNL     1      24.434   2.175  51.821  1.00  0.00    -0.354 N 
ENDROOT
BRANCH   1   2
HETATM    2  C4  UNL     1      23.696   1.539  52.855  1.00  0.00     0.125 C 
BRANCH   2   3
HETATM    3  C3  UNL     1      22.677   0.527  52.450  1.00  0.00     0.020 C 
BRANCH   3   4
HETATM    4  C2  UNL     1      22.972  -0.714  53.320  1.00  0.00    -0.003 C 
HETATM    5  C1  UNL     1      22.159  -0.676  54.584  1.00  0.00     0.005 C 
ENDBRANCH   3   4
ENDBRANCH   2   3
ENDBRANCH   1   2
BRANCH   1   6
HETATM    6  C5  UNL     1      25.504   1.468  51.194  1.00  0.00     0.166 C 
BRANCH   6   7
HETATM    7  C6  UNL     1      26.557   0.935  52.054  1.00  0.00    -0.007 A 
HETATM    8  C7  UNL     1      26.596  -0.444  52.285  1.00  0.00     0.011 A 
HETATM    9  C8  UNL     1      27.508  -1.104  53.082  1.00  0.00     0.001 A 
HETATM   10  C9  UNL     1      28.463  -0.326  53.704  1.00  0.00     0.009 A 
HETATM   11  C10 UNL     1      28.500   1.048  53.533  1.00  0.00    -0.028 A 
HETATM   12  C11 UNL     1      29.534   1.879  54.209  1.00  0.00     0.051 C 
HETATM   13  C12 UNL     1      27.554   1.617  52.721  1.00  0.00     0.079 A 
BRANCH  13  14
HETATM   14  O1  UNL     1      27.616   2.978  52.567  1.00  0.00    -0.360 OA
HETATM   15  H18 UNL     1      26.930   3.541  53.053  1.00  0.00     0.217 HD
ENDBRANCH  13  14
ENDBRANCH   6   7
ENDBRANCH   1   6
BRANCH   1  16
HETATM   16  C13 UNL     1      24.152   3.528  51.376  1.00  0.00     0.176 C 
HETATM   17  S1  UNL     1      23.556   4.782  52.241  1.00  0.00    -0.041 SA
BRANCH  16  18
HETATM   18  N2  UNL     1      24.387   3.961  50.013  1.00  0.00    -0.314 N 
HETATM   19  H19 UNL     1      23.967   3.823  49.045  1.00  0.00     0.170 HD
BRANCH  18  20
HETATM   20  C14 UNL     1      25.402   4.823  49.537  1.00  0.00     0.144 A 
HETATM   21  C15 UNL     1      26.476   4.134  49.179  1.00  0.00     0.056 A 
HETATM   22  C16 UNL     1      27.664   4.842  48.648  1.00  0.00     0.002 A 
HETATM   23  C17 UNL     1      27.590   6.154  48.556  1.00  0.00    -0.000 A 
HETATM   24  C18 UNL     1      26.444   6.993  48.928  1.00  0.00     0.204 A 
HETATM   25  O2  UNL     1      25.412   6.193  49.409  1.00  0.00    -0.332 OA
ENDBRANCH  18  20
ENDBRANCH  16  18
ENDBRANCH   1  16
TORSDOF 9
ENDMDL
MODEL 6
REMARK VINA RESULT:      -6.8      2.228      5.739
REMARK  9 active torsions:
REMARK  status: ('A' for Active; 'I' for Inactive)
REMARK    1  A    between atoms: C2_2  and  C3_3 
REMARK    2  A    between atoms: C3_3  and  C4_4 
REMARK    3  A    between atoms: C4_4  and  N1_5 
REMARK    4  A    between atoms: N1_5  and  C5_6 
REMARK    5  A    between atoms: N1_5  and  C13_15 
REMARK    6  A    between atoms: C5_6  and  C6_7 
REMARK    7  A    between atoms: C12_13  and  O1_14 
REMARK    8  A    between atoms: C13_15  and  N2_17 
REMARK    9  A    between atoms: N2_17  and  C14_18 
ROOT
HETATM    1  N1  UNL     1      23.933   2.577  51.261  1.00  0.00    -0.354 N 
ENDROOT
BRANCH   1   2
HETATM    2  C4  UNL     1      23.285   2.278  50.031  1.00  0.00     0.125 C 
BRANCH   2   3
HETATM    3  C3  UNL     1      22.210   3.207  49.577  1.00  0.00     0.020 C 
BRANCH   3   4
HETATM    4  C2  UNL     1      21.201   2.318  48.818  1.00  0.00    -0.003 C 
HETATM    5  C1  UNL     1      21.411   0.870  49.164  1.00  0.00     0.005 C 
ENDBRANCH   3   4
ENDBRANCH   2   3
ENDBRANCH   1   2
BRANCH   1   6
HETATM    6  C5  UNL     1      23.169   2.584  52.465  1.00  0.00     0.166 C 
BRANCH   6   7
HETATM    7  C6  UNL     1      22.547   1.329  52.880  1.00  0.00    -0.007 A 
HETATM    8  C7  UNL     1      23.367   0.306  53.365  1.00  0.00     0.011 A 
HETATM    9  C8  UNL     1      22.945  -0.941  53.779  1.00  0.00     0.001 A 
HETATM   10  C9  UNL     1      21.590  -1.192  53.701  1.00  0.00     0.009 A 
HETATM   11  C10 UNL     1      20.703  -0.237  53.232  1.00  0.00    -0.028 A 
HETATM   12  C11 UNL     1      19.243  -0.518  53.152  1.00  0.00     0.051 C 
HETATM   13  C12 UNL     1      21.214   0.975  52.844  1.00  0.00     0.079 A 
BRANCH  13  14
HETATM   14  O1  UNL     1      20.314   1.902  52.387  1.00  0.00    -0.360 OA
HETATM   15  H18 UNL     1      20.409   2.855  52.714  1.00  0.00     0.217 HD
ENDBRANCH  13  14
ENDBRANCH   6   7
ENDBRANCH   1   6
BRANCH   1  16
HETATM   16  C13 UNL     1      25.349   2.887  51.345  1.00  0.00     0.176 C 
HETATM   17  S1  UNL     1      26.374   3.302  50.140  1.00  0.00    -0.041 SA
BRANCH  16  18
HETATM   18  N2  UNL     1      26.074   2.867  52.600  1.00  0.00    -0.314 N 
HETATM   19  H19 UNL     1      26.174   3.462  53.477  1.00  0.00     0.170 HD
BRANCH  18  20
HETATM   20  C14 UNL     1      26.987   1.891  53.061  1.00  0.00     0.144 A 
HETATM   21  C15 UNL     1      26.733   0.712  52.515  1.00  0.00     0.056 A 
HETATM   22  C16 UNL     1      27.573  -0.458  52.861  1.00  0.00     0.002 A 
HETATM   23  C17 UNL     1      28.556  -0.261  53.714  1.00  0.00    -0.000 A 
HETATM   24  C18 UNL     1      28.908   1.008  54.363  1.00  0.00     0.204 A 
HETATM   25  O2  UNL     1      28.035   2.008  53.946  1.00  0.00    -0.332 OA
ENDBRANCH  18  20
ENDBRANCH  16  18
ENDBRANCH   1  16
TORSDOF 9
ENDMDL
MODEL 7
REMARK VINA RESULT:      -6.8      3.242      6.431
REMARK  9 active torsions:
REMARK  status: ('A' for Active; 'I' for Inactive)
REMARK    1  A    between atoms: C2_2  and  C3_3 
REMARK    2  A    between atoms: C3_3  and  C4_4 
REMARK    3  A    between atoms: C4_4  and  N1_5 
REMARK    4  A    between atoms: N1_5  and  C5_6 
REMARK    5  A    between atoms: N1_5  and  C13_15 
REMARK    6  A    between atoms: C5_6  and  C6_7 
REMARK    7  A    between atoms: C12_13  and  O1_14 
REMARK    8  A    between atoms: C13_15  and  N2_17 
REMARK    9  A    between atoms: N2_17  and  C14_18 
ROOT
HETATM    1  N1  UNL     1      22.264   4.421  50.686  1.00  0.00    -0.354 N 
ENDROOT
BRANCH   1   2
HETATM    2  C4  UNL     1      21.827   3.793  49.487  1.00  0.00     0.125 C 
BRANCH   2   3
HETATM    3  C3  UNL     1      22.874   3.231  48.585  1.00  0.00     0.020 C 
BRANCH   3   4
HETATM    4  C2  UNL     1      22.300   1.887  48.088  1.00  0.00    -0.003 C 
HETATM    5  C1  UNL     1      20.962   1.621  48.719  1.00  0.00     0.005 C 
ENDBRANCH   3   4
ENDBRANCH   2   3
ENDBRANCH   1   2
BRANCH   1   6
HETATM    6  C5  UNL     1      21.970   3.806  51.940  1.00  0.00     0.166 C 
BRANCH   6   7
HETATM    7  C6  UNL     1      22.777   2.653  52.334  1.00  0.00    -0.007 A 
HETATM    8  C7  UNL     1      22.255   1.372  52.133  1.00  0.00     0.011 A 
HETATM    9  C8  UNL     1      22.875   0.185  52.465  1.00  0.00     0.001 A 
HETATM   10  C9  UNL     1      24.122   0.282  53.049  1.00  0.00     0.009 A 
HETATM   11  C10 UNL     1      24.716   1.510  53.287  1.00  0.00    -0.028 A 
HETATM   12  C11 UNL     1      26.062   1.603  53.916  1.00  0.00     0.051 C 
HETATM   13  C12 UNL     1      24.025   2.636  52.921  1.00  0.00     0.079 A 
BRANCH  13  14
HETATM   14  O1  UNL     1      24.639   3.838  53.165  1.00  0.00    -0.360 OA
HETATM   15  H18 UNL     1      25.603   3.824  53.469  1.00  0.00     0.217 HD
ENDBRANCH  13  14
ENDBRANCH   6   7
ENDBRANCH   1   6
BRANCH   1  16
HETATM   16  C13 UNL     1      22.995   5.676  50.692  1.00  0.00     0.176 C 
HETATM   17  S1  UNL     1      22.441   7.178  50.358  1.00  0.00    -0.041 SA
BRANCH  16  18
HETATM   18  N2  UNL     1      24.404   5.751  51.022  1.00  0.00    -0.314 N 
HETATM   19  H19 UNL     1      25.021   5.833  51.885  1.00  0.00     0.170 HD
BRANCH  18  20
HETATM   20  C14 UNL     1      25.506   5.732  50.137  1.00  0.00     0.144 A 
HETATM   21  C15 UNL     1      25.943   4.495  49.955  1.00  0.00     0.056 A 
HETATM   22  C16 UNL     1      27.096   4.244  49.059  1.00  0.00     0.002 A 
HETATM   23  C17 UNL     1      27.641   5.289  48.475  1.00  0.00    -0.000 A 
HETATM   24  C18 UNL     1      27.222   6.689  48.619  1.00  0.00     0.204 A 
HETATM   25  O2  UNL     1      26.138   6.768  49.487  1.00  0.00    -0.332 OA
ENDBRANCH  18  20
ENDBRANCH  16  18
ENDBRANCH   1  16
TORSDOF 9
ENDMDL
MODEL 8
REMARK VINA RESULT:      -6.5      2.450      5.024
REMARK  9 active torsions:
REMARK  status: ('A' for Active; 'I' for Inactive)
REMARK    1  A    between atoms: C2_2  and  C3_3 
REMARK    2  A    between atoms: C3_3  and  C4_4 
REMARK    3  A    between atoms: C4_4  and  N1_5 
REMARK    4  A    between atoms: N1_5  and  C5_6 
REMARK    5  A    between atoms: N1_5  and  C13_15 
REMARK    6  A    between atoms: C5_6  and  C6_7 
REMARK    7  A    between atoms: C12_13  and  O1_14 
REMARK    8  A    between atoms: C13_15  and  N2_17 
REMARK    9  A    between atoms: N2_17  and  C14_18 
ROOT
HETATM    1  N1  UNL     1      26.054   1.566  52.372  1.00  0.00    -0.354 N 
ENDROOT
BRANCH   1   2
HETATM    2  C4  UNL     1      26.791   2.136  53.446  1.00  0.00     0.125 C 
BRANCH   2   3
HETATM    3  C3  UNL     1      28.279   2.064  53.374  1.00  0.00     0.020 C 
BRANCH   3   4
HETATM    4  C2  UNL     1      28.679   0.956  54.371  1.00  0.00    -0.003 C 
HETATM    5  C1  UNL     1      29.303  -0.204  53.646  1.00  0.00     0.005 C 
ENDBRANCH   3   4
ENDBRANCH   2   3
ENDBRANCH   1   2
BRANCH   1   6
HETATM    6  C5  UNL     1      25.737   0.175  52.408  1.00  0.00     0.166 C 
BRANCH   6   7
HETATM    7  C6  UNL     1      24.790  -0.276  53.424  1.00  0.00    -0.007 A 
HETATM    8  C7  UNL     1      25.291  -0.786  54.625  1.00  0.00     0.011 A 
HETATM    9  C8  UNL     1      24.539  -1.270  55.675  1.00  0.00     0.001 A 
HETATM   10  C9  UNL     1      23.168  -1.246  55.515  1.00  0.00     0.009 A 
HETATM   11  C10 UNL     1      22.583  -0.760  54.358  1.00  0.00    -0.028 A 
HETATM   12  C11 UNL     1      21.103  -0.737  54.196  1.00  0.00     0.051 C 
HETATM   13  C12 UNL     1      23.411  -0.298  53.368  1.00  0.00     0.079 A 
BRANCH  13  14
HETATM   14  O1  UNL     1      22.806   0.182  52.236  1.00  0.00    -0.360 OA
HETATM   15  H18 UNL     1      21.795   0.184  52.205  1.00  0.00     0.217 HD
ENDBRANCH  13  14
ENDBRANCH   6   7
ENDBRANCH   1   6
BRANCH   1  16
HETATM   16  C13 UNL     1      25.616   2.340  51.225  1.00  0.00     0.176 C 
HETATM   17  S1  UNL     1      26.491   3.354  50.286  1.00  0.00    -0.041 SA
BRANCH  16  18
HETATM   18  N2  UNL     1      24.251   2.301  50.738  1.00  0.00    -0.314 N 
HETATM   19  H19 UNL     1      23.599   1.627  50.235  1.00  0.00     0.170 HD
BRANCH  18  20
HETATM   20  C14 UNL     1      23.269   3.315  50.821  1.00  0.00     0.144 A 
HETATM   21  C15 UNL     1      23.179   3.785  52.056  1.00  0.00     0.056 A 
HETATM   22  C16 UNL     1      22.208   4.859  52.368  1.00  0.00     0.002 A 
HETATM   23  C17 UNL     1      21.466   5.304  51.376  1.00  0.00    -0.000 A 
HETATM   24  C18 UNL     1      21.501   4.842  49.983  1.00  0.00     0.204 A 
HETATM   25  O2  UNL     1      22.452   3.837  49.844  1.00  0.00    -0.332 OA
ENDBRANCH  18  20
ENDBRANCH  16  18
ENDBRANCH   1  16
TORSDOF 9
ENDMDL
MODEL 9
REMARK VINA RESULT:      -6.5      2.246      6.091
REMARK  9 active torsions:
REMARK  status: ('A' for Active; 'I' for Inactive)
REMARK    1  A    between atoms: C2_2  and  C3_3 
REMARK    2  A    between atoms: C3_3  and  C4_4 
REMARK    3  A    between atoms: C4_4  and  N1_5 
REMARK    4  A    between atoms: N1_5  and  C5_6 
REMARK    5  A    between atoms: N1_5  and  C13_15 
REMARK    6  A    between atoms: C5_6  and  C6_7 
REMARK    7  A    between atoms: C12_13  and  O1_14 
REMARK    8  A    between atoms: C13_15  and  N2_17 
REMARK    9  A    between atoms: N2_17  and  C14_18 
ROOT
HETATM    1  N1  UNL     1      23.474   2.523  51.148  1.00  0.00    -0.354 N 
ENDROOT
BRANCH   1   2
HETATM    2  C4  UNL     1      22.440   1.610  51.494  1.00  0.00     0.125 C 
BRANCH   2   3
HETATM    3  C3  UNL     1      22.350   1.184  52.921  1.00  0.00     0.020 C 
BRANCH   3   4
HETATM    4  C2  UNL     1      22.626  -0.335  52.908  1.00  0.00    -0.003 C 
HETATM    5  C1  UNL     1      23.312  -0.756  54.177  1.00  0.00     0.005 C 
ENDBRANCH   3   4
ENDBRANCH   2   3
ENDBRANCH   1   2
BRANCH   1   6
HETATM    6  C5  UNL     1      23.909   2.597  49.791  1.00  0.00     0.166 C 
BRANCH   6   7
HETATM    7  C6  UNL     1      24.774   3.714  49.418  1.00  0.00    -0.007 A 
HETATM    8  C7  UNL     1      26.156   3.507  49.388  1.00  0.00     0.011 A 
HETATM    9  C8  UNL     1      27.109   4.455  49.076  1.00  0.00     0.001 A 
HETATM   10  C9  UNL     1      26.645   5.719  48.770  1.00  0.00     0.009 A 
HETATM   11  C10 UNL     1      25.292   6.015  48.776  1.00  0.00    -0.028 A 
HETATM   12  C11 UNL     1      24.803   7.381  48.444  1.00  0.00     0.051 C 
HETATM   13  C12 UNL     1      24.419   5.008  49.096  1.00  0.00     0.079 A 
BRANCH  13  14
HETATM   14  O1  UNL     1      23.086   5.327  49.091  1.00  0.00    -0.360 OA
HETATM   15  H18 UNL     1      22.827   6.276  48.852  1.00  0.00     0.217 HD
ENDBRANCH  13  14
ENDBRANCH   6   7
ENDBRANCH   1   6
BRANCH   1  16
HETATM   16  C13 UNL     1      24.118   3.384  52.124  1.00  0.00     0.176 C 
HETATM   17  S1  UNL     1      23.532   4.736  52.833  1.00  0.00    -0.041 SA
BRANCH  16  18
HETATM   18  N2  UNL     1      25.453   3.125  52.624  1.00  0.00    -0.314 N 
HETATM   19  H19 UNL     1      26.362   3.653  52.792  1.00  0.00     0.170 HD
BRANCH  18  20
HETATM   20  C14 UNL     1      25.983   1.903  53.098  1.00  0.00     0.144 A 
HETATM   21  C15 UNL     1      26.162   1.048  52.102  1.00  0.00     0.056 A 
HETATM   22  C16 UNL     1      26.711  -0.300  52.376  1.00  0.00     0.002 A 
HETATM   23  C17 UNL     1      27.000  -0.588  53.627  1.00  0.00    -0.000 A 
HETATM   24  C18 UNL     1      26.835   0.296  54.788  1.00  0.00     0.204 A 
HETATM   25  O2  UNL     1      26.311   1.518  54.378  1.00  0.00    -0.332 OA
ENDBRANCH  18  20
ENDBRANCH  16  18
ENDBRANCH   1  16
TORSDOF 9
ENDMDL
