MODEL 1
REMARK VINA RESULT:      -7.2      0.000      0.000
REMARK  7 active torsions:
REMARK  status: ('A' for Active; 'I' for Inactive)
REMARK    1  A    between atoms: C2_2  and  C3_3 
REMARK    2  A    between atoms: C3_3  and  C4_4 
REMARK    3  A    between atoms: C5_5  and  C6_6 
REMARK       I    between atoms: C6_6  and  N1_8 
REMARK    4  A    between atoms: N1_8  and  C7_9 
REMARK    5  A    between atoms: C12_16  and  N4_17 
REMARK    6  A    between atoms: N4_17  and  C13_18 
REMARK    7  A    between atoms: C13_18  and  C14_19 
ROOT
HETATM    1  C7  UNL     1      25.493   2.385  52.068  1.00  0.00     0.014 C 
HETATM    2  C8  UNL     1      25.738   1.087  52.144  1.00  0.00     0.005 C 
HETATM    3  C9  UNL     1      24.811   0.194  52.889  1.00  0.00     0.089 C 
HETATM    4  C10 UNL     1      23.444   0.742  52.680  1.00  0.00     0.049 A 
HETATM    5  N2  UNL     1      22.432  -0.159  52.582  1.00  0.00    -0.245 NA
HETATM    6  C11 UNL     1      21.170   0.204  52.398  1.00  0.00     0.235 A 
HETATM    7  N3  UNL     1      20.910   1.518  52.306  1.00  0.00    -0.224 NA
HETATM    8  C12 UNL     1      21.867   2.458  52.395  1.00  0.00     0.133 A 
HETATM    9  C19 UNL     1      23.194   2.097  52.587  1.00  0.00     0.018 A 
HETATM   10  C20 UNL     1      24.306   3.078  52.693  1.00  0.00     0.101 C 
ENDROOT
BRANCH   8  11
HETATM   11  N4  UNL     1      21.520   3.832  52.292  1.00  0.00    -0.370 N 
HETATM   12  H13 UNL     1      21.663   4.530  53.038  1.00  0.00     0.161 HD
BRANCH  11  13
HETATM   13  C13 UNL     1      20.918   4.324  51.068  1.00  0.00     0.157 C 
BRANCH  13  14
HETATM   14  C14 UNL     1      21.928   5.005  50.192  1.00  0.00    -0.043 A 
HETATM   15  C15 UNL     1      22.001   4.703  48.904  1.00  0.00     0.094 A 
HETATM   16  N5  UNL     1      22.986   5.394  48.142  1.00  0.00    -0.357 N 
HETATM   17  C16 UNL     1      23.863   6.363  48.694  1.00  0.00     0.099 A 
HETATM   18  H17 UNL     1      23.051   5.167  47.140  1.00  0.00     0.166 HD
HETATM   19 CL1  UNL     1      25.074   7.211  47.753  1.00  0.00    -0.065 Cl
HETATM   20  C17 UNL     1      23.733   6.614  49.992  1.00  0.00     0.020 A 
HETATM   21  C18 UNL     1      22.762   5.988  50.933  1.00  0.00     0.067 A 
ENDBRANCH  13  14
ENDBRANCH  11  13
ENDBRANCH   8  11
BRANCH   1  22
HETATM   22  N1  UNL     1      26.445   3.182  51.326  1.00  0.00    -0.320 N 
HETATM   23  C6  UNL     1      26.161   3.567  49.968  1.00  0.00     0.300 C 
HETATM   24  O1  UNL     1      25.104   3.263  49.323  1.00  0.00    -0.258 OA
HETATM   25  H8  UNL     1      27.376   3.522  51.710  1.00  0.00     0.169 HD
BRANCH  23  26
HETATM   26  C5  UNL     1      27.118   4.368  49.219  1.00  0.00    -0.005 C 
HETATM   27  C4  UNL     1      27.927   5.035  48.613  1.00  0.00    -0.096 C 
BRANCH  27  28
HETATM   28  C3  UNL     1      28.923   5.840  47.897  1.00  0.00     0.094 C 
BRANCH  28  29
HETATM   29  C2  UNL     1      28.602   7.330  48.069  1.00  0.00     0.007 C 
HETATM   30  C1  UNL     1      28.507   7.918  46.675  1.00  0.00     0.006 C 
ENDBRANCH  28  29
ENDBRANCH  27  28
ENDBRANCH  23  26
ENDBRANCH   1  22
TORSDOF 7
ENDMDL
MODEL 2
REMARK VINA RESULT:      -7.0      2.931      5.292
REMARK  7 active torsions:
REMARK  status: ('A' for Active; 'I' for Inactive)
REMARK    1  A    between atoms: C2_2  and  C3_3 
REMARK    2  A    between atoms: C3_3  and  C4_4 
REMARK    3  A    between atoms: C5_5  and  C6_6 
REMARK       I    between atoms: C6_6  and  N1_8 
REMARK    4  A    between atoms: N1_8  and  C7_9 
REMARK    5  A    between atoms: C12_16  and  N4_17 
REMARK    6  A    between atoms: N4_17  and  C13_18 
REMARK    7  A    between atoms: C13_18  and  C14_19 
ROOT
HETATM    1  C7  UNL     1      23.101   2.669  49.754  1.00  0.00     0.014 C 
HETATM    2  C8  UNL     1      22.010   2.518  49.022  1.00  0.00     0.005 C 
HETATM    3  C9  UNL     1      21.177   1.293  49.162  1.00  0.00     0.089 C 
HETATM    4  C10 UNL     1      21.241   0.908  50.598  1.00  0.00     0.049 A 
HETATM    5  N2  UNL     1      20.115   0.371  51.136  1.00  0.00    -0.245 NA
HETATM    6  C11 UNL     1      20.045  -0.014  52.404  1.00  0.00     0.235 A 
HETATM    7  N3  UNL     1      21.142   0.145  53.162  1.00  0.00    -0.224 NA
HETATM    8  C12 UNL     1      22.285   0.670  52.687  1.00  0.00     0.133 A 
HETATM    9  C19 UNL     1      22.377   1.079  51.363  1.00  0.00     0.018 A 
HETATM   10  C20 UNL     1      23.605   1.669  50.768  1.00  0.00     0.101 C 
ENDROOT
BRANCH   8  11
HETATM   11  N4  UNL     1      23.410   0.807  53.545  1.00  0.00    -0.370 N 
HETATM   12  H13 UNL     1      23.860   1.703  53.782  1.00  0.00     0.161 HD
BRANCH  11  13
HETATM   13  C13 UNL     1      23.992  -0.377  54.148  1.00  0.00     0.157 C 
BRANCH  13  14
HETATM   14  C14 UNL     1      25.490  -0.360  54.059  1.00  0.00    -0.043 A 
HETATM   15  C15 UNL     1      26.215  -0.028  55.118  1.00  0.00     0.094 A 
HETATM   16  N5  UNL     1      27.629  -0.037  54.951  1.00  0.00    -0.357 N 
HETATM   17  C16 UNL     1      28.270  -0.379  53.732  1.00  0.00     0.099 A 
HETATM   18  H17 UNL     1      28.201   0.219  55.768  1.00  0.00     0.166 HD
HETATM   19 CL1  UNL     1      30.011  -0.390  53.531  1.00  0.00    -0.065 Cl
HETATM   20  C17 UNL     1      27.480  -0.701  52.714  1.00  0.00     0.020 A 
HETATM   21  C18 UNL     1      25.990  -0.744  52.713  1.00  0.00     0.067 A 
ENDBRANCH  13  14
ENDBRANCH  11  13
ENDBRANCH   8  11
BRANCH   1  22
HETATM   22  N1  UNL     1      23.853   3.888  49.554  1.00  0.00    -0.320 N 
HETATM   23  C6  UNL     1      25.277   3.832  49.351  1.00  0.00     0.300 C 
HETATM   24  O1  UNL     1      25.976   2.766  49.327  1.00  0.00    -0.258 OA
HETATM   25  H8  UNL     1      23.430   4.863  49.545  1.00  0.00     0.169 HD
BRANCH  23  26
HETATM   26  C5  UNL     1      26.036   5.058  49.150  1.00  0.00    -0.005 C 
HETATM   27  C4  UNL     1      26.675   6.070  48.965  1.00  0.00    -0.096 C 
BRANCH  27  28
HETATM   28  C3  UNL     1      27.453   7.288  48.716  1.00  0.00     0.094 C 
BRANCH  28  29
HETATM   29  C2  UNL     1      28.552   6.997  47.686  1.00  0.00     0.007 C 
HETATM   30  C1  UNL     1      29.245   5.727  48.135  1.00  0.00     0.006 C 
ENDBRANCH  28  29
ENDBRANCH  27  28
ENDBRANCH  23  26
ENDBRANCH   1  22
TORSDOF 7
ENDMDL
MODEL 3
REMARK VINA RESULT:      -6.9      3.754      6.300
REMARK  7 active torsions:
REMARK  status: ('A' for Active; 'I' for Inactive)
REMARK    1  A    between atoms: C2_2  and  C3_3 
REMARK    2  A    between atoms: C3_3  and  C4_4 
REMARK    3  A    between atoms: C5_5  and  C6_6 
REMARK       I    between atoms: C6_6  and  N1_8 
REMARK    4  A    between atoms: N1_8  and  C7_9 
REMARK    5  A    between atoms: C12_16  and  N4_17 
REMARK    6  A    between atoms: N4_17  and  C13_18 
REMARK    7  A    between atoms: C13_18  and  C14_19 
ROOT
HETATM    1  C7  UNL     1      23.981   3.472  51.557  1.00  0.00     0.014 C 
HETATM    2  C8  UNL     1      23.907   4.791  51.622  1.00  0.00     0.005 C 
HETATM    3  C9  UNL     1      22.943   5.530  50.764  1.00  0.00     0.089 C 
HETATM    4  C10 UNL     1      21.739   4.664  50.647  1.00  0.00     0.049 A 
HETATM    5  N2  UNL     1      20.536   5.293  50.594  1.00  0.00    -0.245 NA
HETATM    6  C11 UNL     1      19.391   4.633  50.486  1.00  0.00     0.235 A 
HETATM    7  N3  UNL     1      19.450   3.292  50.432  1.00  0.00    -0.224 NA
HETATM    8  C12 UNL     1      20.609   2.612  50.480  1.00  0.00     0.133 A 
HETATM    9  C19 UNL     1      21.819   3.287  50.592  1.00  0.00     0.018 A 
HETATM   10  C20 UNL     1      23.138   2.604  50.653  1.00  0.00     0.101 C 
ENDROOT
BRANCH   8  11
HETATM   11  N4  UNL     1      20.599   1.192  50.413  1.00  0.00    -0.370 N 
HETATM   12  H13 UNL     1      21.115   0.635  49.717  1.00  0.00     0.161 HD
BRANCH  11  13
HETATM   13  C13 UNL     1      19.818   0.442  51.377  1.00  0.00     0.157 C 
BRANCH  13  14
HETATM   14  C14 UNL     1      20.663  -0.029  52.524  1.00  0.00    -0.043 A 
HETATM   15  C15 UNL     1      20.132  -0.158  53.732  1.00  0.00     0.094 A 
HETATM   16  N5  UNL     1      21.001  -0.610  54.765  1.00  0.00    -0.357 N 
HETATM   17  C16 UNL     1      22.369  -0.919  54.556  1.00  0.00     0.099 A 
HETATM   18  H17 UNL     1      20.597  -0.714  55.707  1.00  0.00     0.166 HD
HETATM   19 CL1  UNL     1      23.435  -1.477  55.831  1.00  0.00    -0.065 Cl
HETATM   20  C17 UNL     1      22.833  -0.767  53.321  1.00  0.00     0.020 A 
HETATM   21  C18 UNL     1      22.068  -0.306  52.128  1.00  0.00     0.067 A 
ENDBRANCH  13  14
ENDBRANCH  11  13
ENDBRANCH   8  11
BRANCH   1  22
HETATM   22  N1  UNL     1      24.945   2.832  52.424  1.00  0.00    -0.320 N 
HETATM   23  C6  UNL     1      26.219   2.412  51.900  1.00  0.00     0.300 C 
HETATM   24  O1  UNL     1      26.602   2.555  50.693  1.00  0.00    -0.258 OA
HETATM   25  H8  UNL     1      24.790   2.635  53.457  1.00  0.00     0.169 HD
BRANCH  23  26
HETATM   26  C5  UNL     1      27.191   1.768  52.771  1.00  0.00    -0.005 C 
HETATM   27  C4  UNL     1      28.016   1.237  53.482  1.00  0.00    -0.096 C 
BRANCH  27  28
HETATM   28  C3  UNL     1      29.033   0.607  54.330  1.00  0.00     0.094 C 
BRANCH  28  29
HETATM   29  C2  UNL     1      29.971  -0.245  53.464  1.00  0.00     0.007 C 
HETATM   30  C1  UNL     1      29.377  -1.639  53.420  1.00  0.00     0.006 C 
ENDBRANCH  28  29
ENDBRANCH  27  28
ENDBRANCH  23  26
ENDBRANCH   1  22
TORSDOF 7
ENDMDL
MODEL 4
REMARK VINA RESULT:      -6.8      2.954      6.351
REMARK  7 active torsions:
REMARK  status: ('A' for Active; 'I' for Inactive)
REMARK    1  A    between atoms: C2_2  and  C3_3 
REMARK    2  A    between atoms: C3_3  and  C4_4 
REMARK    3  A    between atoms: C5_5  and  C6_6 
REMARK       I    between atoms: C6_6  and  N1_8 
REMARK    4  A    between atoms: N1_8  and  C7_9 
REMARK    5  A    between atoms: C12_16  and  N4_17 
REMARK    6  A    between atoms: N4_17  and  C13_18 
REMARK    7  A    between atoms: C13_18  and  C14_19 
ROOT
HETATM    1  C7  UNL     1      26.194   3.672  49.513  1.00  0.00     0.014 C 
HETATM    2  C8  UNL     1      27.199   4.444  49.135  1.00  0.00     0.005 C 
HETATM    3  C9  UNL     1      26.936   5.810  48.607  1.00  0.00     0.089 C 
HETATM    4  C10 UNL     1      25.763   6.329  49.359  1.00  0.00     0.049 A 
HETATM    5  N2  UNL     1      25.755   7.659  49.637  1.00  0.00    -0.245 NA
HETATM    6  C11 UNL     1      24.765   8.243  50.300  1.00  0.00     0.235 A 
HETATM    7  N3  UNL     1      23.745   7.467  50.701  1.00  0.00    -0.224 NA
HETATM    8  C12 UNL     1      23.694   6.147  50.456  1.00  0.00     0.133 A 
HETATM    9  C19 UNL     1      24.722   5.518  49.764  1.00  0.00     0.018 A 
HETATM   10  C20 UNL     1      24.737   4.063  49.458  1.00  0.00     0.101 C 
ENDROOT
BRANCH   8  11
HETATM   11  N4  UNL     1      22.581   5.386  50.906  1.00  0.00    -0.370 N 
HETATM   12  H13 UNL     1      21.697   5.279  50.388  1.00  0.00     0.161 HD
BRANCH  11  13
HETATM   13  C13 UNL     1      22.659   4.700  52.181  1.00  0.00     0.157 C 
BRANCH  13  14
HETATM   14  C14 UNL     1      21.750   3.507  52.222  1.00  0.00    -0.043 A 
HETATM   15  C15 UNL     1      20.441   3.664  52.084  1.00  0.00     0.094 A 
HETATM   16  N5  UNL     1      19.648   2.482  52.134  1.00  0.00    -0.357 N 
HETATM   17  C16 UNL     1      20.190   1.185  52.319  1.00  0.00     0.099 A 
HETATM   18  H17 UNL     1      18.630   2.594  52.027  1.00  0.00     0.166 HD
HETATM   19 CL1  UNL     1      19.211  -0.267  52.379  1.00  0.00    -0.065 Cl
HETATM   20  C17 UNL     1      21.510   1.104  52.450  1.00  0.00     0.020 A 
HETATM   21  C18 UNL     1      22.484   2.231  52.422  1.00  0.00     0.067 A 
ENDBRANCH  13  14
ENDBRANCH  11  13
ENDBRANCH   8  11
BRANCH   1  22
HETATM   22  N1  UNL     1      26.538   2.359  50.013  1.00  0.00    -0.320 N 
HETATM   23  C6  UNL     1      26.315   2.033  51.397  1.00  0.00     0.300 C 
HETATM   24  O1  UNL     1      25.819   2.821  52.268  1.00  0.00    -0.258 OA
HETATM   25  H8  UNL     1      26.961   1.581  49.424  1.00  0.00     0.169 HD
BRANCH  23  26
HETATM   26  C5  UNL     1      26.661   0.713  51.903  1.00  0.00    -0.005 C 
HETATM   27  C4  UNL     1      26.929  -0.388  52.331  1.00  0.00    -0.096 C 
BRANCH  27  28
HETATM   28  C3  UNL     1      27.229  -1.726  52.854  1.00  0.00     0.094 C 
BRANCH  28  29
HETATM   29  C2  UNL     1      28.749  -1.913  52.946  1.00  0.00     0.007 C 
HETATM   30  C1  UNL     1      29.265  -0.836  53.879  1.00  0.00     0.006 C 
ENDBRANCH  28  29
ENDBRANCH  27  28
ENDBRANCH  23  26
ENDBRANCH   1  22
TORSDOF 7
ENDMDL
MODEL 5
REMARK VINA RESULT:      -6.8      3.273      5.740
REMARK  7 active torsions:
REMARK  status: ('A' for Active; 'I' for Inactive)
REMARK    1  A    between atoms: C2_2  and  C3_3 
REMARK    2  A    between atoms: C3_3  and  C4_4 
REMARK    3  A    between atoms: C5_5  and  C6_6 
REMARK       I    between atoms: C6_6  and  N1_8 
REMARK    4  A    between atoms: N1_8  and  C7_9 
REMARK    5  A    between atoms: C12_16  and  N4_17 
REMARK    6  A    between atoms: N4_17  and  C13_18 
REMARK    7  A    between atoms: C13_18  and  C14_19 
ROOT
HETATM    1  C7  UNL     1      26.084   4.936  49.427  1.00  0.00     0.014 C 
HETATM    2  C8  UNL     1      25.693   6.187  49.607  1.00  0.00     0.005 C 
HETATM    3  C9  UNL     1      24.261   6.493  49.872  1.00  0.00     0.089 C 
HETATM    4  C10 UNL     1      23.737   5.363  50.685  1.00  0.00     0.049 A 
HETATM    5  N2  UNL     1      22.810   5.670  51.630  1.00  0.00    -0.245 NA
HETATM    6  C11 UNL     1      22.265   4.752  52.417  1.00  0.00     0.235 A 
HETATM    7  N3  UNL     1      22.663   3.480  52.255  1.00  0.00    -0.224 NA
HETATM    8  C12 UNL     1      23.575   3.114  51.337  1.00  0.00     0.133 A 
HETATM    9  C19 UNL     1      24.157   4.061  50.505  1.00  0.00     0.018 A 
HETATM   10  C20 UNL     1      25.172   3.733  49.470  1.00  0.00     0.101 C 
ENDROOT
BRANCH   8  11
HETATM   11  N4  UNL     1      23.947   1.747  51.217  1.00  0.00    -0.370 N 
HETATM   12  H13 UNL     1      24.289   1.308  50.350  1.00  0.00     0.161 HD
BRANCH  11  13
HETATM   13  C13 UNL     1      23.851   0.880  52.374  1.00  0.00     0.157 C 
BRANCH  13  14
HETATM   14  C14 UNL     1      25.205   0.431  52.841  1.00  0.00    -0.043 A 
HETATM   15  C15 UNL     1      25.328  -0.240  53.977  1.00  0.00     0.094 A 
HETATM   16  N5  UNL     1      26.646  -0.630  54.348  1.00  0.00    -0.357 N 
HETATM   17  C16 UNL     1      27.796  -0.335  53.572  1.00  0.00     0.099 A 
HETATM   18  H17 UNL     1      26.752  -1.152  55.229  1.00  0.00     0.166 HD
HETATM   19 CL1  UNL     1      29.417  -0.817  54.032  1.00  0.00    -0.065 Cl
HETATM   20  C17 UNL     1      27.597   0.341  52.445  1.00  0.00     0.020 A 
HETATM   21  C18 UNL     1      26.294   0.824  51.908  1.00  0.00     0.067 A 
ENDBRANCH  13  14
ENDBRANCH  11  13
ENDBRANCH   8  11
BRANCH   1  22
HETATM   22  N1  UNL     1      27.492   4.727  49.173  1.00  0.00    -0.320 N 
HETATM   23  C6  UNL     1      28.218   5.644  48.333  1.00  0.00     0.300 C 
HETATM   24  O1  UNL     1      27.722   6.672  47.766  1.00  0.00    -0.258 OA
HETATM   25  H8  UNL     1      28.062   3.921  49.566  1.00  0.00     0.169 HD
BRANCH  23  26
HETATM   26  C5  UNL     1      29.635   5.436  48.076  1.00  0.00    -0.005 C 
HETATM   27  C4  UNL     1      30.815   5.249  47.878  1.00  0.00    -0.096 C 
BRANCH  27  28
HETATM   28  C3  UNL     1      32.244   5.004  47.655  1.00  0.00     0.094 C 
BRANCH  28  29
HETATM   29  C2  UNL     1      32.466   3.526  47.309  1.00  0.00     0.007 C 
HETATM   30  C1  UNL     1      33.964   3.318  47.226  1.00  0.00     0.006 C 
ENDBRANCH  28  29
ENDBRANCH  27  28
ENDBRANCH  23  26
ENDBRANCH   1  22
TORSDOF 7
ENDMDL
MODEL 6
REMARK VINA RESULT:      -6.7      2.555      5.634
REMARK  7 active torsions:
REMARK  status: ('A' for Active; 'I' for Inactive)
REMARK    1  A    between atoms: C2_2  and  C3_3 
REMARK    2  A    between atoms: C3_3  and  C4_4 
REMARK    3  A    between atoms: C5_5  and  C6_6 
REMARK       I    between atoms: C6_6  and  N1_8 
REMARK    4  A    between atoms: N1_8  and  C7_9 
REMARK    5  A    between atoms: C12_16  and  N4_17 
REMARK    6  A    between atoms: N4_17  and  C13_18 
REMARK    7  A    between atoms: C13_18  and  C14_19 
ROOT
HETATM    1  C7  UNL     1      23.066   3.157  52.688  1.00  0.00     0.014 C 
HETATM    2  C8  UNL     1      21.853   2.745  52.358  1.00  0.00     0.005 C 
HETATM    3  C9  UNL     1      20.791   3.733  52.026  1.00  0.00     0.089 C 
HETATM    4  C10 UNL     1      21.472   4.860  51.334  1.00  0.00     0.049 A 
HETATM    5  N2  UNL     1      20.780   5.474  50.339  1.00  0.00    -0.245 NA
HETATM    6  C11 UNL     1      21.276   6.492  49.649  1.00  0.00     0.235 A 
HETATM    7  N3  UNL     1      22.512   6.912  49.965  1.00  0.00    -0.224 NA
HETATM    8  C12 UNL     1      23.246   6.347  50.939  1.00  0.00     0.133 A 
HETATM    9  C19 UNL     1      22.743   5.279  51.672  1.00  0.00     0.018 A 
HETATM   10  C20 UNL     1      23.496   4.603  52.761  1.00  0.00     0.101 C 
ENDROOT
BRANCH   8  11
HETATM   11  N4  UNL     1      24.547   6.845  51.223  1.00  0.00    -0.370 N 
HETATM   12  H13 UNL     1      25.172   6.467  51.950  1.00  0.00     0.161 HD
BRANCH  11  13
HETATM   13  C13 UNL     1      25.063   7.963  50.458  1.00  0.00     0.157 C 
BRANCH  13  14
HETATM   14  C14 UNL     1      26.332   7.602  49.742  1.00  0.00    -0.043 A 
HETATM   15  C15 UNL     1      27.340   8.462  49.704  1.00  0.00     0.094 A 
HETATM   16  N5  UNL     1      28.508   8.043  49.005  1.00  0.00    -0.357 N 
HETATM   17  C16 UNL     1      28.628   6.781  48.370  1.00  0.00     0.099 A 
HETATM   18  H17 UNL     1      29.297   8.704  48.970  1.00  0.00     0.166 HD
HETATM   19 CL1  UNL     1      30.068   6.269  47.511  1.00  0.00    -0.065 Cl
HETATM   20  C17 UNL     1      27.578   5.971  48.449  1.00  0.00     0.020 A 
HETATM   21  C18 UNL     1      26.285   6.246  49.136  1.00  0.00     0.067 A 
ENDBRANCH  13  14
ENDBRANCH  11  13
ENDBRANCH   8  11
BRANCH   1  22
HETATM   22  N1  UNL     1      24.037   2.132  52.997  1.00  0.00    -0.320 N 
HETATM   23  C6  UNL     1      25.017   1.745  52.015  1.00  0.00     0.300 C 
HETATM   24  O1  UNL     1      25.120   2.241  50.845  1.00  0.00    -0.258 OA
HETATM   25  H8  UNL     1      24.094   1.614  53.924  1.00  0.00     0.169 HD
BRANCH  23  26
HETATM   26  C5  UNL     1      25.995   0.713  52.324  1.00  0.00    -0.005 C 
HETATM   27  C4  UNL     1      26.823  -0.137  52.567  1.00  0.00    -0.096 C 
BRANCH  27  28
HETATM   28  C3  UNL     1      27.843  -1.151  52.852  1.00  0.00     0.094 C 
BRANCH  28  29
HETATM   29  C2  UNL     1      29.068  -0.485  53.493  1.00  0.00     0.007 C 
HETATM   30  C1  UNL     1      28.609   0.083  54.821  1.00  0.00     0.006 C 
ENDBRANCH  28  29
ENDBRANCH  27  28
ENDBRANCH  23  26
ENDBRANCH   1  22
TORSDOF 7
ENDMDL
MODEL 7
REMARK VINA RESULT:      -6.7      3.435      6.126
REMARK  7 active torsions:
REMARK  status: ('A' for Active; 'I' for Inactive)
REMARK    1  A    between atoms: C2_2  and  C3_3 
REMARK    2  A    between atoms: C3_3  and  C4_4 
REMARK    3  A    between atoms: C5_5  and  C6_6 
REMARK       I    between atoms: C6_6  and  N1_8 
REMARK    4  A    between atoms: N1_8  and  C7_9 
REMARK    5  A    between atoms: C12_16  and  N4_17 
REMARK    6  A    between atoms: N4_17  and  C13_18 
REMARK    7  A    between atoms: C13_18  and  C14_19 
ROOT
HETATM    1  C7  UNL     1      25.298   7.200  50.185  1.00  0.00     0.014 C 
HETATM    2  C8  UNL     1      24.222   7.949  50.007  1.00  0.00     0.005 C 
HETATM    3  C9  UNL     1      22.884   7.316  49.862  1.00  0.00     0.089 C 
HETATM    4  C10 UNL     1      22.891   6.119  50.745  1.00  0.00     0.049 A 
HETATM    5  N2  UNL     1      21.722   5.810  51.364  1.00  0.00    -0.245 NA
HETATM    6  C11 UNL     1      21.598   4.766  52.174  1.00  0.00     0.235 A 
HETATM    7  N3  UNL     1      22.686   4.004  52.374  1.00  0.00    -0.224 NA
HETATM    8  C12 UNL     1      23.870   4.258  51.790  1.00  0.00     0.133 A 
HETATM    9  C19 UNL     1      24.018   5.347  50.940  1.00  0.00     0.018 A 
HETATM   10  C20 UNL     1      25.295   5.692  50.261  1.00  0.00     0.101 C 
ENDROOT
BRANCH   8  11
HETATM   11  N4  UNL     1      24.980   3.407  52.044  1.00  0.00    -0.370 N 
HETATM   12  H13 UNL     1      25.840   3.382  51.476  1.00  0.00     0.161 HD
BRANCH  11  13
HETATM   13  C13 UNL     1      24.935   2.498  53.172  1.00  0.00     0.157 C 
BRANCH  13  14
HETATM   14  C14 UNL     1      26.135   1.597  53.202  1.00  0.00    -0.043 A 
HETATM   15  C15 UNL     1      27.327   2.088  53.508  1.00  0.00     0.094 A 
HETATM   16  N5  UNL     1      28.413   1.167  53.515  1.00  0.00    -0.357 N 
HETATM   17  C16 UNL     1      28.270  -0.212  53.216  1.00  0.00     0.099 A 
HETATM   18  H17 UNL     1      29.344   1.539  53.752  1.00  0.00     0.166 HD
HETATM   19 CL1  UNL     1      29.610  -1.342  53.226  1.00  0.00    -0.065 Cl
HETATM   20  C17 UNL     1      27.046  -0.633  52.918  1.00  0.00     0.020 A 
HETATM   21  C18 UNL     1      25.804   0.188  52.865  1.00  0.00     0.067 A 
ENDBRANCH  13  14
ENDBRANCH  11  13
ENDBRANCH   8  11
BRANCH   1  22
HETATM   22  N1  UNL     1      26.558   7.895  50.316  1.00  0.00    -0.320 N 
HETATM   23  C6  UNL     1      27.320   8.235  49.142  1.00  0.00     0.300 C 
HETATM   24  O1  UNL     1      26.979   7.974  47.942  1.00  0.00    -0.258 OA
HETATM   25  H8  UNL     1      26.992   8.189  51.241  1.00  0.00     0.169 HD
BRANCH  23  26
HETATM   26  C5  UNL     1      28.590   8.935  49.271  1.00  0.00    -0.005 C 
HETATM   27  C4  UNL     1      29.639   9.528  49.394  1.00  0.00    -0.096 C 
BRANCH  27  28
HETATM   28  C3  UNL     1      30.901  10.255  49.566  1.00  0.00     0.094 C 
BRANCH  28  29
HETATM   29  C2  UNL     1      30.990  11.384  48.532  1.00  0.00     0.007 C 
HETATM   30  C1  UNL     1      30.210  12.555  49.097  1.00  0.00     0.006 C 
ENDBRANCH  28  29
ENDBRANCH  27  28
ENDBRANCH  23  26
ENDBRANCH   1  22
TORSDOF 7
ENDMDL
MODEL 8
REMARK VINA RESULT:      -6.6      5.569     10.804
REMARK  7 active torsions:
REMARK  status: ('A' for Active; 'I' for Inactive)
REMARK    1  A    between atoms: C2_2  and  C3_3 
REMARK    2  A    between atoms: C3_3  and  C4_4 
REMARK    3  A    between atoms: C5_5  and  C6_6 
REMARK       I    between atoms: C6_6  and  N1_8 
REMARK    4  A    between atoms: N1_8  and  C7_9 
REMARK    5  A    between atoms: C12_16  and  N4_17 
REMARK    6  A    between atoms: N4_17  and  C13_18 
REMARK    7  A    between atoms: C13_18  and  C14_19 
ROOT
HETATM    1  C7  UNL     1      30.021   8.904  48.972  1.00  0.00     0.014 C 
HETATM    2  C8  UNL     1      29.835  10.122  48.489  1.00  0.00     0.005 C 
HETATM    3  C9  UNL     1      31.001  10.992  48.184  1.00  0.00     0.089 C 
HETATM    4  C10 UNL     1      32.078  10.091  47.693  1.00  0.00     0.049 A 
HETATM    5  N2  UNL     1      32.889  10.581  46.720  1.00  0.00    -0.245 NA
HETATM    6  C11 UNL     1      33.887   9.877  46.202  1.00  0.00     0.235 A 
HETATM    7  N3  UNL     1      34.079   8.634  46.673  1.00  0.00    -0.224 NA
HETATM    8  C12 UNL     1      33.311   8.093  47.635  1.00  0.00     0.133 A 
HETATM    9  C19 UNL     1      32.262   8.816  48.189  1.00  0.00     0.018 A 
HETATM   10  C20 UNL     1      31.370   8.285  49.253  1.00  0.00     0.101 C 
ENDROOT
BRANCH   8  11
HETATM   11  N4  UNL     1      33.573   6.773  48.090  1.00  0.00    -0.370 N 
HETATM   12  H13 UNL     1      33.223   6.378  48.975  1.00  0.00     0.161 HD
BRANCH  11  13
HETATM   13  C13 UNL     1      34.388   5.890  47.278  1.00  0.00     0.157 C 
BRANCH  13  14
HETATM   14  C14 UNL     1      33.716   4.566  47.057  1.00  0.00    -0.043 A 
HETATM   15  C15 UNL     1      32.712   4.466  46.197  1.00  0.00     0.094 A 
HETATM   16  N5  UNL     1      32.129   3.176  46.046  1.00  0.00    -0.357 N 
HETATM   17  C16 UNL     1      32.569   2.031  46.759  1.00  0.00     0.099 A 
HETATM   18  H17 UNL     1      31.349   3.087  45.380  1.00  0.00     0.166 HD
HETATM   19 CL1  UNL     1      31.849   0.444  46.570  1.00  0.00    -0.065 Cl
HETATM   20  C17 UNL     1      33.579   2.207  47.604  1.00  0.00     0.020 A 
HETATM   21  C18 UNL     1      34.302   3.479  47.883  1.00  0.00     0.067 A 
ENDBRANCH  13  14
ENDBRANCH  11  13
ENDBRANCH   8  11
BRANCH   1  22
HETATM   22  N1  UNL     1      28.834   8.125  49.242  1.00  0.00    -0.320 N 
HETATM   23  C6  UNL     1      28.405   7.115  48.310  1.00  0.00     0.300 C 
HETATM   24  O1  UNL     1      28.996   6.823  47.218  1.00  0.00    -0.258 OA
HETATM   25  H8  UNL     1      28.222   8.237  50.104  1.00  0.00     0.169 HD
BRANCH  23  26
HETATM   26  C5  UNL     1      27.210   6.330  48.579  1.00  0.00    -0.005 C 
HETATM   27  C4  UNL     1      26.209   5.691  48.819  1.00  0.00    -0.096 C 
BRANCH  27  28
HETATM   28  C3  UNL     1      24.988   4.936  49.121  1.00  0.00     0.094 C 
BRANCH  28  29
HETATM   29  C2  UNL     1      25.259   3.960  50.274  1.00  0.00     0.007 C 
HETATM   30  C1  UNL     1      26.392   3.060  49.825  1.00  0.00     0.006 C 
ENDBRANCH  28  29
ENDBRANCH  27  28
ENDBRANCH  23  26
ENDBRANCH   1  22
TORSDOF 7
ENDMDL
MODEL 9
REMARK VINA RESULT:      -6.6      3.633      8.305
REMARK  7 active torsions:
REMARK  status: ('A' for Active; 'I' for Inactive)
REMARK    1  A    between atoms: C2_2  and  C3_3 
REMARK    2  A    between atoms: C3_3  and  C4_4 
REMARK    3  A    between atoms: C5_5  and  C6_6 
REMARK       I    between atoms: C6_6  and  N1_8 
REMARK    4  A    between atoms: N1_8  and  C7_9 
REMARK    5  A    between atoms: C12_16  and  N4_17 
REMARK    6  A    between atoms: N4_17  and  C13_18 
REMARK    7  A    between atoms: C13_18  and  C14_19 
ROOT
HETATM    1  C7  UNL     1      25.394   5.925  49.573  1.00  0.00     0.014 C 
HETATM    2  C8  UNL     1      24.464   5.957  48.632  1.00  0.00     0.005 C 
HETATM    3  C9  UNL     1      24.313   7.159  47.770  1.00  0.00     0.089 C 
HETATM    4  C10 UNL     1      25.684   7.699  47.562  1.00  0.00     0.049 A 
HETATM    5  N2  UNL     1      25.945   8.251  46.349  1.00  0.00    -0.245 NA
HETATM    6  C11 UNL     1      27.127   8.768  46.041  1.00  0.00     0.235 A 
HETATM    7  N3  UNL     1      28.085   8.730  46.982  1.00  0.00    -0.224 NA
HETATM    8  C12 UNL     1      27.887   8.198  48.200  1.00  0.00     0.133 A 
HETATM    9  C19 UNL     1      26.656   7.652  48.540  1.00  0.00     0.018 A 
HETATM   10  C20 UNL     1      26.364   7.045  49.866  1.00  0.00     0.101 C 
ENDROOT
BRANCH   8  11
HETATM   11  N4  UNL     1      28.945   8.195  49.150  1.00  0.00    -0.370 N 
HETATM   12  H13 UNL     1      28.821   8.053  50.163  1.00  0.00     0.161 HD
BRANCH  11  13
HETATM   13  C13 UNL     1      30.306   8.403  48.698  1.00  0.00     0.157 C 
BRANCH  13  14
HETATM   14  C14 UNL     1      31.041   7.104  48.542  1.00  0.00    -0.043 A 
HETATM   15  C15 UNL     1      31.614   6.534  49.592  1.00  0.00     0.094 A 
HETATM   16  N5  UNL     1      32.291   5.303  49.359  1.00  0.00    -0.357 N 
HETATM   17  C16 UNL     1      32.370   4.684  48.086  1.00  0.00     0.099 A 
HETATM   18  H17 UNL     1      32.739   4.853  50.169  1.00  0.00     0.166 HD
HETATM   19 CL1  UNL     1      33.204   3.168  47.804  1.00  0.00    -0.065 Cl
HETATM   20  C17 UNL     1      31.772   5.312  47.079  1.00  0.00     0.020 A 
HETATM   21  C18 UNL     1      31.025   6.599  47.144  1.00  0.00     0.067 A 
ENDBRANCH  13  14
ENDBRANCH  11  13
ENDBRANCH   8  11
BRANCH   1  22
HETATM   22  N1  UNL     1      25.472   4.719  50.366  1.00  0.00    -0.320 N 
HETATM   23  C6  UNL     1      26.442   3.704  50.045  1.00  0.00     0.300 C 
HETATM   24  O1  UNL     1      27.280   3.765  49.086  1.00  0.00    -0.258 OA
HETATM   25  H8  UNL     1      24.850   4.505  51.201  1.00  0.00     0.169 HD
BRANCH  23  26
HETATM   26  C5  UNL     1      26.522   2.489  50.842  1.00  0.00    -0.005 C 
HETATM   27  C4  UNL     1      26.573   1.486  51.518  1.00  0.00    -0.096 C 
BRANCH  27  28
HETATM   28  C3  UNL     1      26.613   0.276  52.347  1.00  0.00     0.094 C 
BRANCH  28  29
HETATM   29  C2  UNL     1      27.573   0.491  53.525  1.00  0.00     0.007 C 
HETATM   30  C1  UNL     1      28.654  -0.563  53.404  1.00  0.00     0.006 C 
ENDBRANCH  28  29
ENDBRANCH  27  28
ENDBRANCH  23  26
ENDBRANCH   1  22
TORSDOF 7
ENDMDL
