MODEL 1
REMARK VINA RESULT:      -6.6      0.000      0.000
REMARK  7 active torsions:
REMARK  status: ('A' for Active; 'I' for Inactive)
REMARK    1  A    between atoms: O1_2  and  C2_3 
REMARK    2  A    between atoms: C2_3  and  C3_4 
REMARK    3  A    between atoms: C4_5  and  C5_6 
REMARK    4  A    between atoms: C5_6  and  N1_7 
REMARK    5  A    between atoms: C9_11  and  C10_12 
REMARK    6  A    between atoms: C10_12  and  C11_13 
REMARK    7  A    between atoms: C11_13  and  O2_14 
ROOT
HETATM    1  N1  UNL     1      24.337   3.259  51.848  1.00  0.00     0.119 N 
HETATM    2  C6  UNL     1      23.391   4.374  51.586  1.00  0.00     0.284 C 
HETATM    3  C7  UNL     1      24.027   5.612  51.205  1.00  0.00     0.046 C 
HETATM    4  C8  UNL     1      24.389   6.926  51.124  1.00  0.00    -0.013 C 
HETATM    5  C9  UNL     1      25.444   7.241  50.127  1.00  0.00    -0.059 C 
HETATM    6  C12 UNL     1      26.179   6.458  49.372  1.00  0.00     0.020 C 
HETATM    7  C13 UNL     1      26.834   5.368  48.694  1.00  0.00     0.206 C 
HETATM    8  N2  UNL     1      26.815   4.123  49.186  1.00  0.00    -0.314 NA
HETATM    9  C14 UNL     1      26.155   3.916  50.429  1.00  0.00     0.133 C 
HETATM   10  C15 UNL     1      25.000   3.040  50.504  1.00  0.00     0.342 C 
HETATM   11  C16 UNL     1      23.994   3.208  49.488  1.00  0.00     0.096 C 
HETATM   12  N3  UNL     1      23.168   3.332  48.660  1.00  0.00    -0.195 NA
ENDROOT
BRANCH   1  13
HETATM   13  C5  UNL     1      23.427   2.122  52.056  1.00  0.00     0.367 C 
BRANCH  13  14
HETATM   14  C4  UNL     1      24.114   1.047  52.755  1.00  0.00    -0.074 C 
HETATM   15  C3  UNL     1      24.697   0.156  53.325  1.00  0.00    -0.079 C 
BRANCH  15  16
HETATM   16  C2  UNL     1      25.403  -0.934  53.996  1.00  0.00     0.260 C 
BRANCH  16  17
HETATM   17  O1  UNL     1      26.068  -0.380  55.110  1.00  0.00    -0.384 OA
HETATM   18  C1  UNL     1      27.265   0.227  54.692  1.00  0.00     0.202 C 
ENDBRANCH  16  17
ENDBRANCH  15  16
ENDBRANCH  13  14
ENDBRANCH   1  13
BRANCH   5  19
HETATM   19  C10 UNL     1      25.736   8.682  49.916  1.00  0.00     0.064 C 
BRANCH  19  20
HETATM   20  C11 UNL     1      27.176   9.050  50.029  1.00  0.00     0.168 C 
BRANCH  20  21
HETATM   21  O2  UNL     1      27.611   9.508  51.234  1.00  0.00    -0.401 OA
HETATM   22  H16 UNL     1      27.395   8.940  52.025  1.00  0.00     0.209 HD
ENDBRANCH  20  21
ENDBRANCH  19  20
ENDBRANCH   5  19
TORSDOF 7
ENDMDL
MODEL 2
REMARK VINA RESULT:      -6.6      2.103      6.811
REMARK  7 active torsions:
REMARK  status: ('A' for Active; 'I' for Inactive)
REMARK    1  A    between atoms: O1_2  and  C2_3 
REMARK    2  A    between atoms: C2_3  and  C3_4 
REMARK    3  A    between atoms: C4_5  and  C5_6 
REMARK    4  A    between atoms: C5_6  and  N1_7 
REMARK    5  A    between atoms: C9_11  and  C10_12 
REMARK    6  A    between atoms: C10_12  and  C11_13 
REMARK    7  A    between atoms: C11_13  and  O2_14 
ROOT
HETATM    1  N1  UNL     1      25.756   4.626  50.249  1.00  0.00     0.119 N 
HETATM    2  C6  UNL     1      26.287   3.310  49.809  1.00  0.00     0.284 C 
HETATM    3  C7  UNL     1      26.198   2.272  50.807  1.00  0.00     0.046 C 
HETATM    4  C8  UNL     1      26.493   1.239  51.648  1.00  0.00    -0.013 C 
HETATM    5  C9  UNL     1      25.383   0.789  52.527  1.00  0.00    -0.059 C 
HETATM    6  C12 UNL     1      24.181   1.282  52.719  1.00  0.00     0.020 C 
HETATM    7  C13 UNL     1      22.959   2.045  52.729  1.00  0.00     0.206 C 
HETATM    8  N2  UNL     1      22.920   3.313  52.300  1.00  0.00    -0.314 NA
HETATM    9  C14 UNL     1      24.141   3.900  51.867  1.00  0.00     0.133 C 
HETATM   10  C15 UNL     1      24.288   4.346  50.494  1.00  0.00     0.342 C 
HETATM   11  C16 UNL     1      23.839   3.441  49.468  1.00  0.00     0.096 C 
HETATM   12  N3  UNL     1      23.471   2.713  48.620  1.00  0.00    -0.195 NA
ENDROOT
BRANCH   1  13
HETATM   13  C5  UNL     1      25.831   5.422  49.015  1.00  0.00     0.367 C 
BRANCH  13  14
HETATM   14  C4  UNL     1      27.219   5.638  48.636  1.00  0.00    -0.074 C 
HETATM   15  C3  UNL     1      28.373   5.801  48.319  1.00  0.00    -0.079 C 
BRANCH  15  16
HETATM   16  C2  UNL     1      29.776   5.985  47.952  1.00  0.00     0.260 C 
BRANCH  16  17
HETATM   17  O1  UNL     1      30.555   5.363  48.950  1.00  0.00    -0.384 OA
HETATM   18  C1  UNL     1      31.632   6.197  49.298  1.00  0.00     0.202 C 
ENDBRANCH  16  17
ENDBRANCH  15  16
ENDBRANCH  13  14
ENDBRANCH   1  13
BRANCH   5  19
HETATM   19  C10 UNL     1      25.638  -0.431  53.333  1.00  0.00     0.064 C 
BRANCH  19  20
HETATM   20  C11 UNL     1      26.055  -0.175  54.741  1.00  0.00     0.168 C 
BRANCH  20  21
HETATM   21  O2  UNL     1      27.382  -0.270  55.027  1.00  0.00    -0.401 OA
HETATM   22  H16 UNL     1      27.938   0.529  54.810  1.00  0.00     0.209 HD
ENDBRANCH  20  21
ENDBRANCH  19  20
ENDBRANCH   5  19
TORSDOF 7
ENDMDL
MODEL 3
REMARK VINA RESULT:      -6.3      1.986      2.775
REMARK  7 active torsions:
REMARK  status: ('A' for Active; 'I' for Inactive)
REMARK    1  A    between atoms: O1_2  and  C2_3 
REMARK    2  A    between atoms: C2_3  and  C3_4 
REMARK    3  A    between atoms: C4_5  and  C5_6 
REMARK    4  A    between atoms: C5_6  and  N1_7 
REMARK    5  A    between atoms: C9_11  and  C10_12 
REMARK    6  A    between atoms: C10_12  and  C11_13 
REMARK    7  A    between atoms: C11_13  and  O2_14 
ROOT
HETATM    1  N1  UNL     1      23.354   1.688  51.091  1.00  0.00     0.119 N 
HETATM    2  C6  UNL     1      24.621   2.107  51.744  1.00  0.00     0.284 C 
HETATM    3  C7  UNL     1      25.525   2.824  50.877  1.00  0.00     0.046 C 
HETATM    4  C8  UNL     1      26.637   3.241  50.206  1.00  0.00    -0.013 C 
HETATM    5  C9  UNL     1      26.436   4.382  49.276  1.00  0.00    -0.059 C 
HETATM    6  C12 UNL     1      25.343   5.004  48.897  1.00  0.00     0.020 C 
HETATM    7  C13 UNL     1      24.001   5.473  48.662  1.00  0.00     0.206 C 
HETATM    8  N2  UNL     1      22.934   4.707  48.925  1.00  0.00    -0.314 NA
HETATM    9  C14 UNL     1      23.172   3.392  49.412  1.00  0.00     0.133 C 
HETATM   10  C15 UNL     1      22.697   3.004  50.727  1.00  0.00     0.342 C 
HETATM   11  C16 UNL     1      22.945   3.928  51.802  1.00  0.00     0.096 C 
HETATM   12  N3  UNL     1      23.137   4.677  52.689  1.00  0.00    -0.195 NA
ENDROOT
BRANCH   1  13
HETATM   13  C5  UNL     1      22.589   1.136  52.219  1.00  0.00     0.367 C 
BRANCH  13  14
HETATM   14  C4  UNL     1      23.468   0.395  53.110  1.00  0.00    -0.074 C 
HETATM   15  C3  UNL     1      24.207  -0.207  53.852  1.00  0.00    -0.079 C 
BRANCH  15  16
HETATM   16  C2  UNL     1      25.119  -0.931  54.736  1.00  0.00     0.260 C 
BRANCH  16  17
HETATM   17  O1  UNL     1      26.379  -0.964  54.102  1.00  0.00    -0.384 OA
HETATM   18  C1  UNL     1      27.017   0.279  54.254  1.00  0.00     0.202 C 
ENDBRANCH  16  17
ENDBRANCH  15  16
ENDBRANCH  13  14
ENDBRANCH   1  13
BRANCH   5  19
HETATM   19  C10 UNL     1      27.662   4.948  48.657  1.00  0.00     0.064 C 
BRANCH  19  20
HETATM   20  C11 UNL     1      27.610   6.414  48.396  1.00  0.00     0.168 C 
BRANCH  20  21
HETATM   21  O2  UNL     1      28.306   7.225  49.238  1.00  0.00    -0.401 OA
HETATM   22  H16 UNL     1      27.812   7.553  50.041  1.00  0.00     0.209 HD
ENDBRANCH  20  21
ENDBRANCH  19  20
ENDBRANCH   5  19
TORSDOF 7
ENDMDL
MODEL 4
REMARK VINA RESULT:      -6.2      4.022      6.981
REMARK  7 active torsions:
REMARK  status: ('A' for Active; 'I' for Inactive)
REMARK    1  A    between atoms: O1_2  and  C2_3 
REMARK    2  A    between atoms: C2_3  and  C3_4 
REMARK    3  A    between atoms: C4_5  and  C5_6 
REMARK    4  A    between atoms: C5_6  and  N1_7 
REMARK    5  A    between atoms: C9_11  and  C10_12 
REMARK    6  A    between atoms: C10_12  and  C11_13 
REMARK    7  A    between atoms: C11_13  and  O2_14 
ROOT
HETATM    1  N1  UNL     1      23.360   2.472  52.771  1.00  0.00     0.119 N 
HETATM    2  C6  UNL     1      23.172   1.121  52.180  1.00  0.00     0.284 C 
HETATM    3  C7  UNL     1      21.805   0.660  52.180  1.00  0.00     0.046 C 
HETATM    4  C8  UNL     1      20.681  -0.099  52.333  1.00  0.00    -0.013 C 
HETATM    5  C9  UNL     1      19.410   0.545  51.915  1.00  0.00    -0.059 C 
HETATM    6  C12 UNL     1      19.153   1.770  51.518  1.00  0.00     0.020 C 
HETATM    7  C13 UNL     1      19.177   3.160  51.138  1.00  0.00     0.206 C 
HETATM    8  N2  UNL     1      20.177   3.971  51.507  1.00  0.00    -0.314 NA
HETATM    9  C14 UNL     1      21.203   3.421  52.325  1.00  0.00     0.133 C 
HETATM   10  C15 UNL     1      22.571   3.372  51.842  1.00  0.00     0.342 C 
HETATM   11  C16 UNL     1      22.766   2.892  50.499  1.00  0.00     0.096 C 
HETATM   12  N3  UNL     1      22.938   2.507  49.401  1.00  0.00    -0.195 NA
ENDROOT
BRANCH   1  13
HETATM   13  C5  UNL     1      24.781   2.735  52.501  1.00  0.00     0.367 C 
BRANCH  13  14
HETATM   14  C4  UNL     1      25.619   1.879  53.327  1.00  0.00    -0.074 C 
HETATM   15  C3  UNL     1      26.313   1.156  54.001  1.00  0.00    -0.079 C 
BRANCH  15  16
HETATM   16  C2  UNL     1      27.136   0.267  54.819  1.00  0.00     0.260 C 
BRANCH  16  17
HETATM   17  O1  UNL     1      28.390   0.892  54.987  1.00  0.00    -0.384 OA
HETATM   18  C1  UNL     1      29.297   0.394  54.036  1.00  0.00     0.202 C 
ENDBRANCH  16  17
ENDBRANCH  15  16
ENDBRANCH  13  14
ENDBRANCH   1  13
BRANCH   5  19
HETATM   19  C10 UNL     1      18.202  -0.319  51.927  1.00  0.00     0.064 C 
BRANCH  19  20
HETATM   20  C11 UNL     1      18.169  -1.332  53.020  1.00  0.00     0.168 C 
BRANCH  20  21
HETATM   21  O2  UNL     1      17.229  -1.174  53.991  1.00  0.00    -0.401 OA
HETATM   22  H16 UNL     1      17.519  -1.380  54.923  1.00  0.00     0.209 HD
ENDBRANCH  20  21
ENDBRANCH  19  20
ENDBRANCH   5  19
TORSDOF 7
ENDMDL
MODEL 5
REMARK VINA RESULT:      -6.1      1.429      7.148
REMARK  7 active torsions:
REMARK  status: ('A' for Active; 'I' for Inactive)
REMARK    1  A    between atoms: O1_2  and  C2_3 
REMARK    2  A    between atoms: C2_3  and  C3_4 
REMARK    3  A    between atoms: C4_5  and  C5_6 
REMARK    4  A    between atoms: C5_6  and  N1_7 
REMARK    5  A    between atoms: C9_11  and  C10_12 
REMARK    6  A    between atoms: C10_12  and  C11_13 
REMARK    7  A    between atoms: C11_13  and  O2_14 
ROOT
HETATM    1  N1  UNL     1      24.658   4.748  51.061  1.00  0.00     0.119 N 
HETATM    2  C6  UNL     1      25.577   3.907  50.252  1.00  0.00     0.284 C 
HETATM    3  C7  UNL     1      26.017   2.704  50.917  1.00  0.00     0.046 C 
HETATM    4  C8  UNL     1      26.785   1.696  51.423  1.00  0.00    -0.013 C 
HETATM    5  C9  UNL     1      26.051   0.639  52.164  1.00  0.00    -0.059 C 
HETATM    6  C12 UNL     1      24.789   0.550  52.516  1.00  0.00     0.020 C 
HETATM    7  C13 UNL     1      23.383   0.738  52.771  1.00  0.00     0.206 C 
HETATM    8  N2  UNL     1      22.817   1.950  52.721  1.00  0.00    -0.314 NA
HETATM    9  C14 UNL     1      23.661   3.060  52.443  1.00  0.00     0.133 C 
HETATM   10  C15 UNL     1      23.446   3.858  51.250  1.00  0.00     0.342 C 
HETATM   11  C16 UNL     1      23.236   3.139  50.020  1.00  0.00     0.096 C 
HETATM   12  N3  UNL     1      23.057   2.564  49.010  1.00  0.00    -0.195 NA
ENDROOT
BRANCH   1  13
HETATM   13  C5  UNL     1      24.265   5.791  50.101  1.00  0.00     0.367 C 
BRANCH  13  14
HETATM   14  C4  UNL     1      25.245   6.866  50.094  1.00  0.00    -0.074 C 
HETATM   15  C3  UNL     1      26.071   7.747  50.087  1.00  0.00    -0.079 C 
BRANCH  15  16
HETATM   16  C2  UNL     1      27.080   8.805  50.097  1.00  0.00     0.260 C 
BRANCH  16  17
HETATM   17  O1  UNL     1      26.395  10.037  50.027  1.00  0.00    -0.384 OA
HETATM   18  C1  UNL     1      26.131  10.355  48.683  1.00  0.00     0.202 C 
ENDBRANCH  16  17
ENDBRANCH  15  16
ENDBRANCH  13  14
ENDBRANCH   1  13
BRANCH   5  19
HETATM   19  C10 UNL     1      26.848  -0.541  52.585  1.00  0.00     0.064 C 
BRANCH  19  20
HETATM   20  C11 UNL     1      28.005  -0.230  53.472  1.00  0.00     0.168 C 
BRANCH  20  21
HETATM   21  O2  UNL     1      27.880  -0.538  54.792  1.00  0.00    -0.401 OA
HETATM   22  H16 UNL     1      27.694  -1.494  55.006  1.00  0.00     0.209 HD
ENDBRANCH  20  21
ENDBRANCH  19  20
ENDBRANCH   5  19
TORSDOF 7
ENDMDL
MODEL 6
REMARK VINA RESULT:      -6.0      4.847      6.854
REMARK  7 active torsions:
REMARK  status: ('A' for Active; 'I' for Inactive)
REMARK    1  A    between atoms: O1_2  and  C2_3 
REMARK    2  A    between atoms: C2_3  and  C3_4 
REMARK    3  A    between atoms: C4_5  and  C5_6 
REMARK    4  A    between atoms: C5_6  and  N1_7 
REMARK    5  A    between atoms: C9_11  and  C10_12 
REMARK    6  A    between atoms: C10_12  and  C11_13 
REMARK    7  A    between atoms: C11_13  and  O2_14 
ROOT
HETATM    1  N1  UNL     1      20.120   0.186  51.636  1.00  0.00     0.119 N 
HETATM    2  C6  UNL     1      20.806   0.315  52.948  1.00  0.00     0.284 C 
HETATM    3  C7  UNL     1      22.244   0.402  52.858  1.00  0.00     0.046 C 
HETATM    4  C8  UNL     1      23.580   0.205  53.052  1.00  0.00    -0.013 C 
HETATM    5  C9  UNL     1      24.480   1.031  52.207  1.00  0.00    -0.059 C 
HETATM    6  C12 UNL     1      24.220   1.855  51.217  1.00  0.00     0.020 C 
HETATM    7  C13 UNL     1      23.637   2.667  50.180  1.00  0.00     0.206 C 
HETATM    8  N2  UNL     1      22.411   2.420  49.701  1.00  0.00    -0.314 NA
HETATM    9  C14 UNL     1      21.712   1.298  50.227  1.00  0.00     0.133 C 
HETATM   10  C15 UNL     1      20.460   1.487  50.936  1.00  0.00     0.342 C 
HETATM   11  C16 UNL     1      20.427   2.535  51.922  1.00  0.00     0.096 C 
HETATM   12  N3  UNL     1      20.385   3.392  52.727  1.00  0.00    -0.195 NA
ENDROOT
BRANCH   1  13
HETATM   13  C5  UNL     1      18.702   0.274  52.016  1.00  0.00     0.367 C 
BRANCH  13  14
HETATM   14  C4  UNL     1      18.278  -0.954  52.671  1.00  0.00    -0.074 C 
HETATM   15  C3  UNL     1      17.924  -1.981  53.199  1.00  0.00    -0.079 C 
BRANCH  15  16
HETATM   16  C2  UNL     1      17.474  -3.221  53.830  1.00  0.00     0.260 C 
BRANCH  16  17
HETATM   17  O1  UNL     1      16.370  -3.691  53.088  1.00  0.00    -0.384 OA
HETATM   18  C1  UNL     1      15.905  -4.895  53.645  1.00  0.00     0.202 C 
ENDBRANCH  16  17
ENDBRANCH  15  16
ENDBRANCH  13  14
ENDBRANCH   1  13
BRANCH   5  19
HETATM   19  C10 UNL     1      25.931   0.944  52.514  1.00  0.00     0.064 C 
BRANCH  19  20
HETATM   20  C11 UNL     1      26.309   1.402  53.881  1.00  0.00     0.168 C 
BRANCH  20  21
HETATM   21  O2  UNL     1      26.470   2.740  54.070  1.00  0.00    -0.401 OA
HETATM   22  H16 UNL     1      25.892   3.159  54.767  1.00  0.00     0.209 HD
ENDBRANCH  20  21
ENDBRANCH  19  20
ENDBRANCH   5  19
TORSDOF 7
ENDMDL
MODEL 7
REMARK VINA RESULT:      -5.9      2.587      7.260
REMARK  7 active torsions:
REMARK  status: ('A' for Active; 'I' for Inactive)
REMARK    1  A    between atoms: O1_2  and  C2_3 
REMARK    2  A    between atoms: C2_3  and  C3_4 
REMARK    3  A    between atoms: C4_5  and  C5_6 
REMARK    4  A    between atoms: C5_6  and  N1_7 
REMARK    5  A    between atoms: C9_11  and  C10_12 
REMARK    6  A    between atoms: C10_12  and  C11_13 
REMARK    7  A    between atoms: C11_13  and  O2_14 
ROOT
HETATM    1  N1  UNL     1      21.262   3.126  52.325  1.00  0.00     0.119 N 
HETATM    2  C6  UNL     1      22.613   2.932  51.738  1.00  0.00     0.284 C 
HETATM    3  C7  UNL     1      23.442   1.995  52.458  1.00  0.00     0.046 C 
HETATM    4  C8  UNL     1      24.487   1.406  53.108  1.00  0.00    -0.013 C 
HETATM    5  C9  UNL     1      24.231   0.038  53.626  1.00  0.00    -0.059 C 
HETATM    6  C12 UNL     1      23.131  -0.678  53.666  1.00  0.00     0.020 C 
HETATM    7  C13 UNL     1      21.793  -1.206  53.584  1.00  0.00     0.206 C 
HETATM    8  N2  UNL     1      20.730  -0.406  53.431  1.00  0.00    -0.314 NA
HETATM    9  C14 UNL     1      20.964   0.997  53.389  1.00  0.00     0.133 C 
HETATM   10  C15 UNL     1      20.626   1.756  52.199  1.00  0.00     0.342 C 
HETATM   11  C16 UNL     1      21.038   1.198  50.937  1.00  0.00     0.096 C 
HETATM   12  N3  UNL     1      21.364   0.750  49.900  1.00  0.00    -0.195 NA
ENDROOT
BRANCH   1  13
HETATM   13  C5  UNL     1      20.608   3.984  51.325  1.00  0.00     0.367 C 
BRANCH  13  14
HETATM   14  C4  UNL     1      21.385   5.196  51.116  1.00  0.00    -0.074 C 
HETATM   15  C3  UNL     1      22.035   6.196  50.927  1.00  0.00    -0.079 C 
BRANCH  15  16
HETATM   16  C2  UNL     1      22.841   7.395  50.699  1.00  0.00     0.260 C 
BRANCH  16  17
HETATM   17  O1  UNL     1      24.089   7.185  51.322  1.00  0.00    -0.384 OA
HETATM   18  C1  UNL     1      25.075   6.969  50.345  1.00  0.00     0.202 C 
ENDBRANCH  16  17
ENDBRANCH  15  16
ENDBRANCH  13  14
ENDBRANCH   1  13
BRANCH   5  19
HETATM   19  C10 UNL     1      25.402  -0.678  54.196  1.00  0.00     0.064 C 
BRANCH  19  20
HETATM   20  C11 UNL     1      26.448   0.205  54.785  1.00  0.00     0.168 C 
BRANCH  20  21
HETATM   21  O2  UNL     1      27.682  -0.332  54.979  1.00  0.00    -0.401 OA
HETATM   22  H16 UNL     1      28.458   0.270  54.800  1.00  0.00     0.209 HD
ENDBRANCH  20  21
ENDBRANCH  19  20
ENDBRANCH   5  19
TORSDOF 7
ENDMDL
MODEL 8
REMARK VINA RESULT:      -5.9      2.628      7.283
REMARK  7 active torsions:
REMARK  status: ('A' for Active; 'I' for Inactive)
REMARK    1  A    between atoms: O1_2  and  C2_3 
REMARK    2  A    between atoms: C2_3  and  C3_4 
REMARK    3  A    between atoms: C4_5  and  C5_6 
REMARK    4  A    between atoms: C5_6  and  N1_7 
REMARK    5  A    between atoms: C9_11  and  C10_12 
REMARK    6  A    between atoms: C10_12  and  C11_13 
REMARK    7  A    between atoms: C11_13  and  O2_14 
ROOT
HETATM    1  N1  UNL     1      23.479   4.338  50.401  1.00  0.00     0.119 N 
HETATM    2  C6  UNL     1      24.043   2.997  50.100  1.00  0.00     0.284 C 
HETATM    3  C7  UNL     1      23.876   2.033  51.160  1.00  0.00     0.046 C 
HETATM    4  C8  UNL     1      24.103   1.065  52.095  1.00  0.00    -0.013 C 
HETATM    5  C9  UNL     1      22.927   0.673  52.913  1.00  0.00    -0.059 C 
HETATM    6  C12 UNL     1      21.713   1.171  52.973  1.00  0.00     0.020 C 
HETATM    7  C13 UNL     1      20.494   1.925  52.831  1.00  0.00     0.206 C 
HETATM    8  N2  UNL     1      20.489   3.159  52.310  1.00  0.00    -0.314 NA
HETATM    9  C14 UNL     1      21.740   3.720  51.934  1.00  0.00     0.133 C 
HETATM   10  C15 UNL     1      21.996   4.068  50.548  1.00  0.00     0.342 C 
HETATM   11  C16 UNL     1      21.630   3.089  49.558  1.00  0.00     0.096 C 
HETATM   12  N3  UNL     1      21.331   2.299  48.738  1.00  0.00    -0.195 NA
ENDROOT
BRANCH   1  13
HETATM   13  C5  UNL     1      23.651   5.043  49.122  1.00  0.00     0.367 C 
BRANCH  13  14
HETATM   14  C4  UNL     1      25.043   5.429  48.942  1.00  0.00    -0.074 C 
HETATM   15  C3  UNL     1      26.195   5.762  48.804  1.00  0.00    -0.079 C 
BRANCH  15  16
HETATM   16  C2  UNL     1      27.584   6.184  48.629  1.00  0.00     0.260 C 
BRANCH  16  17
HETATM   17  O1  UNL     1      28.362   5.016  48.483  1.00  0.00    -0.384 OA
HETATM   18  C1  UNL     1      29.663   5.363  48.079  1.00  0.00     0.202 C 
ENDBRANCH  16  17
ENDBRANCH  15  16
ENDBRANCH  13  14
ENDBRANCH   1  13
BRANCH   5  19
HETATM   19  C10 UNL     1      23.117  -0.485  53.823  1.00  0.00     0.064 C 
BRANCH  19  20
HETATM   20  C11 UNL     1      21.986  -0.736  54.761  1.00  0.00     0.168 C 
BRANCH  20  21
HETATM   21  O2  UNL     1      21.851  -1.997  55.254  1.00  0.00    -0.401 OA
HETATM   22  H16 UNL     1      21.075  -2.151  55.861  1.00  0.00     0.209 HD
ENDBRANCH  20  21
ENDBRANCH  19  20
ENDBRANCH   5  19
TORSDOF 7
ENDMDL
MODEL 9
REMARK VINA RESULT:      -5.8      3.557      6.222
REMARK  7 active torsions:
REMARK  status: ('A' for Active; 'I' for Inactive)
REMARK    1  A    between atoms: O1_2  and  C2_3 
REMARK    2  A    between atoms: C2_3  and  C3_4 
REMARK    3  A    between atoms: C4_5  and  C5_6 
REMARK    4  A    between atoms: C5_6  and  N1_7 
REMARK    5  A    between atoms: C9_11  and  C10_12 
REMARK    6  A    between atoms: C10_12  and  C11_13 
REMARK    7  A    between atoms: C11_13  and  O2_14 
ROOT
HETATM    1  N1  UNL     1      21.986   2.320  51.375  1.00  0.00     0.119 N 
HETATM    2  C6  UNL     1      22.453   1.862  52.710  1.00  0.00     0.284 C 
HETATM    3  C7  UNL     1      23.746   1.224  52.698  1.00  0.00     0.046 C 
HETATM    4  C8  UNL     1      24.774   0.348  52.896  1.00  0.00    -0.013 C 
HETATM    5  C9  UNL     1      26.072   0.733  52.286  1.00  0.00    -0.059 C 
HETATM    6  C12 UNL     1      26.391   1.726  51.489  1.00  0.00     0.020 C 
HETATM    7  C13 UNL     1      26.432   2.882  50.629  1.00  0.00     0.206 C 
HETATM    8  N2  UNL     1      25.324   3.374  50.061  1.00  0.00    -0.314 NA
HETATM    9  C14 UNL     1      24.100   2.691  50.304  1.00  0.00     0.133 C 
HETATM   10  C15 UNL     1      23.012   3.365  50.987  1.00  0.00     0.342 C 
HETATM   11  C16 UNL     1      23.354   4.104  52.175  1.00  0.00     0.096 C 
HETATM   12  N3  UNL     1      23.621   4.716  53.143  1.00  0.00    -0.195 NA
ENDROOT
BRANCH   1  13
HETATM   13  C5  UNL     1      20.753   3.048  51.709  1.00  0.00     0.367 C 
BRANCH  13  14
HETATM   14  C4  UNL     1      19.612   2.147  51.684  1.00  0.00    -0.074 C 
HETATM   15  C3  UNL     1      18.675   1.385  51.666  1.00  0.00    -0.079 C 
BRANCH  15  16
HETATM   16  C2  UNL     1      17.549   0.452  51.627  1.00  0.00     0.260 C 
BRANCH  16  17
HETATM   17  O1  UNL     1      18.060  -0.833  51.906  1.00  0.00    -0.384 OA
HETATM   18  C1  UNL     1      17.747  -1.189  53.229  1.00  0.00     0.202 C 
ENDBRANCH  16  17
ENDBRANCH  15  16
ENDBRANCH  13  14
ENDBRANCH   1  13
BRANCH   5  19
HETATM   19  C10 UNL     1      27.236  -0.127  52.623  1.00  0.00     0.064 C 
BRANCH  19  20
HETATM   20  C11 UNL     1      27.975   0.276  53.854  1.00  0.00     0.168 C 
BRANCH  20  21
HETATM   21  O2  UNL     1      27.657  -0.364  55.012  1.00  0.00    -0.401 OA
HETATM   22  H16 UNL     1      27.585  -1.358  54.960  1.00  0.00     0.209 HD
ENDBRANCH  20  21
ENDBRANCH  19  20
ENDBRANCH   5  19
TORSDOF 7
ENDMDL
