MODEL 1
REMARK VINA RESULT:      -8.0      0.000      0.000
REMARK  7 active torsions:
REMARK  status: ('A' for Active; 'I' for Inactive)
REMARK    1  A    between atoms: P1_1  and  C1_2 
REMARK    2  A    between atoms: C1_2  and  N1_3 
REMARK    3  A    between atoms: C1_2  and  N3_17 
REMARK    4  A    between atoms: C5_7  and  C6_8 
REMARK    5  A    between atoms: C6_8  and  C7_9 
REMARK    6  A    between atoms: N3_17  and  C13_18 
REMARK    7  A    between atoms: C13_18  and  N4_19 
ROOT
HETATM    1  N1  UNL     1      23.582   4.411  52.596  1.00  0.00    -0.236 NA
HETATM    2  C2  UNL     1      24.132   3.273  52.370  1.00  0.00     0.105 A 
HETATM    3  C3  UNL     1      24.753   2.660  51.143  1.00  0.00     0.107 A 
HETATM    4  C4  UNL     1      25.155   1.353  51.727  1.00  0.00     0.006 A 
HETATM    5  C5  UNL     1      24.867   1.132  53.027  1.00  0.00     0.011 A 
HETATM    6  N2  UNL     1      24.230   2.324  53.427  1.00  0.00    -0.348 N 
HETATM    7  H13 UNL     1      23.899   2.422  54.403  1.00  0.00     0.167 HD
ENDROOT
BRANCH   1   8
HETATM    8  C1  UNL     1      23.417   5.460  51.650  1.00  0.00     0.365 C 
BRANCH   8   9
HETATM    9  P1  UNL     1      22.310   5.068  50.234  1.00  0.00    -0.083 P 
HETATM   10  H1  UNL     1      23.037   4.324  49.232  1.00  0.00     0.058 HD
HETATM   11  H2  UNL     1      21.646   6.231  49.708  1.00  0.00     0.058 HD
ENDBRANCH   8   9
BRANCH   8  12
HETATM   12  N3  UNL     1      24.697   6.025  51.211  1.00  0.00     0.129 N 
HETATM   13  H14 UNL     1      25.469   5.458  51.570  1.00  0.00     0.321 HD
BRANCH  12  14
HETATM   14  C13 UNL     1      24.709   6.127  49.771  1.00  0.00     0.397 C 
BRANCH  14  15
HETATM   15  N4  UNL     1      26.074   6.127  49.241  1.00  0.00    -0.362 N 
HETATM   16  C14 UNL     1      26.730   4.886  49.009  1.00  0.00     0.089 A 
HETATM   17  C15 UNL     1      27.965   4.876  48.529  1.00  0.00     0.040 A 
HETATM   18  C16 UNL     1      28.703   6.079  48.218  1.00  0.00     0.033 A 
HETATM   19 CL2  UNL     1      30.326   6.146  47.584  1.00  0.00    -0.085 Cl
HETATM   20  C17 UNL     1      28.061   7.228  48.445  1.00  0.00     0.017 A 
HETATM   21  C18 UNL     1      26.686   7.418  48.978  1.00  0.00     0.153 A 
ENDBRANCH  14  15
ENDBRANCH  12  14
ENDBRANCH   8  12
ENDBRANCH   1   8
BRANCH   5  22
HETATM   22  C6  UNL     1      25.266  -0.170  53.608  1.00  0.00     0.097 C 
BRANCH  22  23
HETATM   23  C7  UNL     1      26.726  -0.351  53.698  1.00  0.00    -0.031 A 
HETATM   24  C8  UNL     1      27.450   0.515  54.527  1.00  0.00     0.009 A 
HETATM   25  C9  UNL     1      28.802   0.522  54.724  1.00  0.00     0.001 A 
HETATM   26  C10 UNL     1      29.546  -0.413  54.044  1.00  0.00     0.002 A 
HETATM   27  C11 UNL     1      28.907  -1.297  53.212  1.00  0.00     0.024 A 
HETATM   28  C12 UNL     1      27.553  -1.250  53.061  1.00  0.00     0.040 A 
HETATM   29 CL1  UNL     1      26.763  -2.414  52.019  1.00  0.00    -0.084 Cl
ENDBRANCH  22  23
ENDBRANCH   5  22
TORSDOF 7
ENDMDL
MODEL 2
REMARK VINA RESULT:      -7.9      2.567      7.214
REMARK  7 active torsions:
REMARK  status: ('A' for Active; 'I' for Inactive)
REMARK    1  A    between atoms: P1_1  and  C1_2 
REMARK    2  A    between atoms: C1_2  and  N1_3 
REMARK    3  A    between atoms: C1_2  and  N3_17 
REMARK    4  A    between atoms: C5_7  and  C6_8 
REMARK    5  A    between atoms: C6_8  and  C7_9 
REMARK    6  A    between atoms: N3_17  and  C13_18 
REMARK    7  A    between atoms: C13_18  and  N4_19 
ROOT
HETATM    1  N1  UNL     1      22.912   1.403  52.721  1.00  0.00    -0.236 NA
HETATM    2  C2  UNL     1      22.898   2.059  51.616  1.00  0.00     0.105 A 
HETATM    3  C3  UNL     1      22.410   1.723  50.232  1.00  0.00     0.107 A 
HETATM    4  C4  UNL     1      22.744   3.008  49.562  1.00  0.00     0.006 A 
HETATM    5  C5  UNL     1      23.326   3.971  50.307  1.00  0.00     0.011 A 
HETATM    6  N2  UNL     1      23.423   3.381  51.583  1.00  0.00    -0.348 N 
HETATM    7  H13 UNL     1      23.842   3.919  52.362  1.00  0.00     0.167 HD
ENDROOT
BRANCH   1   8
HETATM    8  C1  UNL     1      22.421   0.082  52.913  1.00  0.00     0.365 C 
BRANCH   8   9
HETATM    9  P1  UNL     1      21.070  -0.075  54.152  1.00  0.00    -0.083 P 
HETATM   10  H1  UNL     1      20.586   1.236  54.521  1.00  0.00     0.058 HD
HETATM   11  H2  UNL     1      21.442  -0.882  55.282  1.00  0.00     0.058 HD
ENDBRANCH   8   9
BRANCH   8  12
HETATM   12  N3  UNL     1      23.496  -0.887  53.141  1.00  0.00     0.129 N 
HETATM   13  H14 UNL     1      24.102  -0.935  52.319  1.00  0.00     0.321 HD
BRANCH  12  14
HETATM   14  C13 UNL     1      24.217  -0.534  54.341  1.00  0.00     0.397 C 
BRANCH  14  15
HETATM   15  N4  UNL     1      25.664  -0.515  54.116  1.00  0.00    -0.362 N 
HETATM   16  C14 UNL     1      26.207  -1.238  53.018  1.00  0.00     0.089 A 
HETATM   17  C15 UNL     1      27.515  -1.226  52.807  1.00  0.00     0.040 A 
HETATM   18  C16 UNL     1      28.445  -0.505  53.646  1.00  0.00     0.033 A 
HETATM   19 CL2  UNL     1      30.175  -0.442  53.432  1.00  0.00    -0.085 Cl
HETATM   20  C17 UNL     1      27.906   0.164  54.668  1.00  0.00     0.017 A 
HETATM   21  C18 UNL     1      26.472   0.255  55.046  1.00  0.00     0.153 A 
ENDBRANCH  14  15
ENDBRANCH  12  14
ENDBRANCH   8  12
ENDBRANCH   1   8
BRANCH   5  22
HETATM   22  C6  UNL     1      23.659   5.249  49.639  1.00  0.00     0.097 C 
BRANCH  22  23
HETATM   23  C7  UNL     1      25.068   5.342  49.218  1.00  0.00    -0.031 A 
HETATM   24  C8  UNL     1      25.894   4.229  49.418  1.00  0.00     0.009 A 
HETATM   25  C9  UNL     1      27.223   4.129  49.118  1.00  0.00     0.001 A 
HETATM   26  C10 UNL     1      27.830   5.229  48.559  1.00  0.00     0.002 A 
HETATM   27  C11 UNL     1      27.086   6.358  48.331  1.00  0.00     0.024 A 
HETATM   28  C12 UNL     1      25.762   6.391  48.653  1.00  0.00     0.040 A 
HETATM   29 CL1  UNL     1      24.831   7.835  48.318  1.00  0.00    -0.084 Cl
ENDBRANCH  22  23
ENDBRANCH   5  22
TORSDOF 7
ENDMDL
MODEL 3
REMARK VINA RESULT:      -7.7      2.001      7.289
REMARK  7 active torsions:
REMARK  status: ('A' for Active; 'I' for Inactive)
REMARK    1  A    between atoms: P1_1  and  C1_2 
REMARK    2  A    between atoms: C1_2  and  N1_3 
REMARK    3  A    between atoms: C1_2  and  N3_17 
REMARK    4  A    between atoms: C5_7  and  C6_8 
REMARK    5  A    between atoms: C6_8  and  C7_9 
REMARK    6  A    between atoms: N3_17  and  C13_18 
REMARK    7  A    between atoms: C13_18  and  N4_19 
ROOT
HETATM    1  N1  UNL     1      24.741   5.063  50.786  1.00  0.00    -0.236 NA
HETATM    2  C2  UNL     1      25.759   4.991  50.006  1.00  0.00     0.105 A 
HETATM    3  C3  UNL     1      26.597   3.839  49.520  1.00  0.00     0.107 A 
HETATM    4  C4  UNL     1      27.540   4.600  48.658  1.00  0.00     0.006 A 
HETATM    5  C5  UNL     1      27.384   5.938  48.587  1.00  0.00     0.011 A 
HETATM    6  N2  UNL     1      26.278   6.182  49.426  1.00  0.00    -0.348 N 
HETATM    7  H13 UNL     1      25.940   7.152  49.552  1.00  0.00     0.167 HD
ENDROOT
BRANCH   1   8
HETATM    8  C1  UNL     1      24.106   3.967  51.433  1.00  0.00     0.365 C 
BRANCH   8   9
HETATM    9  P1  UNL     1      22.331   4.224  51.843  1.00  0.00    -0.083 P 
HETATM   10  H1  UNL     1      21.520   3.252  51.146  1.00  0.00     0.058 HD
HETATM   11  H2  UNL     1      21.901   5.580  51.629  1.00  0.00     0.058 HD
ENDBRANCH   8   9
BRANCH   8  12
HETATM   12  N3  UNL     1      24.872   3.474  52.580  1.00  0.00     0.129 N 
HETATM   13  H14 UNL     1      24.675   4.047  53.404  1.00  0.00     0.321 HD
BRANCH  12  14
HETATM   14  C13 UNL     1      24.574   2.077  52.794  1.00  0.00     0.397 C 
BRANCH  14  15
HETATM   15  N4  UNL     1      25.793   1.279  52.936  1.00  0.00    -0.362 N 
HETATM   16  C14 UNL     1      25.707  -0.140  52.874  1.00  0.00     0.089 A 
HETATM   17  C15 UNL     1      26.806  -0.870  53.001  1.00  0.00     0.040 A 
HETATM   18  C16 UNL     1      28.117  -0.298  53.202  1.00  0.00     0.033 A 
HETATM   19 CL2  UNL     1      29.605  -1.191  53.376  1.00  0.00    -0.085 Cl
HETATM   20  C17 UNL     1      28.166   1.036  53.255  1.00  0.00     0.017 A 
HETATM   21  C18 UNL     1      27.040   1.998  53.134  1.00  0.00     0.153 A 
ENDBRANCH  14  15
ENDBRANCH  12  14
ENDBRANCH   8  12
ENDBRANCH   1   8
BRANCH   5  22
HETATM   22  C6  UNL     1      28.324   6.695  47.729  1.00  0.00     0.097 C 
BRANCH  22  23
HETATM   23  C7  UNL     1      29.708   6.699  48.235  1.00  0.00    -0.031 A 
HETATM   24  C8  UNL     1      30.518   5.590  47.957  1.00  0.00     0.009 A 
HETATM   25  C9  UNL     1      31.810   5.398  48.355  1.00  0.00     0.001 A 
HETATM   26  C10 UNL     1      32.394   6.388  49.109  1.00  0.00     0.002 A 
HETATM   27  C11 UNL     1      31.665   7.507  49.422  1.00  0.00     0.024 A 
HETATM   28  C12 UNL     1      30.378   7.636  48.991  1.00  0.00     0.040 A 
HETATM   29 CL1  UNL     1      29.484   9.091  49.377  1.00  0.00    -0.084 Cl
ENDBRANCH  22  23
ENDBRANCH   5  22
TORSDOF 7
ENDMDL
MODEL 4
REMARK VINA RESULT:      -7.7      1.201      1.498
REMARK  7 active torsions:
REMARK  status: ('A' for Active; 'I' for Inactive)
REMARK    1  A    between atoms: P1_1  and  C1_2 
REMARK    2  A    between atoms: C1_2  and  N1_3 
REMARK    3  A    between atoms: C1_2  and  N3_17 
REMARK    4  A    between atoms: C5_7  and  C6_8 
REMARK    5  A    between atoms: C6_8  and  C7_9 
REMARK    6  A    between atoms: N3_17  and  C13_18 
REMARK    7  A    between atoms: C13_18  and  N4_19 
ROOT
HETATM    1  N1  UNL     1      25.276   4.279  50.488  1.00  0.00    -0.236 NA
HETATM    2  C2  UNL     1      24.978   3.465  51.435  1.00  0.00     0.105 A 
HETATM    3  C3  UNL     1      24.024   3.550  52.598  1.00  0.00     0.107 A 
HETATM    4  C4  UNL     1      24.271   2.207  53.185  1.00  0.00     0.006 A 
HETATM    5  C5  UNL     1      25.176   1.412  52.576  1.00  0.00     0.011 A 
HETATM    6  N2  UNL     1      25.617   2.194  51.490  1.00  0.00    -0.348 N 
HETATM    7  H13 UNL     1      26.330   1.812  50.844  1.00  0.00     0.167 HD
ENDROOT
BRANCH   1   8
HETATM    8  C1  UNL     1      24.721   5.575  50.296  1.00  0.00     0.365 C 
BRANCH   8   9
HETATM    9  P1  UNL     1      23.566   5.725  48.872  1.00  0.00    -0.083 P 
HETATM   10  H1  UNL     1      23.751   7.002  48.221  1.00  0.00     0.058 HD
HETATM   11  H2  UNL     1      22.199   5.466  49.235  1.00  0.00     0.058 HD
ENDBRANCH   8   9
BRANCH   8  12
HETATM   12  N3  UNL     1      25.742   6.626  50.294  1.00  0.00     0.129 N 
HETATM   13  H14 UNL     1      26.556   6.322  50.831  1.00  0.00     0.321 HD
BRANCH  12  14
HETATM   14  C13 UNL     1      26.075   6.971  48.932  1.00  0.00     0.397 C 
BRANCH  14  15
HETATM   15  N4  UNL     1      27.515   6.871  48.685  1.00  0.00    -0.362 N 
HETATM   16  C14 UNL     1      28.083   5.602  48.382  1.00  0.00     0.089 A 
HETATM   17  C15 UNL     1      29.385   5.503  48.157  1.00  0.00     0.040 A 
HETATM   18  C16 UNL     1      30.284   6.634  48.202  1.00  0.00     0.033 A 
HETATM   19 CL2  UNL     1      32.004   6.582  47.917  1.00  0.00    -0.085 Cl
HETATM   20  C17 UNL     1      29.722   7.811  48.489  1.00  0.00     0.017 A 
HETATM   21  C18 UNL     1      28.290   8.097  48.767  1.00  0.00     0.153 A 
ENDBRANCH  14  15
ENDBRANCH  12  14
ENDBRANCH   8  12
ENDBRANCH   1   8
BRANCH   5  22
HETATM   22  C6  UNL     1      25.422   0.075  53.162  1.00  0.00     0.097 C 
BRANCH  22  23
HETATM   23  C7  UNL     1      26.846  -0.204  53.414  1.00  0.00    -0.031 A 
HETATM   24  C8  UNL     1      27.578   0.721  54.170  1.00  0.00     0.009 A 
HETATM   25  C9  UNL     1      28.905   0.652  54.490  1.00  0.00     0.001 A 
HETATM   26  C10 UNL     1      29.611  -0.433  54.029  1.00  0.00     0.002 A 
HETATM   27  C11 UNL     1      28.963  -1.384  53.282  1.00  0.00     0.024 A 
HETATM   28  C12 UNL     1      27.635  -1.255  52.999  1.00  0.00     0.040 A 
HETATM   29 CL1  UNL     1      26.829  -2.501  52.073  1.00  0.00    -0.084 Cl
ENDBRANCH  22  23
ENDBRANCH   5  22
TORSDOF 7
ENDMDL
MODEL 5
REMARK VINA RESULT:      -7.7      1.849      7.427
REMARK  7 active torsions:
REMARK  status: ('A' for Active; 'I' for Inactive)
REMARK    1  A    between atoms: P1_1  and  C1_2 
REMARK    2  A    between atoms: C1_2  and  N1_3 
REMARK    3  A    between atoms: C1_2  and  N3_17 
REMARK    4  A    between atoms: C5_7  and  C6_8 
REMARK    5  A    between atoms: C6_8  and  C7_9 
REMARK    6  A    between atoms: N3_17  and  C13_18 
REMARK    7  A    between atoms: C13_18  and  N4_19 
ROOT
HETATM    1  N1  UNL     1      24.655   5.027  50.686  1.00  0.00    -0.236 NA
HETATM    2  C2  UNL     1      25.698   5.001  49.937  1.00  0.00     0.105 A 
HETATM    3  C3  UNL     1      26.662   3.907  49.560  1.00  0.00     0.107 A 
HETATM    4  C4  UNL     1      27.550   4.693  48.664  1.00  0.00     0.006 A 
HETATM    5  C5  UNL     1      27.263   6.000  48.486  1.00  0.00     0.011 A 
HETATM    6  N2  UNL     1      26.114   6.192  49.278  1.00  0.00    -0.348 N 
HETATM    7  H13 UNL     1      25.676   7.129  49.322  1.00  0.00     0.167 HD
ENDROOT
BRANCH   1   8
HETATM    8  C1  UNL     1      24.113   3.923  51.401  1.00  0.00     0.365 C 
BRANCH   8   9
HETATM    9  P1  UNL     1      22.324   4.057  51.804  1.00  0.00    -0.083 P 
HETATM   10  H1  UNL     1      22.134   3.977  53.235  1.00  0.00     0.058 HD
HETATM   11  H2  UNL     1      21.516   3.119  51.071  1.00  0.00     0.058 HD
ENDBRANCH   8   9
BRANCH   8  12
HETATM   12  N3  UNL     1      24.919   3.564  52.572  1.00  0.00     0.129 N 
HETATM   13  H14 UNL     1      24.766   4.243  53.321  1.00  0.00     0.321 HD
BRANCH  12  14
HETATM   14  C13 UNL     1      24.606   2.214  52.977  1.00  0.00     0.397 C 
BRANCH  14  15
HETATM   15  N4  UNL     1      25.807   1.382  53.060  1.00  0.00    -0.362 N 
HETATM   16  C14 UNL     1      27.054   1.989  53.380  1.00  0.00     0.089 A 
HETATM   17  C15 UNL     1      28.146   1.244  53.458  1.00  0.00     0.040 A 
HETATM   18  C16 UNL     1      28.148  -0.184  53.232  1.00  0.00     0.033 A 
HETATM   19 CL2  UNL     1      29.541  -1.229  53.318  1.00  0.00    -0.085 Cl
HETATM   20  C17 UNL     1      26.964  -0.725  52.934  1.00  0.00     0.017 A 
HETATM   21  C18 UNL     1      25.651  -0.040  52.806  1.00  0.00     0.153 A 
ENDBRANCH  14  15
ENDBRANCH  12  14
ENDBRANCH   8  12
ENDBRANCH   1   8
BRANCH   5  22
HETATM   22  C6  UNL     1      28.148   6.782  47.594  1.00  0.00     0.097 C 
BRANCH  22  23
HETATM   23  C7  UNL     1      29.325   7.345  48.279  1.00  0.00    -0.031 A 
HETATM   24  C8  UNL     1      29.208   8.613  48.863  1.00  0.00     0.009 A 
HETATM   25  C9  UNL     1      30.185   9.308  49.517  1.00  0.00     0.001 A 
HETATM   26  C10 UNL     1      31.420   8.715  49.624  1.00  0.00     0.002 A 
HETATM   27  C11 UNL     1      31.613   7.472  49.077  1.00  0.00     0.024 A 
HETATM   28  C12 UNL     1      30.594   6.832  48.437  1.00  0.00     0.040 A 
HETATM   29 CL1  UNL     1      30.862   5.232  47.781  1.00  0.00    -0.084 Cl
ENDBRANCH  22  23
ENDBRANCH   5  22
TORSDOF 7
ENDMDL
MODEL 6
REMARK VINA RESULT:      -7.6      3.372      6.338
REMARK  7 active torsions:
REMARK  status: ('A' for Active; 'I' for Inactive)
REMARK    1  A    between atoms: P1_1  and  C1_2 
REMARK    2  A    between atoms: C1_2  and  N1_3 
REMARK    3  A    between atoms: C1_2  and  N3_17 
REMARK    4  A    between atoms: C5_7  and  C6_8 
REMARK    5  A    between atoms: C6_8  and  C7_9 
REMARK    6  A    between atoms: N3_17  and  C13_18 
REMARK    7  A    between atoms: C13_18  and  N4_19 
ROOT
HETATM    1  N1  UNL     1      21.819   2.727  50.044  1.00  0.00    -0.236 NA
HETATM    2  C2  UNL     1      22.837   2.919  50.804  1.00  0.00     0.105 A 
HETATM    3  C3  UNL     1      22.989   3.502  52.184  1.00  0.00     0.107 A 
HETATM    4  C4  UNL     1      24.461   3.344  52.329  1.00  0.00     0.006 A 
HETATM    5  C5  UNL     1      25.138   2.799  51.297  1.00  0.00     0.011 A 
HETATM    6  N2  UNL     1      24.130   2.536  50.349  1.00  0.00    -0.348 N 
HETATM    7  H13 UNL     1      24.384   2.106  49.442  1.00  0.00     0.167 HD
ENDROOT
BRANCH   1   8
HETATM    8  C1  UNL     1      20.470   3.048  50.359  1.00  0.00     0.365 C 
BRANCH   8   9
HETATM    9  P1  UNL     1      20.058   4.839  50.291  1.00  0.00    -0.083 P 
HETATM   10  H1  UNL     1      20.907   5.504  49.329  1.00  0.00     0.058 HD
HETATM   11  H2  UNL     1      20.072   5.463  51.587  1.00  0.00     0.058 HD
ENDBRANCH   8   9
BRANCH   8  12
HETATM   12  N3  UNL     1      20.023   2.424  51.607  1.00  0.00     0.129 N 
HETATM   13  H14 UNL     1      19.086   2.756  51.846  1.00  0.00     0.321 HD
BRANCH  12  14
HETATM   14  C13 UNL     1      20.084   0.987  51.477  1.00  0.00     0.397 C 
BRANCH  14  15
HETATM   15  N4  UNL     1      20.906   0.383  52.526  1.00  0.00    -0.362 N 
HETATM   16  C14 UNL     1      20.479   0.468  53.881  1.00  0.00     0.089 A 
HETATM   17  C15 UNL     1      21.217  -0.077  54.837  1.00  0.00     0.040 A 
HETATM   18  C16 UNL     1      22.460  -0.768  54.580  1.00  0.00     0.033 A 
HETATM   19 CL2  UNL     1      23.483  -1.509  55.783  1.00  0.00    -0.085 Cl
HETATM   20  C17 UNL     1      22.835  -0.831  53.300  1.00  0.00     0.017 A 
HETATM   21  C18 UNL     1      22.132  -0.278  52.113  1.00  0.00     0.153 A 
ENDBRANCH  14  15
ENDBRANCH  12  14
ENDBRANCH   8  12
ENDBRANCH   1   8
BRANCH   5  22
HETATM   22  C6  UNL     1      26.603   2.643  51.442  1.00  0.00     0.097 C 
BRANCH  22  23
HETATM   23  C7  UNL     1      26.997   1.409  52.144  1.00  0.00    -0.031 A 
HETATM   24  C8  UNL     1      26.371   0.210  51.778  1.00  0.00     0.009 A 
HETATM   25  C9  UNL     1      26.581  -1.024  52.322  1.00  0.00     0.001 A 
HETATM   26  C10 UNL     1      27.501  -1.120  53.339  1.00  0.00     0.002 A 
HETATM   27  C11 UNL     1      28.157   0.012  53.754  1.00  0.00     0.024 A 
HETATM   28  C12 UNL     1      27.900   1.215  53.166  1.00  0.00     0.040 A 
HETATM   29 CL1  UNL     1      28.779   2.634  53.694  1.00  0.00    -0.084 Cl
ENDBRANCH  22  23
ENDBRANCH   5  22
TORSDOF 7
ENDMDL
MODEL 7
REMARK VINA RESULT:      -7.4      3.248      3.979
REMARK  7 active torsions:
REMARK  status: ('A' for Active; 'I' for Inactive)
REMARK    1  A    between atoms: P1_1  and  C1_2 
REMARK    2  A    between atoms: C1_2  and  N1_3 
REMARK    3  A    between atoms: C1_2  and  N3_17 
REMARK    4  A    between atoms: C5_7  and  C6_8 
REMARK    5  A    between atoms: C6_8  and  C7_9 
REMARK    6  A    between atoms: N3_17  and  C13_18 
REMARK    7  A    between atoms: C13_18  and  N4_19 
ROOT
HETATM    1  N1  UNL     1      23.999   5.297  50.683  1.00  0.00    -0.236 NA
HETATM    2  C2  UNL     1      23.167   4.434  51.144  1.00  0.00     0.105 A 
HETATM    3  C3  UNL     1      22.048   4.524  52.147  1.00  0.00     0.107 A 
HETATM    4  C4  UNL     1      21.588   3.111  52.093  1.00  0.00     0.006 A 
HETATM    5  C5  UNL     1      22.242   2.270  51.264  1.00  0.00     0.011 A 
HETATM    6  N2  UNL     1      23.224   3.091  50.676  1.00  0.00    -0.348 N 
HETATM    7  H13 UNL     1      23.879   2.685  49.984  1.00  0.00     0.167 HD
ENDROOT
BRANCH   1   8
HETATM    8  C1  UNL     1      24.063   6.671  51.045  1.00  0.00     0.365 C 
BRANCH   8   9
HETATM    9  P1  UNL     1      22.943   7.780  50.097  1.00  0.00    -0.083 P 
HETATM   10  H1  UNL     1      23.349   9.156  50.273  1.00  0.00     0.058 HD
HETATM   11  H2  UNL     1      21.554   7.555  50.395  1.00  0.00     0.058 HD
ENDBRANCH   8   9
BRANCH   8  12
HETATM   12  N3  UNL     1      25.438   7.176  51.085  1.00  0.00     0.129 N 
HETATM   13  H14 UNL     1      26.090   6.401  51.224  1.00  0.00     0.321 HD
BRANCH  12  14
HETATM   14  C13 UNL     1      25.713   7.921  49.879  1.00  0.00     0.397 C 
BRANCH  14  15
HETATM   15  N4  UNL     1      26.963   7.491  49.251  1.00  0.00    -0.362 N 
HETATM   16  C14 UNL     1      27.106   6.136  48.841  1.00  0.00     0.089 A 
HETATM   17  C15 UNL     1      28.234   5.738  48.271  1.00  0.00     0.040 A 
HETATM   18  C16 UNL     1      29.355   6.619  48.035  1.00  0.00     0.033 A 
HETATM   19 CL2  UNL     1      30.867   6.170  47.291  1.00  0.00    -0.085 Cl
HETATM   20  C17 UNL     1      29.191   7.884  48.429  1.00  0.00     0.017 A 
HETATM   21  C18 UNL     1      28.001   8.492  49.080  1.00  0.00     0.153 A 
ENDBRANCH  14  15
ENDBRANCH  12  14
ENDBRANCH   8  12
ENDBRANCH   1   8
BRANCH   5  22
HETATM   22  C6  UNL     1      21.784   0.863  51.212  1.00  0.00     0.097 C 
BRANCH  22  23
HETATM   23  C7  UNL     1      21.915   0.154  52.497  1.00  0.00    -0.031 A 
HETATM   24  C8  UNL     1      23.202  -0.061  53.007  1.00  0.00     0.009 A 
HETATM   25  C9  UNL     1      23.528  -0.713  54.162  1.00  0.00     0.001 A 
HETATM   26  C10 UNL     1      22.497  -1.219  54.916  1.00  0.00     0.002 A 
HETATM   27  C11 UNL     1      21.207  -1.049  54.482  1.00  0.00     0.024 A 
HETATM   28  C12 UNL     1      20.950  -0.386  53.319  1.00  0.00     0.040 A 
HETATM   29 CL1  UNL     1      19.291  -0.155  52.810  1.00  0.00    -0.084 Cl
ENDBRANCH  22  23
ENDBRANCH   5  22
TORSDOF 7
ENDMDL
MODEL 8
REMARK VINA RESULT:      -7.2      3.122      4.046
REMARK  7 active torsions:
REMARK  status: ('A' for Active; 'I' for Inactive)
REMARK    1  A    between atoms: P1_1  and  C1_2 
REMARK    2  A    between atoms: C1_2  and  N1_3 
REMARK    3  A    between atoms: C1_2  and  N3_17 
REMARK    4  A    between atoms: C5_7  and  C6_8 
REMARK    5  A    between atoms: C6_8  and  C7_9 
REMARK    6  A    between atoms: N3_17  and  C13_18 
REMARK    7  A    between atoms: C13_18  and  N4_19 
ROOT
HETATM    1  N1  UNL     1      20.025   3.173  52.395  1.00  0.00    -0.236 NA
HETATM    2  C2  UNL     1      20.623   2.066  52.136  1.00  0.00     0.105 A 
HETATM    3  C3  UNL     1      20.631   1.164  50.930  1.00  0.00     0.107 A 
HETATM    4  C4  UNL     1      21.571   0.128  51.435  1.00  0.00     0.006 A 
HETATM    5  C5  UNL     1      22.069   0.286  52.679  1.00  0.00     0.011 A 
HETATM    6  N2  UNL     1      21.479   1.489  53.116  1.00  0.00    -0.348 N 
HETATM    7  H13 UNL     1      21.697   1.849  54.062  1.00  0.00     0.167 HD
ENDROOT
BRANCH   1   8
HETATM    8  C1  UNL     1      19.150   3.873  51.520  1.00  0.00     0.365 C 
BRANCH   8   9
HETATM    9  P1  UNL     1      17.551   3.031  51.178  1.00  0.00    -0.083 P 
HETATM   10  H1  UNL     1      17.791   1.768  50.518  1.00  0.00     0.058 HD
HETATM   11  H2  UNL     1      16.619   3.871  50.475  1.00  0.00     0.058 HD
ENDBRANCH   8   9
BRANCH   8  12
HETATM   12  N3  UNL     1      19.818   4.312  50.292  1.00  0.00     0.129 N 
HETATM   13  H14 UNL     1      19.129   4.676  49.631  1.00  0.00     0.321 HD
BRANCH  12  14
HETATM   14  C13 UNL     1      20.838   5.281  50.618  1.00  0.00     0.397 C 
BRANCH  14  15
HETATM   15  N4  UNL     1      22.180   4.769  50.336  1.00  0.00    -0.362 N 
HETATM   16  C14 UNL     1      22.368   3.865  49.254  1.00  0.00     0.089 A 
HETATM   17  C15 UNL     1      23.579   3.398  48.991  1.00  0.00     0.040 A 
HETATM   18  C16 UNL     1      24.750   3.760  49.757  1.00  0.00     0.033 A 
HETATM   19 CL2  UNL     1      26.373   3.189  49.472  1.00  0.00    -0.085 Cl
HETATM   20  C17 UNL     1      24.543   4.610  50.766  1.00  0.00     0.017 A 
HETATM   21  C18 UNL     1      23.260   5.225  51.195  1.00  0.00     0.153 A 
ENDBRANCH  14  15
ENDBRANCH  12  14
ENDBRANCH   8  12
ENDBRANCH   1   8
BRANCH   5  22
HETATM   22  C6  UNL     1      23.004  -0.746  53.181  1.00  0.00     0.097 C 
BRANCH  22  23
HETATM   23  C7  UNL     1      24.374  -0.247  53.390  1.00  0.00    -0.031 A 
HETATM   24  C8  UNL     1      24.968   0.505  52.368  1.00  0.00     0.009 A 
HETATM   25  C9  UNL     1      26.228   1.032  52.363  1.00  0.00     0.001 A 
HETATM   26  C10 UNL     1      27.011   0.811  53.471  1.00  0.00     0.002 A 
HETATM   27  C11 UNL     1      26.499   0.083  54.515  1.00  0.00     0.024 A 
HETATM   28  C12 UNL     1      25.231  -0.414  54.456  1.00  0.00     0.040 A 
HETATM   29 CL1  UNL     1      24.594  -1.308  55.819  1.00  0.00    -0.084 Cl
ENDBRANCH  22  23
ENDBRANCH   5  22
TORSDOF 7
ENDMDL
MODEL 9
REMARK VINA RESULT:      -7.2      2.465      3.390
REMARK  7 active torsions:
REMARK  status: ('A' for Active; 'I' for Inactive)
REMARK    1  A    between atoms: P1_1  and  C1_2 
REMARK    2  A    between atoms: C1_2  and  N1_3 
REMARK    3  A    between atoms: C1_2  and  N3_17 
REMARK    4  A    between atoms: C5_7  and  C6_8 
REMARK    5  A    between atoms: C6_8  and  C7_9 
REMARK    6  A    between atoms: N3_17  and  C13_18 
REMARK    7  A    between atoms: C13_18  and  N4_19 
ROOT
HETATM    1  N1  UNL     1      25.229   6.218  50.476  1.00  0.00    -0.236 NA
HETATM    2  C2  UNL     1      25.667   5.019  50.332  1.00  0.00     0.105 A 
HETATM    3  C3  UNL     1      26.607   4.384  49.342  1.00  0.00     0.107 A 
HETATM    4  C4  UNL     1      26.590   2.997  49.879  1.00  0.00     0.006 A 
HETATM    5  C5  UNL     1      25.820   2.753  50.960  1.00  0.00     0.011 A 
HETATM    6  N2  UNL     1      25.245   4.008  51.241  1.00  0.00    -0.348 N 
HETATM    7  H13 UNL     1      24.596   4.103  52.042  1.00  0.00     0.167 HD
ENDROOT
BRANCH   1   8
HETATM    8  C1  UNL     1      25.562   7.332  49.658  1.00  0.00     0.365 C 
BRANCH   8   9
HETATM    9  P1  UNL     1      24.889   7.273  47.947  1.00  0.00    -0.083 P 
HETATM   10  H1  UNL     1      23.672   8.048  47.871  1.00  0.00     0.058 HD
HETATM   11  H2  UNL     1      24.740   5.931  47.453  1.00  0.00     0.058 HD
ENDBRANCH   8   9
BRANCH   8  12
HETATM   12  N3  UNL     1      26.997   7.632  49.678  1.00  0.00     0.129 N 
HETATM   13  H14 UNL     1      27.490   7.020  49.025  1.00  0.00     0.321 HD
BRANCH  12  14
HETATM   14  C13 UNL     1      27.200   9.031  49.385  1.00  0.00     0.397 C 
BRANCH  14  15
HETATM   15  N4  UNL     1      28.556   9.290  48.897  1.00  0.00    -0.362 N 
HETATM   16  C14 UNL     1      29.061  10.620  48.917  1.00  0.00     0.089 A 
HETATM   17  C15 UNL     1      30.287  10.863  48.478  1.00  0.00     0.040 A 
HETATM   18  C16 UNL     1      31.163   9.834  47.967  1.00  0.00     0.033 A 
HETATM   19 CL2  UNL     1      32.785  10.075  47.374  1.00  0.00    -0.085 Cl
HETATM   20  C17 UNL     1      30.661   8.596  47.961  1.00  0.00     0.017 A 
HETATM   21  C18 UNL     1      29.317   8.152  48.413  1.00  0.00     0.153 A 
ENDBRANCH  14  15
ENDBRANCH  12  14
ENDBRANCH   8  12
ENDBRANCH   1   8
BRANCH   5  22
HETATM   22  C6  UNL     1      25.803   1.372  51.493  1.00  0.00     0.097 C 
BRANCH  22  23
HETATM   23  C7  UNL     1      26.928   1.077  52.398  1.00  0.00    -0.031 A 
HETATM   24  C8  UNL     1      27.658   2.153  52.919  1.00  0.00     0.009 A 
HETATM   25  C9  UNL     1      28.740   2.084  53.750  1.00  0.00     0.001 A 
HETATM   26  C10 UNL     1      29.172   0.834  54.124  1.00  0.00     0.002 A 
HETATM   27  C11 UNL     1      28.507  -0.270  53.655  1.00  0.00     0.024 A 
HETATM   28  C12 UNL     1      27.431  -0.131  52.829  1.00  0.00     0.040 A 
HETATM   29 CL1  UNL     1      26.583  -1.558  52.275  1.00  0.00    -0.084 Cl
ENDBRANCH  22  23
ENDBRANCH   5  22
TORSDOF 7
ENDMDL
