MODEL 1
REMARK VINA RESULT:      -7.8      0.000      0.000
REMARK  6 active torsions:
REMARK  status: ('A' for Active; 'I' for Inactive)
REMARK    1  A    between atoms: C2_2  and  C3_3 
REMARK    2  A    between atoms: C3_3  and  C4_4 
REMARK    3  A    between atoms: C4_4  and  C5_5 
REMARK    4  A    between atoms: N2_7  and  C6_8 
REMARK    5  A    between atoms: C15_19  and  C16_20 
REMARK    6  A    between atoms: C19_23  and  O1_24 
ROOT
HETATM    1  C3  UNL     1      27.726   0.026  53.256  1.00  0.00     0.148 C 
HETATM    2  O2  UNL     1      27.394  -1.101  52.842  1.00  0.00    -0.387 OA
HETATM    3  C24 UNL     1      27.065  -2.227  52.426  1.00  0.00     0.202 C 
ENDROOT
BRANCH   1   4
HETATM    4  C2  UNL     1      28.934   0.032  54.212  1.00  0.00    -0.005 C 
HETATM    5  C1  UNL     1      30.010  -0.470  53.615  1.00  0.00     0.009 C 
ENDBRANCH   1   4
BRANCH   1   6
HETATM    6  C4  UNL     1      26.736   0.990  53.896  1.00  0.00     0.092 C 
BRANCH   6   7
HETATM    7  C5  UNL     1      25.435   1.041  53.197  1.00  0.00     0.038 C 
HETATM    8  N1  UNL     1      25.154   2.034  52.423  1.00  0.00    -0.179 NA
HETATM    9  N2  UNL     1      23.903   1.963  51.828  1.00  0.00    -0.237 N 
HETATM   10  C15 UNL     1      23.521   0.552  51.900  1.00  0.00     0.151 C 
HETATM   11  C23 UNL     1      24.253   0.144  53.160  1.00  0.00     0.088 C 
BRANCH   9  12
HETATM   12  C6  UNL     1      23.312   3.195  51.310  1.00  0.00     0.181 C 
HETATM   13  N3  UNL     1      22.844   3.896  52.378  1.00  0.00    -0.261 NA
HETATM   14  C7  UNL     1      21.952   5.121  52.299  1.00  0.00     0.190 C 
HETATM   15  C8  UNL     1      21.950   5.450  50.786  1.00  0.00    -0.038 A 
HETATM   16  C9  UNL     1      23.020   6.250  51.041  1.00  0.00     0.009 A 
HETATM   17  C13 UNL     1      21.279   4.569  49.921  1.00  0.00     0.016 A 
HETATM   18  C10 UNL     1      23.947   6.216  49.967  1.00  0.00     0.001 A 
HETATM   19  C11 UNL     1      23.594   5.372  48.892  1.00  0.00     0.008 A 
HETATM   20  C12 UNL     1      22.394   4.743  49.077  1.00  0.00    -0.048 A 
HETATM   21  C14 UNL     1      22.938   3.523  48.302  1.00  0.00     0.121 C 
HETATM   22  S1  UNL     1      23.783   2.592  49.674  1.00  0.00    -0.086 SA
ENDBRANCH   9  12
BRANCH  10  23
HETATM   23  C16 UNL     1      22.081   0.394  52.151  1.00  0.00    -0.033 A 
HETATM   24  C17 UNL     1      21.506   0.236  53.387  1.00  0.00     0.012 A 
HETATM   25  C18 UNL     1      20.146   0.097  53.550  1.00  0.00     0.037 A 
HETATM   26  C19 UNL     1      19.287   0.106  52.483  1.00  0.00     0.068 A 
HETATM   27  C21 UNL     1      19.817   0.263  51.210  1.00  0.00     0.037 A 
HETATM   28  C22 UNL     1      21.178   0.399  51.091  1.00  0.00     0.012 A 
BRANCH  26  29
HETATM   29  O1  UNL     1      17.920  -0.031  52.622  1.00  0.00    -0.356 OA
HETATM   30  C20 UNL     1      17.326  -1.262  53.058  1.00  0.00     0.210 C 
ENDBRANCH  26  29
ENDBRANCH  10  23
ENDBRANCH   6   7
ENDBRANCH   1   6
TORSDOF 6
ENDMDL
MODEL 2
REMARK VINA RESULT:      -7.6      2.814      5.841
REMARK  6 active torsions:
REMARK  status: ('A' for Active; 'I' for Inactive)
REMARK    1  A    between atoms: C2_2  and  C3_3 
REMARK    2  A    between atoms: C3_3  and  C4_4 
REMARK    3  A    between atoms: C4_4  and  C5_5 
REMARK    4  A    between atoms: N2_7  and  C6_8 
REMARK    5  A    between atoms: C15_19  and  C16_20 
REMARK    6  A    between atoms: C19_23  and  O1_24 
ROOT
HETATM    1  C3  UNL     1      25.888  -0.588  53.812  1.00  0.00     0.148 C 
HETATM    2  O2  UNL     1      24.684  -0.698  54.112  1.00  0.00    -0.387 OA
HETATM    3  C24 UNL     1      23.481  -0.811  54.414  1.00  0.00     0.202 C 
ENDROOT
BRANCH   1   4
HETATM    4  C2  UNL     1      26.677   0.418  54.671  1.00  0.00    -0.005 C 
HETATM    5  C1  UNL     1      27.967   0.100  54.704  1.00  0.00     0.009 C 
ENDBRANCH   1   4
BRANCH   1   6
HETATM    6  C4  UNL     1      26.358  -0.316  52.389  1.00  0.00     0.092 C 
BRANCH   6   7
HETATM    7  C5  UNL     1      25.899   0.985  51.860  1.00  0.00     0.038 C 
HETATM    8  N1  UNL     1      24.649   1.175  51.602  1.00  0.00    -0.179 NA
HETATM    9  N2  UNL     1      24.349   2.437  51.112  1.00  0.00    -0.237 N 
HETATM   10  C15 UNL     1      25.476   3.283  51.508  1.00  0.00     0.151 C 
HETATM   11  C23 UNL     1      26.587   2.255  51.520  1.00  0.00     0.088 C 
BRANCH   9  12
HETATM   12  C6  UNL     1      23.094   2.618  50.386  1.00  0.00     0.181 C 
HETATM   13  N3  UNL     1      23.358   2.407  49.068  1.00  0.00    -0.261 NA
HETATM   14  C7  UNL     1      22.408   2.712  47.924  1.00  0.00     0.190 C 
HETATM   15  C8  UNL     1      21.087   3.055  48.655  1.00  0.00    -0.038 A 
HETATM   16  C9  UNL     1      20.781   1.734  48.552  1.00  0.00     0.009 A 
HETATM   17  C13 UNL     1      21.029   4.255  49.383  1.00  0.00     0.016 A 
HETATM   18  C10 UNL     1      20.079   1.284  49.700  1.00  0.00     0.001 A 
HETATM   19  C11 UNL     1      19.862   2.262  50.697  1.00  0.00     0.008 A 
HETATM   20  C12 UNL     1      20.362   3.489  50.360  1.00  0.00    -0.048 A 
HETATM   21  C14 UNL     1      20.671   3.749  51.850  1.00  0.00     0.121 C 
HETATM   22  S1  UNL     1      22.351   2.963  51.996  1.00  0.00    -0.086 SA
ENDBRANCH   9  12
BRANCH  10  23
HETATM   23  C16 UNL     1      25.798   4.275  50.470  1.00  0.00    -0.033 A 
HETATM   24  C17 UNL     1      26.811   4.157  49.551  1.00  0.00     0.012 A 
HETATM   25  C18 UNL     1      27.055   5.125  48.603  1.00  0.00     0.037 A 
HETATM   26  C19 UNL     1      26.299   6.265  48.524  1.00  0.00     0.068 A 
HETATM   27  C21 UNL     1      25.262   6.433  49.430  1.00  0.00     0.037 A 
HETATM   28  C22 UNL     1      25.051   5.444  50.360  1.00  0.00     0.012 A 
BRANCH  26  29
HETATM   29  O1  UNL     1      26.524   7.249  47.581  1.00  0.00    -0.356 OA
HETATM   30  C20 UNL     1      26.680   8.625  47.951  1.00  0.00     0.210 C 
ENDBRANCH  26  29
ENDBRANCH  10  23
ENDBRANCH   6   7
ENDBRANCH   1   6
TORSDOF 6
ENDMDL
MODEL 3
REMARK VINA RESULT:      -7.5      1.664      6.300
REMARK  6 active torsions:
REMARK  status: ('A' for Active; 'I' for Inactive)
REMARK    1  A    between atoms: C2_2  and  C3_3 
REMARK    2  A    between atoms: C3_3  and  C4_4 
REMARK    3  A    between atoms: C4_4  and  C5_5 
REMARK    4  A    between atoms: N2_7  and  C6_8 
REMARK    5  A    between atoms: C15_19  and  C16_20 
REMARK    6  A    between atoms: C19_23  and  O1_24 
ROOT
HETATM    1  C3  UNL     1      17.333  -0.687  52.507  1.00  0.00     0.148 C 
HETATM    2  O2  UNL     1      17.589  -1.743  53.116  1.00  0.00    -0.387 OA
HETATM    3  C24 UNL     1      17.844  -2.796  53.730  1.00  0.00     0.202 C 
ENDROOT
BRANCH   1   4
HETATM    4  C2  UNL     1      15.879  -0.566  52.010  1.00  0.00    -0.005 C 
HETATM    5  C1  UNL     1      15.235   0.393  52.669  1.00  0.00     0.009 C 
ENDBRANCH   1   4
BRANCH   1   6
HETATM    6  C4  UNL     1      18.171  -0.192  51.336  1.00  0.00     0.092 C 
BRANCH   6   7
HETATM    7  C5  UNL     1      19.450   0.422  51.751  1.00  0.00     0.038 C 
HETATM    8  N1  UNL     1      19.787   1.583  51.301  1.00  0.00    -0.179 NA
HETATM    9  N2  UNL     1      21.008   2.048  51.767  1.00  0.00    -0.237 N 
HETATM   10  C15 UNL     1      21.275   1.279  52.983  1.00  0.00     0.151 C 
HETATM   11  C23 UNL     1      20.552  -0.007  52.647  1.00  0.00     0.088 C 
BRANCH   9  12
HETATM   12  C6  UNL     1      21.682   3.101  51.010  1.00  0.00     0.181 C 
HETATM   13  N3  UNL     1      21.539   4.257  51.715  1.00  0.00    -0.261 NA
HETATM   14  C7  UNL     1      21.877   5.644  51.200  1.00  0.00     0.190 C 
HETATM   15  C8  UNL     1      22.604   5.350  49.865  1.00  0.00    -0.038 A 
HETATM   16  C9  UNL     1      23.756   5.340  50.588  1.00  0.00     0.009 A 
HETATM   17  C13 UNL     1      21.843   4.842  48.799  1.00  0.00     0.016 A 
HETATM   18  C10 UNL     1      24.662   4.369  50.087  1.00  0.00     0.001 A 
HETATM   19  C11 UNL     1      24.193   3.617  48.987  1.00  0.00     0.008 A 
HETATM   20  C12 UNL     1      22.938   3.981  48.587  1.00  0.00    -0.048 A 
HETATM   21  C14 UNL     1      22.665   2.515  48.184  1.00  0.00     0.121 C 
HETATM   22  S1  UNL     1      22.084   1.815  49.807  1.00  0.00    -0.086 SA
ENDBRANCH   9  12
BRANCH  10  23
HETATM   23  C16 UNL     1      22.705   0.963  53.120  1.00  0.00    -0.033 A 
HETATM   24  C17 UNL     1      23.723   1.884  53.099  1.00  0.00     0.012 A 
HETATM   25  C18 UNL     1      25.043   1.518  53.236  1.00  0.00     0.037 A 
HETATM   26  C19 UNL     1      25.417   0.210  53.402  1.00  0.00     0.068 A 
HETATM   27  C21 UNL     1      24.426  -0.760  53.430  1.00  0.00     0.037 A 
HETATM   28  C22 UNL     1      23.121  -0.354  53.290  1.00  0.00     0.012 A 
BRANCH  26  29
HETATM   29  O1  UNL     1      26.734  -0.180  53.542  1.00  0.00    -0.356 OA
HETATM   30  C20 UNL     1      27.591   0.403  54.533  1.00  0.00     0.210 C 
ENDBRANCH  26  29
ENDBRANCH  10  23
ENDBRANCH   6   7
ENDBRANCH   1   6
TORSDOF 6
ENDMDL
MODEL 4
REMARK VINA RESULT:      -7.5      1.057      2.164
REMARK  6 active torsions:
REMARK  status: ('A' for Active; 'I' for Inactive)
REMARK    1  A    between atoms: C2_2  and  C3_3 
REMARK    2  A    between atoms: C3_3  and  C4_4 
REMARK    3  A    between atoms: C4_4  and  C5_5 
REMARK    4  A    between atoms: N2_7  and  C6_8 
REMARK    5  A    between atoms: C15_19  and  C16_20 
REMARK    6  A    between atoms: C19_23  and  O1_24 
ROOT
HETATM    1  C3  UNL     1      27.625  -0.081  53.618  1.00  0.00     0.148 C 
HETATM    2  O2  UNL     1      27.518  -1.240  53.175  1.00  0.00    -0.387 OA
HETATM    3  C24 UNL     1      27.413  -2.398  52.729  1.00  0.00     0.202 C 
ENDROOT
BRANCH   1   4
HETATM    4  C2  UNL     1      28.818   0.139  54.567  1.00  0.00    -0.005 C 
HETATM    5  C1  UNL     1      29.277   1.383  54.467  1.00  0.00     0.009 C 
ENDBRANCH   1   4
BRANCH   1   6
HETATM    6  C4  UNL     1      26.471   0.651  54.291  1.00  0.00     0.092 C 
BRANCH   6   7
HETATM    7  C5  UNL     1      25.229   0.646  53.489  1.00  0.00     0.038 C 
HETATM    8  N1  UNL     1      25.068   1.503  52.539  1.00  0.00    -0.179 NA
HETATM    9  N2  UNL     1      23.862   1.393  51.863  1.00  0.00    -0.237 N 
HETATM   10  C15 UNL     1      23.386   0.037  52.141  1.00  0.00     0.151 C 
HETATM   11  C23 UNL     1      23.998  -0.184  53.507  1.00  0.00     0.088 C 
BRANCH   9  12
HETATM   12  C6  UNL     1      23.389   2.546  51.099  1.00  0.00     0.181 C 
HETATM   13  N3  UNL     1      23.203   2.129  49.817  1.00  0.00    -0.261 NA
HETATM   14  C7  UNL     1      22.943   3.038  48.630  1.00  0.00     0.190 C 
HETATM   15  C8  UNL     1      22.714   4.417  49.294  1.00  0.00    -0.038 A 
HETATM   16  C9  UNL     1      21.394   4.091  49.331  1.00  0.00     0.009 A 
HETATM   17  C13 UNL     1      23.818   5.054  49.886  1.00  0.00     0.016 A 
HETATM   18  C10 UNL     1      20.780   4.591  50.508  1.00  0.00     0.001 A 
HETATM   19  C11 UNL     1      21.638   5.288  51.388  1.00  0.00     0.008 A 
HETATM   20  C12 UNL     1      22.923   5.370  50.928  1.00  0.00    -0.048 A 
HETATM   21  C14 UNL     1      23.426   5.309  52.386  1.00  0.00     0.121 C 
HETATM   22  S1  UNL     1      23.503   3.468  52.648  1.00  0.00    -0.086 SA
ENDBRANCH   9  12
BRANCH  10  23
HETATM   23  C16 UNL     1      21.924  -0.002  52.296  1.00  0.00    -0.033 A 
HETATM   24  C17 UNL     1      21.017   0.209  51.288  1.00  0.00     0.012 A 
HETATM   25  C18 UNL     1      19.658   0.154  51.504  1.00  0.00     0.037 A 
HETATM   26  C19 UNL     1      19.133  -0.114  52.741  1.00  0.00     0.068 A 
HETATM   27  C21 UNL     1      20.008  -0.334  53.795  1.00  0.00     0.037 A 
HETATM   28  C22 UNL     1      21.356  -0.271  53.538  1.00  0.00     0.012 A 
BRANCH  26  29
HETATM   29  O1  UNL     1      17.775  -0.175  52.980  1.00  0.00    -0.356 OA
HETATM   30  C20 UNL     1      16.815   0.064  51.942  1.00  0.00     0.210 C 
ENDBRANCH  26  29
ENDBRANCH  10  23
ENDBRANCH   6   7
ENDBRANCH   1   6
TORSDOF 6
ENDMDL
MODEL 5
REMARK VINA RESULT:      -7.3      3.045      6.400
REMARK  6 active torsions:
REMARK  status: ('A' for Active; 'I' for Inactive)
REMARK    1  A    between atoms: C2_2  and  C3_3 
REMARK    2  A    between atoms: C3_3  and  C4_4 
REMARK    3  A    between atoms: C4_4  and  C5_5 
REMARK    4  A    between atoms: N2_7  and  C6_8 
REMARK    5  A    between atoms: C15_19  and  C16_20 
REMARK    6  A    between atoms: C19_23  and  O1_24 
ROOT
HETATM    1  C3  UNL     1      23.208   0.118  53.133  1.00  0.00     0.148 C 
HETATM    2  O2  UNL     1      24.400  -0.243  53.163  1.00  0.00    -0.387 OA
HETATM    3  C24 UNL     1      25.592  -0.602  53.197  1.00  0.00     0.202 C 
ENDROOT
BRANCH   1   4
HETATM    4  C2  UNL     1      22.210  -0.904  53.709  1.00  0.00    -0.005 C 
HETATM    5  C1  UNL     1      21.552  -0.389  54.743  1.00  0.00     0.009 C 
ENDBRANCH   1   4
BRANCH   1   6
HETATM    6  C4  UNL     1      22.536   0.625  51.864  1.00  0.00     0.092 C 
BRANCH   6   7
HETATM    7  C5  UNL     1      23.096   1.902  51.375  1.00  0.00     0.038 C 
HETATM    8  N1  UNL     1      22.316   2.811  50.896  1.00  0.00    -0.179 NA
HETATM    9  N2  UNL     1      22.965   3.961  50.473  1.00  0.00    -0.237 N 
HETATM   10  C15 UNL     1      24.260   3.947  51.156  1.00  0.00     0.151 C 
HETATM   11  C23 UNL     1      24.471   2.456  51.293  1.00  0.00     0.088 C 
BRANCH   9  12
HETATM   12  C6  UNL     1      22.273   4.842  49.535  1.00  0.00     0.181 C 
HETATM   13  N3  UNL     1      22.457   4.326  48.289  1.00  0.00    -0.261 NA
HETATM   14  C7  UNL     1      22.114   5.031  46.990  1.00  0.00     0.190 C 
HETATM   15  C8  UNL     1      21.330   6.277  47.469  1.00  0.00    -0.038 A 
HETATM   16  C9  UNL     1      20.208   5.518  47.350  1.00  0.00     0.009 A 
HETATM   17  C13 UNL     1      22.041   7.283  48.144  1.00  0.00     0.016 A 
HETATM   18  C10 UNL     1      19.272   5.830  48.370  1.00  0.00     0.001 A 
HETATM   19  C11 UNL     1      19.687   6.822  49.287  1.00  0.00     0.008 A 
HETATM   20  C12 UNL     1      20.929   7.320  49.009  1.00  0.00    -0.048 A 
HETATM   21  C14 UNL     1      21.169   7.507  50.523  1.00  0.00     0.121 C 
HETATM   22  S1  UNL     1      21.809   5.820  50.981  1.00  0.00    -0.086 SA
ENDBRANCH   9  12
BRANCH  10  23
HETATM   23  C16 UNL     1      25.330   4.473  50.296  1.00  0.00    -0.033 A 
HETATM   24  C17 UNL     1      26.303   3.715  49.692  1.00  0.00     0.012 A 
HETATM   25  C18 UNL     1      27.276   4.274  48.895  1.00  0.00     0.037 A 
HETATM   26  C19 UNL     1      27.330   5.623  48.659  1.00  0.00     0.068 A 
HETATM   27  C21 UNL     1      26.370   6.434  49.247  1.00  0.00     0.037 A 
HETATM   28  C22 UNL     1      25.416   5.838  50.035  1.00  0.00     0.012 A 
BRANCH  26  29
HETATM   29  O1  UNL     1      28.296   6.205  47.863  1.00  0.00    -0.356 OA
HETATM   30  C20 UNL     1      28.804   7.519  48.133  1.00  0.00     0.210 C 
ENDBRANCH  26  29
ENDBRANCH  10  23
ENDBRANCH   6   7
ENDBRANCH   1   6
TORSDOF 6
ENDMDL
MODEL 6
REMARK VINA RESULT:      -7.3      3.171      6.463
REMARK  6 active torsions:
REMARK  status: ('A' for Active; 'I' for Inactive)
REMARK    1  A    between atoms: C2_2  and  C3_3 
REMARK    2  A    between atoms: C3_3  and  C4_4 
REMARK    3  A    between atoms: C4_4  and  C5_5 
REMARK    4  A    between atoms: N2_7  and  C6_8 
REMARK    5  A    between atoms: C15_19  and  C16_20 
REMARK    6  A    between atoms: C19_23  and  O1_24 
ROOT
HETATM    1  C3  UNL     1      27.227   7.339  48.715  1.00  0.00     0.148 C 
HETATM    2  O2  UNL     1      27.291   8.302  49.503  1.00  0.00    -0.387 OA
HETATM    3  C24 UNL     1      27.359   9.262  50.293  1.00  0.00     0.202 C 
ENDROOT
BRANCH   1   4
HETATM    4  C2  UNL     1      28.029   7.518  47.412  1.00  0.00    -0.005 C 
HETATM    5  C1  UNL     1      27.365   8.284  46.551  1.00  0.00     0.009 C 
ENDBRANCH   1   4
BRANCH   1   6
HETATM    6  C4  UNL     1      25.903   6.737  48.261  1.00  0.00     0.092 C 
BRANCH   6   7
HETATM    7  C5  UNL     1      25.575   5.466  48.939  1.00  0.00     0.038 C 
HETATM    8  N1  UNL     1      24.353   5.056  48.992  1.00  0.00    -0.179 NA
HETATM    9  N2  UNL     1      24.179   3.851  49.655  1.00  0.00    -0.237 N 
HETATM   10  C15 UNL     1      25.497   3.215  49.652  1.00  0.00     0.151 C 
HETATM   11  C23 UNL     1      26.383   4.441  49.646  1.00  0.00     0.088 C 
BRANCH   9  12
HETATM   12  C6  UNL     1      22.846   3.521  50.155  1.00  0.00     0.181 C 
HETATM   13  N3  UNL     1      22.667   4.215  51.312  1.00  0.00    -0.261 NA
HETATM   14  C7  UNL     1      21.528   4.004  52.292  1.00  0.00     0.190 C 
HETATM   15  C8  UNL     1      20.586   3.044  51.527  1.00  0.00    -0.038 A 
HETATM   16  C9  UNL     1      19.968   4.158  51.052  1.00  0.00     0.009 A 
HETATM   17  C13 UNL     1      21.017   1.722  51.323  1.00  0.00     0.016 A 
HETATM   18  C10 UNL     1      19.538   3.969  49.713  1.00  0.00     0.001 A 
HETATM   19  C11 UNL     1      19.845   2.709  49.152  1.00  0.00     0.008 A 
HETATM   20  C12 UNL     1      20.497   1.881  50.023  1.00  0.00    -0.048 A 
HETATM   21  C14 UNL     1      21.269   1.272  48.833  1.00  0.00     0.121 C 
HETATM   22  S1  UNL     1      22.693   2.462  48.700  1.00  0.00    -0.086 SA
ENDBRANCH   9  12
BRANCH  10  23
HETATM   23  C16 UNL     1      25.750   2.488  50.905  1.00  0.00    -0.033 A 
HETATM   24  C17 UNL     1      24.885   1.599  51.492  1.00  0.00     0.012 A 
HETATM   25  C18 UNL     1      25.188   0.950  52.668  1.00  0.00     0.037 A 
HETATM   26  C19 UNL     1      26.374   1.157  53.322  1.00  0.00     0.068 A 
HETATM   27  C21 UNL     1      27.285   2.047  52.771  1.00  0.00     0.037 A 
HETATM   28  C22 UNL     1      26.944   2.674  51.597  1.00  0.00     0.012 A 
BRANCH  26  29
HETATM   29  O1  UNL     1      26.700   0.518  54.501  1.00  0.00    -0.356 OA
HETATM   30  C20 UNL     1      28.049   0.135  54.803  1.00  0.00     0.210 C 
ENDBRANCH  26  29
ENDBRANCH  10  23
ENDBRANCH   6   7
ENDBRANCH   1   6
TORSDOF 6
ENDMDL
MODEL 7
REMARK VINA RESULT:      -7.1      2.987      6.902
REMARK  6 active torsions:
REMARK  status: ('A' for Active; 'I' for Inactive)
REMARK    1  A    between atoms: C2_2  and  C3_3 
REMARK    2  A    between atoms: C3_3  and  C4_4 
REMARK    3  A    between atoms: C4_4  and  C5_5 
REMARK    4  A    between atoms: N2_7  and  C6_8 
REMARK    5  A    between atoms: C15_19  and  C16_20 
REMARK    6  A    between atoms: C19_23  and  O1_24 
ROOT
HETATM    1  C3  UNL     1      24.289   8.217  48.796  1.00  0.00     0.148 C 
HETATM    2  O2  UNL     1      25.349   8.567  49.349  1.00  0.00    -0.387 OA
HETATM    3  C24 UNL     1      26.408   8.921  49.900  1.00  0.00     0.202 C 
ENDROOT
BRANCH   1   4
HETATM    4  C2  UNL     1      23.077   8.103  49.741  1.00  0.00    -0.005 C 
HETATM    5  C1  UNL     1      22.081   8.879  49.325  1.00  0.00     0.009 C 
ENDBRANCH   1   4
BRANCH   1   6
HETATM    6  C4  UNL     1      24.193   6.980  47.912  1.00  0.00     0.092 C 
BRANCH   6   7
HETATM    7  C5  UNL     1      24.262   5.714  48.670  1.00  0.00     0.038 C 
HETATM    8  N1  UNL     1      23.259   4.901  48.666  1.00  0.00    -0.179 NA
HETATM    9  N2  UNL     1      23.450   3.749  49.415  1.00  0.00    -0.237 N 
HETATM   10  C15 UNL     1      24.900   3.621  49.563  1.00  0.00     0.151 C 
HETATM   11  C23 UNL     1      25.301   5.079  49.519  1.00  0.00     0.088 C 
BRANCH   9  12
HETATM   12  C6  UNL     1      22.271   2.997  49.840  1.00  0.00     0.181 C 
HETATM   13  N3  UNL     1      22.474   1.699  49.488  1.00  0.00    -0.261 NA
HETATM   14  C7  UNL     1      21.421   0.607  49.524  1.00  0.00     0.190 C 
HETATM   15  C8  UNL     1      20.240   1.290  50.255  1.00  0.00    -0.038 A 
HETATM   16  C9  UNL     1      20.778   0.804  51.407  1.00  0.00     0.009 A 
HETATM   17  C13 UNL     1      19.549   2.310  49.581  1.00  0.00     0.016 A 
HETATM   18  C10 UNL     1      20.605   1.723  52.474  1.00  0.00     0.001 A 
HETATM   19  C11 UNL     1      19.948   2.927  52.135  1.00  0.00     0.008 A 
HETATM   20  C12 UNL     1      19.576   2.981  50.821  1.00  0.00    -0.048 A 
HETATM   21  C14 UNL     1      19.817   4.506  50.837  1.00  0.00     0.121 C 
HETATM   22  S1  UNL     1      21.637   4.572  50.457  1.00  0.00    -0.086 SA
ENDBRANCH   9  12
BRANCH  10  23
HETATM   23  C16 UNL     1      25.264   3.099  50.889  1.00  0.00    -0.033 A 
HETATM   24  C17 UNL     1      24.519   3.254  52.032  1.00  0.00     0.012 A 
HETATM   25  C18 UNL     1      24.918   2.735  53.242  1.00  0.00     0.037 A 
HETATM   26  C19 UNL     1      26.087   2.033  53.377  1.00  0.00     0.068 A 
HETATM   27  C21 UNL     1      26.879   1.848  52.252  1.00  0.00     0.037 A 
HETATM   28  C22 UNL     1      26.444   2.381  51.063  1.00  0.00     0.012 A 
BRANCH  26  29
HETATM   29  O1  UNL     1      26.508   1.503  54.580  1.00  0.00    -0.356 OA
HETATM   30  C20 UNL     1      26.420   0.098  54.856  1.00  0.00     0.210 C 
ENDBRANCH  26  29
ENDBRANCH  10  23
ENDBRANCH   6   7
ENDBRANCH   1   6
TORSDOF 6
ENDMDL
MODEL 8
REMARK VINA RESULT:      -7.0      7.863      9.962
REMARK  6 active torsions:
REMARK  status: ('A' for Active; 'I' for Inactive)
REMARK    1  A    between atoms: C2_2  and  C3_3 
REMARK    2  A    between atoms: C3_3  and  C4_4 
REMARK    3  A    between atoms: C4_4  and  C5_5 
REMARK    4  A    between atoms: N2_7  and  C6_8 
REMARK    5  A    between atoms: C15_19  and  C16_20 
REMARK    6  A    between atoms: C19_23  and  O1_24 
ROOT
HETATM    1  C3  UNL     1      34.299   4.636  47.121  1.00  0.00     0.148 C 
HETATM    2  O2  UNL     1      33.776   4.674  45.991  1.00  0.00    -0.387 OA
HETATM    3  C24 UNL     1      33.258   4.713  44.860  1.00  0.00     0.202 C 
ENDROOT
BRANCH   1   4
HETATM    4  C2  UNL     1      34.669   3.223  47.613  1.00  0.00    -0.005 C 
HETATM    5  C1  UNL     1      33.577   2.487  47.794  1.00  0.00     0.009 C 
ENDBRANCH   1   4
BRANCH   1   6
HETATM    6  C4  UNL     1      33.672   5.304  48.338  1.00  0.00     0.092 C 
BRANCH   6   7
HETATM    7  C5  UNL     1      32.317   5.834  48.081  1.00  0.00     0.038 C 
HETATM    8  N1  UNL     1      32.143   7.095  47.871  1.00  0.00    -0.179 NA
HETATM    9  N2  UNL     1      30.825   7.464  47.642  1.00  0.00    -0.237 N 
HETATM   10  C15 UNL     1      30.145   6.232  47.238  1.00  0.00     0.151 C 
HETATM   11  C23 UNL     1      30.971   5.214  47.992  1.00  0.00     0.088 C 
BRANCH   9  12
HETATM   12  C6  UNL     1      30.455   8.864  47.834  1.00  0.00     0.181 C 
HETATM   13  N3  UNL     1      30.159   9.025  49.153  1.00  0.00    -0.261 NA
HETATM   14  C7  UNL     1      29.506  10.252  49.761  1.00  0.00     0.190 C 
HETATM   15  C8  UNL     1      29.516  11.265  48.591  1.00  0.00    -0.038 A 
HETATM   16  C9  UNL     1      30.723  11.677  49.064  1.00  0.00     0.009 A 
HETATM   17  C13 UNL     1      28.667  11.018  47.499  1.00  0.00     0.016 A 
HETATM   18  C10 UNL     1      31.593  12.029  47.999  1.00  0.00     0.001 A 
HETATM   19  C11 UNL     1      31.056  11.868  46.703  1.00  0.00     0.008 A 
HETATM   20  C12 UNL     1      29.767  11.411  46.710  1.00  0.00    -0.048 A 
HETATM   21  C14 UNL     1      30.052  10.650  45.397  1.00  0.00     0.121 C 
HETATM   22  S1  UNL     1      30.754   9.062  46.064  1.00  0.00    -0.086 SA
ENDBRANCH   9  12
BRANCH  10  23
HETATM   23  C16 UNL     1      28.774   6.174  47.768  1.00  0.00    -0.033 A 
HETATM   24  C17 UNL     1      27.831   7.162  47.631  1.00  0.00     0.012 A 
HETATM   25  C18 UNL     1      26.562   7.040  48.150  1.00  0.00     0.037 A 
HETATM   26  C19 UNL     1      26.167   5.922  48.836  1.00  0.00     0.068 A 
HETATM   27  C21 UNL     1      27.083   4.892  49.003  1.00  0.00     0.037 A 
HETATM   28  C22 UNL     1      28.339   5.054  48.470  1.00  0.00     0.012 A 
BRANCH  26  29
HETATM   29  O1  UNL     1      24.900   5.776  49.365  1.00  0.00    -0.356 OA
HETATM   30  C20 UNL     1      24.286   6.810  50.146  1.00  0.00     0.210 C 
ENDBRANCH  26  29
ENDBRANCH  10  23
ENDBRANCH   6   7
ENDBRANCH   1   6
TORSDOF 6
ENDMDL
MODEL 9
REMARK VINA RESULT:      -6.9      2.777      6.848
REMARK  6 active torsions:
REMARK  status: ('A' for Active; 'I' for Inactive)
REMARK    1  A    between atoms: C2_2  and  C3_3 
REMARK    2  A    between atoms: C3_3  and  C4_4 
REMARK    3  A    between atoms: C4_4  and  C5_5 
REMARK    4  A    between atoms: N2_7  and  C6_8 
REMARK    5  A    between atoms: C15_19  and  C16_20 
REMARK    6  A    between atoms: C19_23  and  O1_24 
ROOT
HETATM    1  C3  UNL     1      24.761   7.416  49.965  1.00  0.00     0.148 C 
HETATM    2  O2  UNL     1      23.639   7.941  49.831  1.00  0.00    -0.387 OA
HETATM    3  C24 UNL     1      22.517   8.464  49.701  1.00  0.00     0.202 C 
ENDROOT
BRANCH   1   4
HETATM    4  C2  UNL     1      25.918   8.413  50.169  1.00  0.00    -0.005 C 
HETATM    5  C1  UNL     1      25.806   9.442  49.334  1.00  0.00     0.009 C 
ENDBRANCH   1   4
BRANCH   1   6
HETATM    6  C4  UNL     1      25.314   6.396  48.978  1.00  0.00     0.092 C 
BRANCH   6   7
HETATM    7  C5  UNL     1      25.365   5.024  49.523  1.00  0.00     0.038 C 
HETATM    8  N1  UNL     1      24.280   4.339  49.658  1.00  0.00    -0.179 NA
HETATM    9  N2  UNL     1      24.463   3.067  50.179  1.00  0.00    -0.237 N 
HETATM   10  C15 UNL     1      25.875   2.756  49.950  1.00  0.00     0.151 C 
HETATM   11  C23 UNL     1      26.464   4.149  50.001  1.00  0.00     0.088 C 
BRANCH   9  12
HETATM   12  C6  UNL     1      23.314   2.391  50.777  1.00  0.00     0.181 C 
HETATM   13  N3  UNL     1      23.569   2.264  52.108  1.00  0.00    -0.261 NA
HETATM   14  C7  UNL     1      22.761   1.423  53.078  1.00  0.00     0.190 C 
HETATM   15  C8  UNL     1      21.532   1.006  52.234  1.00  0.00    -0.038 A 
HETATM   16  C9  UNL     1      20.927   2.128  52.708  1.00  0.00     0.009 A 
HETATM   17  C13 UNL     1      21.733   0.093  51.185  1.00  0.00     0.016 A 
HETATM   18  C10 UNL     1      20.097   2.714  51.717  1.00  0.00     0.001 A 
HETATM   19  C11 UNL     1      20.080   2.048  50.472  1.00  0.00     0.008 A 
HETATM   20  C12 UNL     1      20.868   0.930  50.453  1.00  0.00    -0.048 A 
HETATM   21  C14 UNL     1      21.174   1.197  48.963  1.00  0.00     0.121 C 
HETATM   22  S1  UNL     1      22.615   2.365  49.111  1.00  0.00    -0.086 SA
ENDBRANCH   9  12
BRANCH  10  23
HETATM   23  C16 UNL     1      26.448   1.989  51.066  1.00  0.00    -0.033 A 
HETATM   24  C17 UNL     1      26.371   0.626  51.210  1.00  0.00     0.012 A 
HETATM   25  C18 UNL     1      26.934  -0.030  52.282  1.00  0.00     0.037 A 
HETATM   26  C19 UNL     1      27.603   0.643  53.270  1.00  0.00     0.068 A 
HETATM   27  C21 UNL     1      27.709   2.024  53.173  1.00  0.00     0.037 A 
HETATM   28  C22 UNL     1      27.134   2.639  52.088  1.00  0.00     0.012 A 
BRANCH  26  29
HETATM   29  O1  UNL     1      28.176   0.007  54.353  1.00  0.00    -0.356 OA
HETATM   30  C20 UNL     1      29.374  -0.771  54.223  1.00  0.00     0.210 C 
ENDBRANCH  26  29
ENDBRANCH  10  23
ENDBRANCH   6   7
ENDBRANCH   1   6
TORSDOF 6
ENDMDL
