MODEL 1
REMARK VINA RESULT:      -8.0      0.000      0.000
REMARK  10 active torsions:
REMARK  status: ('A' for Active; 'I' for Inactive)
REMARK    1  A    between atoms: C2_2  and  N1_3 
REMARK    2  A    between atoms: C4_6  and  C5_7 
REMARK    3  A    between atoms: C5_7  and  N3_8 
REMARK    4  A    between atoms: C5_7  and  N4_9 
REMARK    5  A    between atoms: N4_9  and  C6_10 
REMARK    6  A    between atoms: C12_17  and  N5_18 
REMARK    7  A    between atoms: N5_18  and  C13_19 
REMARK    8  A    between atoms: C13_19  and  N6_20 
REMARK    9  A    between atoms: N6_20  and  C14_21 
REMARK   10  A    between atoms: C18_25  and  N7_26 
ROOT
HETATM    1  N1  UNL     1      22.090   0.109  53.620  1.00  0.00    -0.325 N 
HETATM    2  C3  UNL     1      21.363   1.214  53.105  1.00  0.00     0.212 A 
HETATM    3  N2  UNL     1      22.144   2.066  52.516  1.00  0.00    -0.236 NA
HETATM    4  C4  UNL     1      23.482   1.601  52.586  1.00  0.00     0.147 A 
HETATM    5  C12 UNL     1      23.464   0.339  53.295  1.00  0.00     0.160 A 
ENDROOT
BRANCH   4   6
HETATM    6  C5  UNL     1      24.462   2.280  52.063  1.00  0.00     0.132 C 
BRANCH   6   7
HETATM    7  N3  UNL     1      25.125   3.217  52.869  1.00  0.00    -0.383 N 
HETATM    8  H7  UNL     1      24.848   4.191  53.104  1.00  0.00     0.157 HD
HETATM    9  H8  UNL     1      26.044   3.043  53.370  1.00  0.00     0.157 HD
ENDBRANCH   6   7
BRANCH   6  10
HETATM   10  N4  UNL     1      25.203   2.468  50.883  1.00  0.00    -0.341 N 
HETATM   11  H9  UNL     1      25.828   1.874  50.260  1.00  0.00     0.167 HD
BRANCH  10  12
HETATM   12  C6  UNL     1      25.312   3.682  50.123  1.00  0.00     0.035 A 
HETATM   13  C7  UNL     1      24.366   4.628  49.795  1.00  0.00     0.029 A 
HETATM   14  C8  UNL     1      24.698   5.721  49.043  1.00  0.00     0.004 A 
HETATM   15  C9  UNL     1      26.009   5.888  48.600  1.00  0.00     0.024 A 
HETATM   16  C10 UNL     1      26.984   4.970  48.904  1.00  0.00     0.036 A 
HETATM   17 CL1  UNL     1      28.594   5.250  48.311  1.00  0.00    -0.084 Cl
HETATM   18  C11 UNL     1      26.615   3.873  49.667  1.00  0.00     0.053 A 
ENDBRANCH  10  12
ENDBRANCH   6  10
ENDBRANCH   4   6
BRANCH   5  19
HETATM   19  N5  UNL     1      24.349  -0.475  53.623  1.00  0.00    -0.240 NA
BRANCH  19  20
HETATM   20  C13 UNL     1      25.520  -0.341  54.431  1.00  0.00     0.420 C 
BRANCH  20  21
HETATM   21  N6  UNL     1      26.501  -1.272  53.981  1.00  0.00     0.107 N 
HETATM   22  H16 UNL     1      26.093  -2.183  53.656  1.00  0.00     0.318 HD
BRANCH  21  23
HETATM   23  C14 UNL     1      27.401  -0.816  52.955  1.00  0.00     0.224 C 
HETATM   24  C15 UNL     1      28.606  -1.670  52.921  1.00  0.00     0.036 C 
HETATM   25  C16 UNL     1      29.658  -1.230  53.933  1.00  0.00     0.004 C 
HETATM   26  C17 UNL     1      30.122   0.109  53.400  1.00  0.00     0.035 C 
HETATM   27  C18 UNL     1      29.004   1.078  53.536  1.00  0.00     0.220 C 
HETATM   28  C19 UNL     1      27.649   0.639  53.176  1.00  0.00     0.070 C 
BRANCH  27  29
HETATM   29  N7  UNL     1      29.047   1.537  54.935  1.00  0.00     0.083 N 
HETATM   30  H25 UNL     1      28.414   0.978  55.539  1.00  0.00     0.313 HD
HETATM   31  H26 UNL     1      30.051   1.445  55.211  1.00  0.00     0.313 HD
ENDBRANCH  27  29
ENDBRANCH  21  23
ENDBRANCH  20  21
ENDBRANCH  19  20
ENDBRANCH   5  19
BRANCH   1  32
HETATM   32  C2  UNL     1      21.508  -1.017  54.334  1.00  0.00     0.127 C 
HETATM   33  C1  UNL     1      20.112  -1.290  53.815  1.00  0.00     0.027 C 
ENDBRANCH   1  32
TORSDOF 10
ENDMDL
MODEL 2
REMARK VINA RESULT:      -7.9      1.720      5.705
REMARK  10 active torsions:
REMARK  status: ('A' for Active; 'I' for Inactive)
REMARK    1  A    between atoms: C2_2  and  N1_3 
REMARK    2  A    between atoms: C4_6  and  C5_7 
REMARK    3  A    between atoms: C5_7  and  N3_8 
REMARK    4  A    between atoms: C5_7  and  N4_9 
REMARK    5  A    between atoms: N4_9  and  C6_10 
REMARK    6  A    between atoms: C12_17  and  N5_18 
REMARK    7  A    between atoms: N5_18  and  C13_19 
REMARK    8  A    between atoms: C13_19  and  N6_20 
REMARK    9  A    between atoms: N6_20  and  C14_21 
REMARK   10  A    between atoms: C18_25  and  N7_26 
ROOT
HETATM    1  N1  UNL     1      21.723   0.848  53.132  1.00  0.00    -0.325 N 
HETATM    2  C3  UNL     1      21.426  -0.363  53.811  1.00  0.00     0.212 A 
HETATM    3  N2  UNL     1      22.499  -1.054  54.042  1.00  0.00    -0.236 NA
HETATM    4  C4  UNL     1      23.624  -0.359  53.532  1.00  0.00     0.147 A 
HETATM    5  C12 UNL     1      23.140   0.871  52.941  1.00  0.00     0.160 A 
ENDROOT
BRANCH   4   6
HETATM    6  C5  UNL     1      24.827  -0.845  53.641  1.00  0.00     0.132 C 
BRANCH   6   7
HETATM    7  N3  UNL     1      25.337  -1.071  54.928  1.00  0.00    -0.383 N 
HETATM    8  H7  UNL     1      24.982  -1.706  55.671  1.00  0.00     0.157 HD
HETATM    9  H8  UNL     1      26.197  -0.598  55.332  1.00  0.00     0.157 HD
ENDBRANCH   6   7
BRANCH   6  10
HETATM   10  N4  UNL     1      25.940  -1.283  52.903  1.00  0.00    -0.341 N 
HETATM   11  H9  UNL     1      26.111  -1.917  52.066  1.00  0.00     0.167 HD
BRANCH  10  12
HETATM   12  C6  UNL     1      27.314  -0.932  53.132  1.00  0.00     0.035 A 
HETATM   13  C7  UNL     1      28.437  -1.722  53.252  1.00  0.00     0.029 A 
HETATM   14  C8  UNL     1      29.665  -1.164  53.478  1.00  0.00     0.004 A 
HETATM   15  C9  UNL     1      29.791   0.220  53.590  1.00  0.00     0.024 A 
HETATM   16  C10 UNL     1      28.698   1.043  53.478  1.00  0.00     0.036 A 
HETATM   17 CL1  UNL     1      28.939   2.759  53.631  1.00  0.00    -0.084 Cl
HETATM   18  C11 UNL     1      27.467   0.447  53.249  1.00  0.00     0.053 A 
ENDBRANCH  10  12
ENDBRANCH   6  10
ENDBRANCH   4   6
BRANCH   5  19
HETATM   19  N5  UNL     1      23.697   1.827  52.367  1.00  0.00    -0.240 NA
BRANCH  19  20
HETATM   20  C13 UNL     1      24.321   3.011  52.870  1.00  0.00     0.420 C 
BRANCH  20  21
HETATM   21  N6  UNL     1      25.271   3.474  51.914  1.00  0.00     0.107 N 
HETATM   22  H16 UNL     1      26.056   2.797  51.745  1.00  0.00     0.318 HD
BRANCH  21  23
HETATM   23  C14 UNL     1      24.757   3.862  50.628  1.00  0.00     0.224 C 
HETATM   24  C15 UNL     1      25.700   3.464  49.564  1.00  0.00     0.036 C 
HETATM   25  C16 UNL     1      26.803   4.495  49.348  1.00  0.00     0.004 C 
HETATM   26  C17 UNL     1      26.064   5.688  48.780  1.00  0.00     0.035 C 
HETATM   27  C18 UNL     1      25.194   6.248  49.845  1.00  0.00     0.220 C 
HETATM   28  C19 UNL     1      24.429   5.317  50.687  1.00  0.00     0.070 C 
BRANCH  27  29
HETATM   29  N7  UNL     1      26.073   7.093  50.672  1.00  0.00     0.083 N 
HETATM   30  H25 UNL     1      25.813   7.045  51.676  1.00  0.00     0.313 HD
HETATM   31  H26 UNL     1      27.035   6.728  50.489  1.00  0.00     0.313 HD
ENDBRANCH  27  29
ENDBRANCH  21  23
ENDBRANCH  20  21
ENDBRANCH  19  20
ENDBRANCH   5  19
BRANCH   1  32
HETATM   32  C2  UNL     1      20.741   1.843  52.729  1.00  0.00     0.127 C 
HETATM   33  C1  UNL     1      20.186   1.497  51.363  1.00  0.00     0.027 C 
ENDBRANCH   1  32
TORSDOF 10
ENDMDL
MODEL 3
REMARK VINA RESULT:      -7.9      1.710      2.314
REMARK  10 active torsions:
REMARK  status: ('A' for Active; 'I' for Inactive)
REMARK    1  A    between atoms: C2_2  and  N1_3 
REMARK    2  A    between atoms: C4_6  and  C5_7 
REMARK    3  A    between atoms: C5_7  and  N3_8 
REMARK    4  A    between atoms: C5_7  and  N4_9 
REMARK    5  A    between atoms: N4_9  and  C6_10 
REMARK    6  A    between atoms: C12_17  and  N5_18 
REMARK    7  A    between atoms: N5_18  and  C13_19 
REMARK    8  A    between atoms: C13_19  and  N6_20 
REMARK    9  A    between atoms: N6_20  and  C14_21 
REMARK   10  A    between atoms: C18_25  and  N7_26 
ROOT
HETATM    1  N1  UNL     1      21.258   1.848  52.047  1.00  0.00    -0.325 N 
HETATM    2  C3  UNL     1      20.403   2.980  52.060  1.00  0.00     0.212 A 
HETATM    3  N2  UNL     1      21.079   4.088  52.063  1.00  0.00    -0.236 NA
HETATM    4  C4  UNL     1      22.465   3.791  52.053  1.00  0.00     0.147 A 
HETATM    5  C12 UNL     1      22.597   2.349  52.042  1.00  0.00     0.160 A 
ENDROOT
BRANCH   4   6
HETATM    6  C5  UNL     1      23.360   4.737  52.050  1.00  0.00     0.132 C 
BRANCH   6   7
HETATM    7  N3  UNL     1      23.864   5.176  53.283  1.00  0.00    -0.383 N 
HETATM    8  H7  UNL     1      24.758   4.926  53.752  1.00  0.00     0.157 HD
HETATM    9  H8  UNL     1      23.373   5.858  53.932  1.00  0.00     0.157 HD
ENDBRANCH   6   7
BRANCH   6  10
HETATM   10  N4  UNL     1      24.104   5.586  51.214  1.00  0.00    -0.341 N 
HETATM   11  H9  UNL     1      24.101   6.620  50.962  1.00  0.00     0.167 HD
BRANCH  10  12
HETATM   12  C6  UNL     1      25.207   5.212  50.373  1.00  0.00     0.035 A 
HETATM   13  C7  UNL     1      25.774   3.980  50.127  1.00  0.00     0.029 A 
HETATM   14  C8  UNL     1      26.840   3.856  49.280  1.00  0.00     0.004 A 
HETATM   15  C9  UNL     1      27.367   4.985  48.654  1.00  0.00     0.024 A 
HETATM   16  C10 UNL     1      26.832   6.231  48.872  1.00  0.00     0.036 A 
HETATM   17 CL1  UNL     1      27.548   7.590  48.055  1.00  0.00    -0.084 Cl
HETATM   18  C11 UNL     1      25.752   6.323  49.736  1.00  0.00     0.053 A 
ENDBRANCH  10  12
ENDBRANCH   6  10
ENDBRANCH   4   6
BRANCH   5  19
HETATM   19  N5  UNL     1      23.575   1.576  52.028  1.00  0.00    -0.240 NA
BRANCH  19  20
HETATM   20  C13 UNL     1      24.421   1.085  53.071  1.00  0.00     0.420 C 
BRANCH  20  21
HETATM   21  N6  UNL     1      25.615   1.862  53.101  1.00  0.00     0.107 N 
HETATM   22  H16 UNL     1      25.949   2.075  54.073  1.00  0.00     0.318 HD
BRANCH  21  23
HETATM   23  C14 UNL     1      26.738   1.349  52.365  1.00  0.00     0.224 C 
HETATM   24  C15 UNL     1      26.739  -0.128  52.404  1.00  0.00     0.036 C 
HETATM   25  C16 UNL     1      27.410  -0.675  53.660  1.00  0.00     0.004 C 
HETATM   26  C17 UNL     1      28.864  -0.296  53.477  1.00  0.00     0.035 C 
HETATM   27  C18 UNL     1      28.976   1.182  53.573  1.00  0.00     0.220 C 
HETATM   28  C19 UNL     1      27.970   2.007  52.890  1.00  0.00     0.070 C 
BRANCH  27  29
HETATM   29  N7  UNL     1      29.002   1.483  55.015  1.00  0.00     0.083 N 
HETATM   30  H25 UNL     1      29.337   2.450  55.196  1.00  0.00     0.313 HD
HETATM   31  H26 UNL     1      28.018   1.333  55.333  1.00  0.00     0.313 HD
ENDBRANCH  27  29
ENDBRANCH  21  23
ENDBRANCH  20  21
ENDBRANCH  19  20
ENDBRANCH   5  19
BRANCH   1  32
HETATM   32  C2  UNL     1      20.812   0.463  52.041  1.00  0.00     0.127 C 
HETATM   33  C1  UNL     1      19.349   0.394  51.660  1.00  0.00     0.027 C 
ENDBRANCH   1  32
TORSDOF 10
ENDMDL
MODEL 4
REMARK VINA RESULT:      -7.9      2.703      5.766
REMARK  10 active torsions:
REMARK  status: ('A' for Active; 'I' for Inactive)
REMARK    1  A    between atoms: C2_2  and  N1_3 
REMARK    2  A    between atoms: C4_6  and  C5_7 
REMARK    3  A    between atoms: C5_7  and  N3_8 
REMARK    4  A    between atoms: C5_7  and  N4_9 
REMARK    5  A    between atoms: N4_9  and  C6_10 
REMARK    6  A    between atoms: C12_17  and  N5_18 
REMARK    7  A    between atoms: N5_18  and  C13_19 
REMARK    8  A    between atoms: C13_19  and  N6_20 
REMARK    9  A    between atoms: N6_20  and  C14_21 
REMARK   10  A    between atoms: C18_25  and  N7_26 
ROOT
HETATM    1  N1  UNL     1      26.129   4.914  49.637  1.00  0.00    -0.325 N 
HETATM    2  C3  UNL     1      25.678   6.255  49.752  1.00  0.00     0.212 A 
HETATM    3  N2  UNL     1      24.602   6.336  50.474  1.00  0.00    -0.236 NA
HETATM    4  C4  UNL     1      24.233   5.039  50.911  1.00  0.00     0.147 A 
HETATM    5  C12 UNL     1      25.209   4.110  50.380  1.00  0.00     0.160 A 
ENDROOT
BRANCH   4   6
HETATM    6  C5  UNL     1      23.183   4.850  51.658  1.00  0.00     0.132 C 
BRANCH   6   7
HETATM    7  N3  UNL     1      22.273   5.907  51.802  1.00  0.00    -0.383 N 
HETATM    8  H7  UNL     1      21.358   6.053  51.331  1.00  0.00     0.157 HD
HETATM    9  H8  UNL     1      22.408   6.740  52.446  1.00  0.00     0.157 HD
ENDBRANCH   6   7
BRANCH   6  10
HETATM   10  N4  UNL     1      22.525   3.905  52.463  1.00  0.00    -0.341 N 
HETATM   11  H9  UNL     1      22.148   3.867  53.458  1.00  0.00     0.167 HD
BRANCH  10  12
HETATM   12  C6  UNL     1      22.148   2.571  52.088  1.00  0.00     0.035 A 
HETATM   13  C7  UNL     1      21.457   2.106  50.990  1.00  0.00     0.029 A 
HETATM   14  C8  UNL     1      21.200   0.771  50.837  1.00  0.00     0.004 A 
HETATM   15  C9  UNL     1      21.639  -0.136  51.800  1.00  0.00     0.024 A 
HETATM   16  C10 UNL     1      22.331   0.285  52.909  1.00  0.00     0.036 A 
HETATM   17 CL1  UNL     1      22.843  -0.910  54.064  1.00  0.00    -0.084 Cl
HETATM   18  C11 UNL     1      22.575   1.643  53.035  1.00  0.00     0.053 A 
ENDBRANCH  10  12
ENDBRANCH   6  10
ENDBRANCH   4   6
BRANCH   5  19
HETATM   19  N5  UNL     1      25.353   2.875  50.463  1.00  0.00    -0.240 NA
BRANCH  19  20
HETATM   20  C13 UNL     1      25.775   2.032  51.538  1.00  0.00     0.420 C 
BRANCH  20  21
HETATM   21  N6  UNL     1      27.036   2.490  52.016  1.00  0.00     0.107 N 
HETATM   22  H16 UNL     1      27.264   3.471  51.719  1.00  0.00     0.318 HD
BRANCH  21  23
HETATM   23  C14 UNL     1      27.257   2.411  53.435  1.00  0.00     0.224 C 
HETATM   24  C15 UNL     1      28.695   2.233  53.716  1.00  0.00     0.036 C 
HETATM   25  C16 UNL     1      29.125   0.772  53.646  1.00  0.00     0.004 C 
HETATM   26  C17 UNL     1      28.423   0.140  54.829  1.00  0.00     0.035 C 
HETATM   27  C18 UNL     1      26.962   0.143  54.559  1.00  0.00     0.220 C 
HETATM   28  C19 UNL     1      26.359   1.351  53.979  1.00  0.00     0.070 C 
BRANCH  27  29
HETATM   29  N7  UNL     1      26.717  -1.025  53.696  1.00  0.00     0.083 N 
HETATM   30  H25 UNL     1      25.819  -1.491  53.930  1.00  0.00     0.313 HD
HETATM   31  H26 UNL     1      26.729  -0.641  52.724  1.00  0.00     0.313 HD
ENDBRANCH  27  29
ENDBRANCH  21  23
ENDBRANCH  20  21
ENDBRANCH  19  20
ENDBRANCH   5  19
BRANCH   1  32
HETATM   32  C2  UNL     1      27.307   4.488  48.896  1.00  0.00     0.127 C 
HETATM   33  C1  UNL     1      28.050   5.697  48.370  1.00  0.00     0.027 C 
ENDBRANCH   1  32
TORSDOF 10
ENDMDL
MODEL 5
REMARK VINA RESULT:      -7.7      1.289      5.403
REMARK  10 active torsions:
REMARK  status: ('A' for Active; 'I' for Inactive)
REMARK    1  A    between atoms: C2_2  and  N1_3 
REMARK    2  A    between atoms: C4_6  and  C5_7 
REMARK    3  A    between atoms: C5_7  and  N3_8 
REMARK    4  A    between atoms: C5_7  and  N4_9 
REMARK    5  A    between atoms: N4_9  and  C6_10 
REMARK    6  A    between atoms: C12_17  and  N5_18 
REMARK    7  A    between atoms: N5_18  and  C13_19 
REMARK    8  A    between atoms: C13_19  and  N6_20 
REMARK    9  A    between atoms: N6_20  and  C14_21 
REMARK   10  A    between atoms: C18_25  and  N7_26 
ROOT
HETATM    1  N1  UNL     1      28.044   0.435  53.397  1.00  0.00    -0.325 N 
HETATM    2  C3  UNL     1      28.734   1.656  53.179  1.00  0.00     0.212 A 
HETATM    3  N2  UNL     1      28.002   2.508  52.530  1.00  0.00    -0.236 NA
HETATM    4  C4  UNL     1      26.740   1.925  52.252  1.00  0.00     0.147 A 
HETATM    5  C12 UNL     1      26.751   0.587  52.805  1.00  0.00     0.160 A 
ENDROOT
BRANCH   4   6
HETATM    6  C5  UNL     1      25.818   2.582  51.609  1.00  0.00     0.132 C 
BRANCH   6   7
HETATM    7  N3  UNL     1      24.786   3.175  52.350  1.00  0.00    -0.383 N 
HETATM    8  H7  UNL     1      24.375   4.126  52.257  1.00  0.00     0.157 HD
HETATM    9  H8  UNL     1      24.262   2.705  53.144  1.00  0.00     0.157 HD
ENDBRANCH   6   7
BRANCH   6  10
HETATM   10  N4  UNL     1      25.400   2.979  50.327  1.00  0.00    -0.341 N 
HETATM   11  H9  UNL     1      24.797   2.572  49.551  1.00  0.00     0.167 HD
BRANCH  10  12
HETATM   12  C6  UNL     1      25.733   4.205  49.657  1.00  0.00     0.035 A 
HETATM   13  C7  UNL     1      24.961   5.307  49.360  1.00  0.00     0.029 A 
HETATM   14  C8  UNL     1      25.493   6.379  48.698  1.00  0.00     0.004 A 
HETATM   15  C9  UNL     1      26.834   6.365  48.316  1.00  0.00     0.024 A 
HETATM   16  C10 UNL     1      27.639   5.287  48.593  1.00  0.00     0.036 A 
HETATM   17 CL1  UNL     1      29.300   5.346  48.082  1.00  0.00    -0.084 Cl
HETATM   18  C11 UNL     1      27.069   4.217  49.264  1.00  0.00     0.053 A 
ENDBRANCH  10  12
ENDBRANCH   6  10
ENDBRANCH   4   6
BRANCH   5  19
HETATM   19  N5  UNL     1      25.912  -0.334  52.843  1.00  0.00    -0.240 NA
BRANCH  19  20
HETATM   20  C13 UNL     1      24.787  -0.568  53.693  1.00  0.00     0.420 C 
BRANCH  20  21
HETATM   21  N6  UNL     1      23.601  -0.179  53.006  1.00  0.00     0.107 N 
HETATM   22  H16 UNL     1      23.169  -0.955  52.447  1.00  0.00     0.318 HD
BRANCH  21  23
HETATM   23  C14 UNL     1      22.555   0.407  53.802  1.00  0.00     0.224 C 
HETATM   24  C15 UNL     1      21.887  -0.634  54.608  1.00  0.00     0.036 C 
HETATM   25  C16 UNL     1      20.788  -1.353  53.832  1.00  0.00     0.004 C 
HETATM   26  C17 UNL     1      19.735  -0.282  53.639  1.00  0.00     0.035 C 
HETATM   27  C18 UNL     1      20.277   0.743  52.711  1.00  0.00     0.220 C 
HETATM   28  C19 UNL     1      21.667   1.185  52.891  1.00  0.00     0.070 C 
BRANCH  27  29
HETATM   29  N7  UNL     1      20.076   0.198  51.358  1.00  0.00     0.083 N 
HETATM   30  H25 UNL     1      20.392   0.866  50.627  1.00  0.00     0.313 HD
HETATM   31  H26 UNL     1      20.621  -0.693  51.350  1.00  0.00     0.313 HD
ENDBRANCH  27  29
ENDBRANCH  21  23
ENDBRANCH  20  21
ENDBRANCH  19  20
ENDBRANCH   5  19
BRANCH   1  32
HETATM   32  C2  UNL     1      28.587  -0.721  54.094  1.00  0.00     0.127 C 
HETATM   33  C1  UNL     1      30.010  -0.974  53.642  1.00  0.00     0.027 C 
ENDBRANCH   1  32
TORSDOF 10
ENDMDL
MODEL 6
REMARK VINA RESULT:      -7.7      2.334      5.902
REMARK  10 active torsions:
REMARK  status: ('A' for Active; 'I' for Inactive)
REMARK    1  A    between atoms: C2_2  and  N1_3 
REMARK    2  A    between atoms: C4_6  and  C5_7 
REMARK    3  A    between atoms: C5_7  and  N3_8 
REMARK    4  A    between atoms: C5_7  and  N4_9 
REMARK    5  A    between atoms: N4_9  and  C6_10 
REMARK    6  A    between atoms: C12_17  and  N5_18 
REMARK    7  A    between atoms: N5_18  and  C13_19 
REMARK    8  A    between atoms: C13_19  and  N6_20 
REMARK    9  A    between atoms: N6_20  and  C14_21 
REMARK   10  A    between atoms: C18_25  and  N7_26 
ROOT
HETATM    1  N1  UNL     1      21.556   0.766  52.591  1.00  0.00    -0.325 N 
HETATM    2  C3  UNL     1      22.391  -0.336  52.910  1.00  0.00     0.212 A 
HETATM    3  N2  UNL     1      23.636   0.020  53.002  1.00  0.00    -0.236 NA
HETATM    4  C4  UNL     1      23.745   1.410  52.748  1.00  0.00     0.147 A 
HETATM    5  C12 UNL     1      22.412   1.907  52.481  1.00  0.00     0.160 A 
ENDROOT
BRANCH   4   6
HETATM    6  C5  UNL     1      24.898   2.015  52.783  1.00  0.00     0.132 C 
BRANCH   6   7
HETATM    7  N3  UNL     1      25.015   3.174  53.564  1.00  0.00    -0.383 N 
HETATM    8  H7  UNL     1      24.978   4.170  53.268  1.00  0.00     0.157 HD
HETATM    9  H8  UNL     1      25.165   3.185  54.615  1.00  0.00     0.157 HD
ENDBRANCH   6   7
BRANCH   6  10
HETATM   10  N4  UNL     1      26.215   1.964  52.297  1.00  0.00    -0.341 N 
HETATM   11  H9  UNL     1      26.746   2.350  51.459  1.00  0.00     0.167 HD
BRANCH  10  12
HETATM   12  C6  UNL     1      27.326   1.281  52.899  1.00  0.00     0.035 A 
HETATM   13  C7  UNL     1      28.392   1.762  53.627  1.00  0.00     0.029 A 
HETATM   14  C8  UNL     1      29.353   0.915  54.107  1.00  0.00     0.004 A 
HETATM   15  C9  UNL     1      29.260  -0.454  53.860  1.00  0.00     0.024 A 
HETATM   16  C10 UNL     1      28.214  -0.976  53.139  1.00  0.00     0.036 A 
HETATM   17 CL1  UNL     1      28.172  -2.694  52.874  1.00  0.00    -0.084 Cl
HETATM   18  C11 UNL     1      27.257  -0.091  52.667  1.00  0.00     0.053 A 
ENDBRANCH  10  12
ENDBRANCH   6  10
ENDBRANCH   4   6
BRANCH   5  19
HETATM   19  N5  UNL     1      21.953   3.033  52.208  1.00  0.00    -0.240 NA
BRANCH  19  20
HETATM   20  C13 UNL     1      21.926   3.785  50.992  1.00  0.00     0.420 C 
BRANCH  20  21
HETATM   21  N6  UNL     1      23.089   4.607  50.933  1.00  0.00     0.107 N 
HETATM   22  H16 UNL     1      23.892   4.236  51.497  1.00  0.00     0.318 HD
BRANCH  21  23
HETATM   23  C14 UNL     1      23.594   4.917  49.622  1.00  0.00     0.224 C 
HETATM   24  C15 UNL     1      24.640   3.948  49.239  1.00  0.00     0.036 C 
HETATM   25  C16 UNL     1      26.015   4.333  49.777  1.00  0.00     0.004 C 
HETATM   26  C17 UNL     1      26.356   5.590  49.004  1.00  0.00     0.035 C 
HETATM   27  C18 UNL     1      25.435   6.670  49.442  1.00  0.00     0.220 C 
HETATM   28  C19 UNL     1      24.012   6.350  49.619  1.00  0.00     0.070 C 
BRANCH  27  29
HETATM   29  N7  UNL     1      26.009   7.195  50.693  1.00  0.00     0.083 N 
HETATM   30  H25 UNL     1      26.537   8.075  50.530  1.00  0.00     0.313 HD
HETATM   31  H26 UNL     1      25.186   7.333  51.322  1.00  0.00     0.313 HD
ENDBRANCH  27  29
ENDBRANCH  21  23
ENDBRANCH  20  21
ENDBRANCH  19  20
ENDBRANCH   5  19
BRANCH   1  32
HETATM   32  C2  UNL     1      20.113   0.700  52.418  1.00  0.00     0.127 C 
HETATM   33  C1  UNL     1      19.542  -0.417  53.265  1.00  0.00     0.027 C 
ENDBRANCH   1  32
TORSDOF 10
ENDMDL
MODEL 7
REMARK VINA RESULT:      -7.6      2.379      6.382
REMARK  10 active torsions:
REMARK  status: ('A' for Active; 'I' for Inactive)
REMARK    1  A    between atoms: C2_2  and  N1_3 
REMARK    2  A    between atoms: C4_6  and  C5_7 
REMARK    3  A    between atoms: C5_7  and  N3_8 
REMARK    4  A    between atoms: C5_7  and  N4_9 
REMARK    5  A    between atoms: N4_9  and  C6_10 
REMARK    6  A    between atoms: C12_17  and  N5_18 
REMARK    7  A    between atoms: N5_18  and  C13_19 
REMARK    8  A    between atoms: C13_19  and  N6_20 
REMARK    9  A    between atoms: N6_20  and  C14_21 
REMARK   10  A    between atoms: C18_25  and  N7_26 
ROOT
HETATM    1  N1  UNL     1      26.711   0.968  53.243  1.00  0.00    -0.325 N 
HETATM    2  C3  UNL     1      26.962  -0.098  54.145  1.00  0.00     0.212 A 
HETATM    3  N2  UNL     1      25.871  -0.733  54.448  1.00  0.00    -0.236 NA
HETATM    4  C4  UNL     1      24.779  -0.139  53.766  1.00  0.00     0.147 A 
HETATM    5  C12 UNL     1      25.305   0.960  52.984  1.00  0.00     0.160 A 
ENDROOT
BRANCH   4   6
HETATM    6  C5  UNL     1      23.568  -0.597  53.900  1.00  0.00     0.132 C 
BRANCH   6   7
HETATM    7  N3  UNL     1      23.210  -1.176  55.127  1.00  0.00    -0.383 N 
HETATM    8  H7  UNL     1      23.243  -0.763  56.080  1.00  0.00     0.157 HD
HETATM    9  H8  UNL     1      22.839  -2.163  55.247  1.00  0.00     0.157 HD
ENDBRANCH   6   7
BRANCH   6  10
HETATM   10  N4  UNL     1      22.341  -0.760  53.234  1.00  0.00    -0.341 N 
HETATM   11  H9  UNL     1      21.685  -1.567  53.010  1.00  0.00     0.167 HD
BRANCH  10  12
HETATM   12  C6  UNL     1      21.563   0.270  52.604  1.00  0.00     0.035 A 
HETATM   13  C7  UNL     1      20.703   1.204  53.139  1.00  0.00     0.029 A 
HETATM   14  C8  UNL     1      20.053   2.100  52.336  1.00  0.00     0.004 A 
HETATM   15  C9  UNL     1      20.259   2.075  50.957  1.00  0.00     0.024 A 
HETATM   16  C10 UNL     1      21.107   1.161  50.382  1.00  0.00     0.036 A 
HETATM   17 CL1  UNL     1      21.307   1.194  48.655  1.00  0.00    -0.084 Cl
HETATM   18  C11 UNL     1      21.750   0.266  51.223  1.00  0.00     0.053 A 
ENDBRANCH  10  12
ENDBRANCH   6  10
ENDBRANCH   4   6
BRANCH   5  19
HETATM   19  N5  UNL     1      24.786   1.793  52.215  1.00  0.00    -0.240 NA
BRANCH  19  20
HETATM   20  C13 UNL     1      24.031   2.981  52.461  1.00  0.00     0.420 C 
BRANCH  20  21
HETATM   21  N6  UNL     1      24.735   4.096  51.919  1.00  0.00     0.107 N 
HETATM   22  H16 UNL     1      25.761   3.917  51.788  1.00  0.00     0.318 HD
BRANCH  21  23
HETATM   23  C14 UNL     1      24.234   4.637  50.684  1.00  0.00     0.224 C 
HETATM   24  C15 UNL     1      24.989   4.083  49.543  1.00  0.00     0.036 C 
HETATM   25  C16 UNL     1      26.277   4.853  49.269  1.00  0.00     0.004 C 
HETATM   26  C17 UNL     1      25.785   6.201  48.785  1.00  0.00     0.035 C 
HETATM   27  C18 UNL     1      25.135   6.897  49.925  1.00  0.00     0.220 C 
HETATM   28  C19 UNL     1      24.242   6.125  50.800  1.00  0.00     0.070 C 
BRANCH  27  29
HETATM   29  N7  UNL     1      26.235   7.494  50.702  1.00  0.00     0.083 N 
HETATM   30  H25 UNL     1      25.886   7.942  51.572  1.00  0.00     0.313 HD
HETATM   31  H26 UNL     1      26.885   6.699  50.892  1.00  0.00     0.313 HD
ENDBRANCH  27  29
ENDBRANCH  21  23
ENDBRANCH  20  21
ENDBRANCH  19  20
ENDBRANCH   5  19
BRANCH   1  32
HETATM   32  C2  UNL     1      27.722   1.870  52.711  1.00  0.00     0.127 C 
HETATM   33  C1  UNL     1      28.620   2.354  53.829  1.00  0.00     0.027 C 
ENDBRANCH   1  32
TORSDOF 10
ENDMDL
MODEL 8
REMARK VINA RESULT:      -7.6      2.739      5.795
REMARK  10 active torsions:
REMARK  status: ('A' for Active; 'I' for Inactive)
REMARK    1  A    between atoms: C2_2  and  N1_3 
REMARK    2  A    between atoms: C4_6  and  C5_7 
REMARK    3  A    between atoms: C5_7  and  N3_8 
REMARK    4  A    between atoms: C5_7  and  N4_9 
REMARK    5  A    between atoms: N4_9  and  C6_10 
REMARK    6  A    between atoms: C12_17  and  N5_18 
REMARK    7  A    between atoms: N5_18  and  C13_19 
REMARK    8  A    between atoms: C13_19  and  N6_20 
REMARK    9  A    between atoms: N6_20  and  C14_21 
REMARK   10  A    between atoms: C18_25  and  N7_26 
ROOT
HETATM    1  N1  UNL     1      24.268   4.363  49.784  1.00  0.00    -0.325 N 
HETATM    2  C3  UNL     1      23.307   4.512  48.750  1.00  0.00     0.212 A 
HETATM    3  N2  UNL     1      22.477   3.515  48.723  1.00  0.00    -0.236 NA
HETATM    4  C4  UNL     1      22.814   2.597  49.750  1.00  0.00     0.147 A 
HETATM    5  C12 UNL     1      23.967   3.130  50.444  1.00  0.00     0.160 A 
ENDROOT
BRANCH   4   6
HETATM    6  C5  UNL     1      22.126   1.507  49.935  1.00  0.00     0.132 C 
BRANCH   6   7
HETATM    7  N3  UNL     1      21.050   1.248  49.074  1.00  0.00    -0.383 N 
HETATM    8  H7  UNL     1      20.360   1.912  48.669  1.00  0.00     0.157 HD
HETATM    9  H8  UNL     1      20.787   0.288  48.704  1.00  0.00     0.157 HD
ENDBRANCH   6   7
BRANCH   6  10
HETATM   10  N4  UNL     1      22.022   0.361  50.740  1.00  0.00    -0.341 N 
HETATM   11  H9  UNL     1      22.196  -0.683  50.625  1.00  0.00     0.167 HD
BRANCH  10  12
HETATM   12  C6  UNL     1      21.594   0.310  52.110  1.00  0.00     0.035 A 
HETATM   13  C7  UNL     1      20.464   0.811  52.719  1.00  0.00     0.029 A 
HETATM   14  C8  UNL     1      20.260   0.648  54.062  1.00  0.00     0.004 A 
HETATM   15  C9  UNL     1      21.204  -0.032  54.831  1.00  0.00     0.024 A 
HETATM   16  C10 UNL     1      22.344  -0.546  54.265  1.00  0.00     0.036 A 
HETATM   17 CL1  UNL     1      23.472  -1.379  55.293  1.00  0.00    -0.084 Cl
HETATM   18  C11 UNL     1      22.520  -0.364  52.902  1.00  0.00     0.053 A 
ENDBRANCH  10  12
ENDBRANCH   6  10
ENDBRANCH   4   6
BRANCH   5  19
HETATM   19  N5  UNL     1      24.650   2.732  51.408  1.00  0.00    -0.240 NA
BRANCH  19  20
HETATM   20  C13 UNL     1      24.496   2.894  52.820  1.00  0.00     0.420 C 
BRANCH  20  21
HETATM   21  N6  UNL     1      25.731   2.580  53.458  1.00  0.00     0.107 N 
HETATM   22  H16 UNL     1      25.635   2.402  54.488  1.00  0.00     0.318 HD
BRANCH  21  23
HETATM   23  C14 UNL     1      26.484   1.487  52.903  1.00  0.00     0.224 C 
HETATM   24  C15 UNL     1      26.255   0.260  53.693  1.00  0.00     0.036 C 
HETATM   25  C16 UNL     1      27.170   0.173  54.910  1.00  0.00     0.004 C 
HETATM   26  C17 UNL     1      28.546  -0.012  54.304  1.00  0.00     0.035 C 
HETATM   27  C18 UNL     1      28.922   1.245  53.608  1.00  0.00     0.220 C 
HETATM   28  C19 UNL     1      27.907   1.923  52.789  1.00  0.00     0.070 C 
BRANCH  27  29
HETATM   29  N7  UNL     1      29.425   2.145  54.661  1.00  0.00     0.083 N 
HETATM   30  H25 UNL     1      30.123   2.816  54.286  1.00  0.00     0.313 HD
HETATM   31  H26 UNL     1      28.571   2.619  55.032  1.00  0.00     0.313 HD
ENDBRANCH  27  29
ENDBRANCH  21  23
ENDBRANCH  20  21
ENDBRANCH  19  20
ENDBRANCH   5  19
BRANCH   1  32
HETATM   32  C2  UNL     1      25.334   5.308  50.078  1.00  0.00     0.127 C 
HETATM   33  C1  UNL     1      26.436   5.179  49.049  1.00  0.00     0.027 C 
ENDBRANCH   1  32
TORSDOF 10
ENDMDL
MODEL 9
REMARK VINA RESULT:      -7.4      2.704      6.161
REMARK  10 active torsions:
REMARK  status: ('A' for Active; 'I' for Inactive)
REMARK    1  A    between atoms: C2_2  and  N1_3 
REMARK    2  A    between atoms: C4_6  and  C5_7 
REMARK    3  A    between atoms: C5_7  and  N3_8 
REMARK    4  A    between atoms: C5_7  and  N4_9 
REMARK    5  A    between atoms: N4_9  and  C6_10 
REMARK    6  A    between atoms: C12_17  and  N5_18 
REMARK    7  A    between atoms: N5_18  and  C13_19 
REMARK    8  A    between atoms: C13_19  and  N6_20 
REMARK    9  A    between atoms: N6_20  and  C14_21 
REMARK   10  A    between atoms: C18_25  and  N7_26 
ROOT
HETATM    1  N1  UNL     1      22.637   4.269  48.897  1.00  0.00    -0.325 N 
HETATM    2  C3  UNL     1      23.712   5.116  48.520  1.00  0.00     0.212 A 
HETATM    3  N2  UNL     1      24.753   4.926  49.270  1.00  0.00    -0.236 NA
HETATM    4  C4  UNL     1      24.463   3.922  50.229  1.00  0.00     0.147 A 
HETATM    5  C12 UNL     1      23.101   3.488  50.001  1.00  0.00     0.160 A 
ENDROOT
BRANCH   4   6
HETATM    6  C5  UNL     1      25.351   3.545  51.103  1.00  0.00     0.132 C 
BRANCH   6   7
HETATM    7  N3  UNL     1      24.966   3.465  52.449  1.00  0.00    -0.383 N 
HETATM    8  H7  UNL     1      25.562   3.395  53.298  1.00  0.00     0.157 HD
HETATM    9  H8  UNL     1      23.962   3.466  52.793  1.00  0.00     0.157 HD
ENDBRANCH   6   7
BRANCH   6  10
HETATM   10  N4  UNL     1      26.689   3.140  51.252  1.00  0.00    -0.341 N 
HETATM   11  H9  UNL     1      27.624   3.383  50.806  1.00  0.00     0.167 HD
BRANCH  10  12
HETATM   12  C6  UNL     1      27.192   2.160  52.173  1.00  0.00     0.035 A 
HETATM   13  C7  UNL     1      28.014   2.294  53.270  1.00  0.00     0.029 A 
HETATM   14  C8  UNL     1      28.376   1.204  54.013  1.00  0.00     0.004 A 
HETATM   15  C9  UNL     1      27.910  -0.063  53.662  1.00  0.00     0.024 A 
HETATM   16  C10 UNL     1      27.088  -0.241  52.576  1.00  0.00     0.036 A 
HETATM   17 CL1  UNL     1      26.552  -1.853  52.205  1.00  0.00    -0.084 Cl
HETATM   18  C11 UNL     1      26.741   0.884  51.845  1.00  0.00     0.053 A 
ENDBRANCH  10  12
ENDBRANCH   6  10
ENDBRANCH   4   6
BRANCH   5  19
HETATM   19  N5  UNL     1      22.365   2.644  50.548  1.00  0.00    -0.240 NA
BRANCH  19  20
HETATM   20  C13 UNL     1      22.125   1.262  50.270  1.00  0.00     0.420 C 
BRANCH  20  21
HETATM   21  N6  UNL     1      21.436   0.682  51.374  1.00  0.00     0.107 N 
HETATM   22  H16 UNL     1      21.364  -0.363  51.319  1.00  0.00     0.318 HD
BRANCH  21  23
HETATM   23  C14 UNL     1      21.929   1.008  52.686  1.00  0.00     0.224 C 
HETATM   24  C15 UNL     1      23.233   0.356  52.915  1.00  0.00     0.036 C 
HETATM   25  C16 UNL     1      23.086  -1.079  53.411  1.00  0.00     0.004 C 
HETATM   26  C17 UNL     1      22.492  -0.916  54.793  1.00  0.00     0.035 C 
HETATM   27  C18 UNL     1      21.107  -0.397  54.647  1.00  0.00     0.220 C 
HETATM   28  C19 UNL     1      20.860   0.674  53.673  1.00  0.00     0.070 C 
BRANCH  27  29
HETATM   29  N7  UNL     1      20.274  -1.575  54.347  1.00  0.00     0.083 N 
HETATM   30  H25 UNL     1      20.155  -2.179  55.184  1.00  0.00     0.313 HD
HETATM   31  H26 UNL     1      19.370  -1.177  54.008  1.00  0.00     0.313 HD
ENDBRANCH  27  29
ENDBRANCH  21  23
ENDBRANCH  20  21
ENDBRANCH  19  20
ENDBRANCH   5  19
BRANCH   1  32
HETATM   32  C2  UNL     1      21.332   4.238  48.254  1.00  0.00     0.127 C 
HETATM   33  C1  UNL     1      20.367   5.135  48.999  1.00  0.00     0.027 C 
ENDBRANCH   1  32
TORSDOF 10
ENDMDL
