MODEL 1
REMARK VINA RESULT:      -9.6      0.000      0.000
REMARK  6 active torsions:
REMARK  status: ('A' for Active; 'I' for Inactive)
REMARK    1  A    between atoms: O1_2  and  C2_3 
REMARK    2  A    between atoms: C11_14  and  O2_15 
REMARK    3  A    between atoms: O2_15  and  C12_16 
REMARK    4  A    between atoms: C12_16  and  C13_17 
REMARK    5  A    between atoms: C17_22  and  N3_23 
REMARK    6  A    between atoms: N3_23  and  C18_24 
ROOT
HETATM    1  C2  UNL     1      24.632   3.750  50.998  1.00  0.00     0.103 A 
HETATM    2  C3  UNL     1      24.495   5.010  50.476  1.00  0.00     0.072 A 
HETATM    3  C4  UNL     1      25.458   5.588  49.654  1.00  0.00     0.069 A 
HETATM    4  N1  UNL     1      25.333   6.815  49.141  1.00  0.00    -0.259 NA
HETATM    5  C5  UNL     1      26.294   7.355  48.339  1.00  0.00     0.140 A 
HETATM    6  C6  UNL     1      27.450   6.680  48.006  1.00  0.00     0.063 A 
HETATM    7  C7  UNL     1      28.457   7.267  47.155  1.00  0.00     0.101 C 
HETATM    8  N2  UNL     1      29.259   7.725  46.467  1.00  0.00    -0.191 NA
HETATM    9  C8  UNL     1      27.604   5.408  48.523  1.00  0.00     0.038 A 
HETATM   10  C9  UNL     1      26.613   4.869  49.343  1.00  0.00    -0.003 A 
HETATM   11  C10 UNL     1      26.776   3.608  49.850  1.00  0.00     0.053 A 
HETATM   12  C11 UNL     1      25.795   3.064  50.665  1.00  0.00     0.102 A 
ENDROOT
BRANCH  12  13
HETATM   13  O2  UNL     1      25.923   1.787  51.200  1.00  0.00    -0.348 OA
BRANCH  13  14
HETATM   14  C12 UNL     1      26.951   1.422  52.101  1.00  0.00     0.182 C 
BRANCH  14  15
HETATM   15  C13 UNL     1      26.712   0.004  52.548  1.00  0.00     0.037 C 
HETATM   16  C14 UNL     1      28.007  -0.624  53.015  1.00  0.00     0.035 C 
HETATM   17  C15 UNL     1      28.384  -0.157  54.381  1.00  0.00     0.168 C 
HETATM   18  O3  UNL     1      27.556   0.838  54.871  1.00  0.00    -0.389 OA
HETATM   19  C16 UNL     1      26.269   0.310  54.983  1.00  0.00     0.193 C 
HETATM   20  C17 UNL     1      25.713  -0.146  53.652  1.00  0.00     0.111 C 
BRANCH  20  21
HETATM   21  N3  UNL     1      24.430   0.446  53.340  1.00  0.00    -0.383 N 
HETATM   22  H18 UNL     1      24.478   1.421  52.942  1.00  0.00     0.160 HD
BRANCH  21  23
HETATM   23  C18 UNL     1      23.113  -0.076  53.483  1.00  0.00     0.030 A 
HETATM   24  C19 UNL     1      22.753  -0.922  54.533  1.00  0.00     0.032 A 
HETATM   25  C20 UNL     1      21.451  -1.368  54.582  1.00  0.00     0.046 A 
HETATM   26  C21 UNL     1      20.494  -1.025  53.657  1.00  0.00     0.138 A 
HETATM   27  F1  UNL     1      19.274  -1.543  53.846  1.00  0.00    -0.204 F 
HETATM   28  C22 UNL     1      20.832  -0.195  52.619  1.00  0.00     0.074 A 
HETATM   29 CL1  UNL     1      19.611   0.233  51.451  1.00  0.00    -0.081 Cl
HETATM   30  C23 UNL     1      22.149   0.266  52.556  1.00  0.00     0.056 A 
ENDBRANCH  21  23
ENDBRANCH  20  21
ENDBRANCH  14  15
ENDBRANCH  13  14
ENDBRANCH  12  13
BRANCH   1  31
HETATM   31  O1  UNL     1      23.660   3.188  51.816  1.00  0.00    -0.353 OA
HETATM   32  C1  UNL     1      22.587   4.035  52.169  1.00  0.00     0.210 C 
ENDBRANCH   1  31
TORSDOF 6
ENDMDL
MODEL 2
REMARK VINA RESULT:      -9.1      3.389      5.125
REMARK  6 active torsions:
REMARK  status: ('A' for Active; 'I' for Inactive)
REMARK    1  A    between atoms: O1_2  and  C2_3 
REMARK    2  A    between atoms: C11_14  and  O2_15 
REMARK    3  A    between atoms: O2_15  and  C12_16 
REMARK    4  A    between atoms: C12_16  and  C13_17 
REMARK    5  A    between atoms: C17_22  and  N3_23 
REMARK    6  A    between atoms: N3_23  and  C18_24 
ROOT
HETATM    1  C2  UNL     1      21.526   3.494  51.468  1.00  0.00     0.103 A 
HETATM    2  C3  UNL     1      22.228   4.664  51.346  1.00  0.00     0.072 A 
HETATM    3  C4  UNL     1      23.484   4.726  50.748  1.00  0.00     0.069 A 
HETATM    4  N1  UNL     1      24.175   5.862  50.627  1.00  0.00    -0.259 NA
HETATM    5  C5  UNL     1      25.403   5.891  50.036  1.00  0.00     0.140 A 
HETATM    6  C6  UNL     1      26.012   4.762  49.529  1.00  0.00     0.063 A 
HETATM    7  C7  UNL     1      27.313   4.810  48.907  1.00  0.00     0.101 C 
HETATM    8  N2  UNL     1      28.346   4.844  48.399  1.00  0.00    -0.191 NA
HETATM    9  C8  UNL     1      25.317   3.572  49.643  1.00  0.00     0.038 A 
HETATM   10  C9  UNL     1      24.062   3.558  50.250  1.00  0.00    -0.003 A 
HETATM   11  C10 UNL     1      23.383   2.374  50.357  1.00  0.00     0.053 A 
HETATM   12  C11 UNL     1      22.133   2.351  50.958  1.00  0.00     0.102 A 
ENDROOT
BRANCH  12  13
HETATM   13  O2  UNL     1      21.412   1.169  51.087  1.00  0.00    -0.348 OA
BRANCH  13  14
HETATM   14  C12 UNL     1      21.869   0.058  51.834  1.00  0.00     0.182 C 
BRANCH  14  15
HETATM   15  C13 UNL     1      22.130   0.508  53.247  1.00  0.00     0.037 C 
HETATM   16  C14 UNL     1      20.840   0.523  54.038  1.00  0.00     0.035 C 
HETATM   17  C15 UNL     1      20.431  -0.851  54.451  1.00  0.00     0.168 C 
HETATM   18  O3  UNL     1      21.230  -1.847  53.917  1.00  0.00    -0.389 OA
HETATM   19  C16 UNL     1      22.526  -1.666  54.403  1.00  0.00     0.193 C 
HETATM   20  C17 UNL     1      23.113  -0.332  54.000  1.00  0.00     0.111 C 
BRANCH  20  21
HETATM   21  N3  UNL     1      24.389  -0.452  53.328  1.00  0.00    -0.383 N 
HETATM   22  H18 UNL     1      24.473  -1.285  52.686  1.00  0.00     0.160 HD
BRANCH  21  23
HETATM   23  C18 UNL     1      25.549   0.371  53.393  1.00  0.00     0.030 A 
HETATM   24  C19 UNL     1      25.477   1.764  53.406  1.00  0.00     0.032 A 
HETATM   25  C20 UNL     1      26.659   2.467  53.475  1.00  0.00     0.046 A 
HETATM   26  C21 UNL     1      27.897   1.873  53.531  1.00  0.00     0.138 A 
HETATM   27  F1  UNL     1      28.949   2.698  53.595  1.00  0.00    -0.204 F 
HETATM   28  C22 UNL     1      27.984   0.505  53.519  1.00  0.00     0.074 A 
HETATM   29 CL1  UNL     1      29.558  -0.240  53.590  1.00  0.00    -0.081 Cl
HETATM   30  C23 UNL     1      26.793  -0.223  53.449  1.00  0.00     0.056 A 
ENDBRANCH  21  23
ENDBRANCH  20  21
ENDBRANCH  14  15
ENDBRANCH  13  14
ENDBRANCH  12  13
BRANCH   1  31
HETATM   31  O1  UNL     1      20.274   3.451  52.067  1.00  0.00    -0.353 OA
HETATM   32  C1  UNL     1      19.197   3.911  51.277  1.00  0.00     0.210 C 
ENDBRANCH   1  31
TORSDOF 6
ENDMDL
MODEL 3
REMARK VINA RESULT:      -9.0      4.475      9.713
REMARK  6 active torsions:
REMARK  status: ('A' for Active; 'I' for Inactive)
REMARK    1  A    between atoms: O1_2  and  C2_3 
REMARK    2  A    between atoms: C11_14  and  O2_15 
REMARK    3  A    between atoms: O2_15  and  C12_16 
REMARK    4  A    between atoms: C12_16  and  C13_17 
REMARK    5  A    between atoms: C17_22  and  N3_23 
REMARK    6  A    between atoms: N3_23  and  C18_24 
ROOT
HETATM    1  C2  UNL     1      27.345   0.792  53.189  1.00  0.00     0.103 A 
HETATM    2  C3  UNL     1      26.853   0.050  54.231  1.00  0.00     0.072 A 
HETATM    3  C4  UNL     1      25.519  -0.341  54.308  1.00  0.00     0.069 A 
HETATM    4  N1  UNL     1      25.033  -1.064  55.320  1.00  0.00    -0.259 NA
HETATM    5  C5  UNL     1      23.721  -1.431  55.368  1.00  0.00     0.140 A 
HETATM    6  C6  UNL     1      22.815  -1.086  54.387  1.00  0.00     0.063 A 
HETATM    7  C7  UNL     1      21.429  -1.485  54.454  1.00  0.00     0.101 C 
HETATM    8  N2  UNL     1      20.325  -1.809  54.496  1.00  0.00    -0.191 NA
HETATM    9  C8  UNL     1      23.294  -0.338  53.329  1.00  0.00     0.038 A 
HETATM   10  C9  UNL     1      24.638   0.031  53.293  1.00  0.00    -0.003 A 
HETATM   11  C10 UNL     1      25.101   0.773  52.239  1.00  0.00     0.053 A 
HETATM   12  C11 UNL     1      26.437   1.144  52.195  1.00  0.00     0.102 A 
ENDROOT
BRANCH  12  13
HETATM   13  O2  UNL     1      26.946   1.896  51.143  1.00  0.00    -0.348 OA
BRANCH  13  14
HETATM   14  C12 UNL     1      26.672   3.273  50.970  1.00  0.00     0.182 C 
BRANCH  14  15
HETATM   15  C13 UNL     1      26.248   3.499  49.543  1.00  0.00     0.037 C 
HETATM   16  C14 UNL     1      24.758   3.279  49.398  1.00  0.00     0.035 C 
HETATM   17  C15 UNL     1      23.977   4.441  49.913  1.00  0.00     0.168 C 
HETATM   18  O3  UNL     1      24.761   5.402  50.529  1.00  0.00    -0.389 OA
HETATM   19  C16 UNL     1      25.639   5.917  49.575  1.00  0.00     0.193 C 
HETATM   20  C17 UNL     1      26.559   4.860  49.004  1.00  0.00     0.111 C 
BRANCH  20  21
HETATM   21  N3  UNL     1      27.960   5.207  49.113  1.00  0.00    -0.383 N 
HETATM   22  H18 UNL     1      28.443   4.827  49.970  1.00  0.00     0.160 HD
BRANCH  21  23
HETATM   23  C18 UNL     1      28.790   5.978  48.251  1.00  0.00     0.030 A 
HETATM   24  C19 UNL     1      28.314   7.081  47.543  1.00  0.00     0.032 A 
HETATM   25  C20 UNL     1      29.202   7.761  46.740  1.00  0.00     0.046 A 
HETATM   26  C21 UNL     1      30.523   7.412  46.600  1.00  0.00     0.138 A 
HETATM   27  F1  UNL     1      31.256   8.176  45.780  1.00  0.00    -0.204 F 
HETATM   28  C22 UNL     1      31.007   6.330  47.289  1.00  0.00     0.074 A 
HETATM   29 CL1  UNL     1      32.685   5.894  47.105  1.00  0.00    -0.081 Cl
HETATM   30  C23 UNL     1      30.118   5.629  48.109  1.00  0.00     0.056 A 
ENDBRANCH  21  23
ENDBRANCH  20  21
ENDBRANCH  14  15
ENDBRANCH  13  14
ENDBRANCH  12  13
BRANCH   1  31
HETATM   31  O1  UNL     1      28.678   1.173  53.127  1.00  0.00    -0.353 OA
HETATM   32  C1  UNL     1      29.016   2.352  53.828  1.00  0.00     0.210 C 
ENDBRANCH   1  31
TORSDOF 6
ENDMDL
MODEL 4
REMARK VINA RESULT:      -8.9      3.494      8.410
REMARK  6 active torsions:
REMARK  status: ('A' for Active; 'I' for Inactive)
REMARK    1  A    between atoms: O1_2  and  C2_3 
REMARK    2  A    between atoms: C11_14  and  O2_15 
REMARK    3  A    between atoms: O2_15  and  C12_16 
REMARK    4  A    between atoms: C12_16  and  C13_17 
REMARK    5  A    between atoms: C17_22  and  N3_23 
REMARK    6  A    between atoms: N3_23  and  C18_24 
ROOT
HETATM    1  C2  UNL     1      22.587  -0.094  53.852  1.00  0.00     0.103 A 
HETATM    2  C3  UNL     1      21.640  -1.044  54.133  1.00  0.00     0.072 A 
HETATM    3  C4  UNL     1      20.344  -0.982  53.630  1.00  0.00     0.069 A 
HETATM    4  N1  UNL     1      19.416  -1.903  53.899  1.00  0.00    -0.259 NA
HETATM    5  C5  UNL     1      18.154  -1.814  53.391  1.00  0.00     0.140 A 
HETATM    6  C6  UNL     1      17.752  -0.779  52.574  1.00  0.00     0.063 A 
HETATM    7  C7  UNL     1      16.412  -0.700  52.044  1.00  0.00     0.101 C 
HETATM    8  N2  UNL     1      15.347  -0.639  51.610  1.00  0.00    -0.191 NA
HETATM    9  C8  UNL     1      18.694   0.188  52.280  1.00  0.00     0.038 A 
HETATM   10  C9  UNL     1      19.981   0.085  52.807  1.00  0.00    -0.003 A 
HETATM   11  C10 UNL     1      20.907   1.049  52.508  1.00  0.00     0.053 A 
HETATM   12  C11 UNL     1      22.189   0.953  53.028  1.00  0.00     0.102 A 
ENDROOT
BRANCH  12  13
HETATM   13  O2  UNL     1      23.157   1.911  52.749  1.00  0.00    -0.348 OA
BRANCH  13  14
HETATM   14  C12 UNL     1      23.046   2.844  51.691  1.00  0.00     0.182 C 
BRANCH  14  15
HETATM   15  C13 UNL     1      24.038   2.473  50.622  1.00  0.00     0.037 C 
HETATM   16  C14 UNL     1      23.481   2.796  49.253  1.00  0.00     0.035 C 
HETATM   17  C15 UNL     1      23.564   4.256  48.956  1.00  0.00     0.168 C 
HETATM   18  O3  UNL     1      24.001   5.012  50.030  1.00  0.00    -0.389 OA
HETATM   19  C16 UNL     1      25.299   4.606  50.342  1.00  0.00     0.193 C 
HETATM   20  C17 UNL     1      25.369   3.148  50.740  1.00  0.00     0.111 C 
BRANCH  20  21
HETATM   21  N3  UNL     1      25.999   2.940  52.026  1.00  0.00    -0.383 N 
HETATM   22  H18 UNL     1      25.786   3.679  52.747  1.00  0.00     0.160 HD
BRANCH  21  23
HETATM   23  C18 UNL     1      26.860   1.898  52.475  1.00  0.00     0.030 A 
HETATM   24  C19 UNL     1      28.055   2.153  53.146  1.00  0.00     0.032 A 
HETATM   25  C20 UNL     1      28.813   1.073  53.542  1.00  0.00     0.046 A 
HETATM   26  C21 UNL     1      28.455  -0.233  53.312  1.00  0.00     0.138 A 
HETATM   27  F1  UNL     1      29.301  -1.168  53.760  1.00  0.00    -0.204 F 
HETATM   28  C22 UNL     1      27.283  -0.501  52.652  1.00  0.00     0.074 A 
HETATM   29 CL1  UNL     1      26.838  -2.161  52.364  1.00  0.00    -0.081 Cl
HETATM   30  C23 UNL     1      26.503   0.585  52.244  1.00  0.00     0.056 A 
ENDBRANCH  21  23
ENDBRANCH  20  21
ENDBRANCH  14  15
ENDBRANCH  13  14
ENDBRANCH  12  13
BRANCH   1  31
HETATM   31  O1  UNL     1      23.876  -0.172  54.363  1.00  0.00    -0.353 OA
HETATM   32  C1  UNL     1      24.131  -1.259  55.228  1.00  0.00     0.210 C 
ENDBRANCH   1  31
TORSDOF 6
ENDMDL
MODEL 5
REMARK VINA RESULT:      -8.6      3.970      8.010
REMARK  6 active torsions:
REMARK  status: ('A' for Active; 'I' for Inactive)
REMARK    1  A    between atoms: O1_2  and  C2_3 
REMARK    2  A    between atoms: C11_14  and  O2_15 
REMARK    3  A    between atoms: O2_15  and  C12_16 
REMARK    4  A    between atoms: C12_16  and  C13_17 
REMARK    5  A    between atoms: C17_22  and  N3_23 
REMARK    6  A    between atoms: N3_23  and  C18_24 
ROOT
HETATM    1  C2  UNL     1      21.547   0.575  52.500  1.00  0.00     0.103 A 
HETATM    2  C3  UNL     1      22.620  -0.188  52.880  1.00  0.00     0.072 A 
HETATM    3  C4  UNL     1      23.879   0.355  53.119  1.00  0.00     0.069 A 
HETATM    4  N1  UNL     1      24.929  -0.382  53.489  1.00  0.00    -0.259 NA
HETATM    5  C5  UNL     1      26.150   0.180  53.717  1.00  0.00     0.140 A 
HETATM    6  C6  UNL     1      26.384   1.532  53.582  1.00  0.00     0.063 A 
HETATM    7  C7  UNL     1      27.684   2.110  53.827  1.00  0.00     0.101 C 
HETATM    8  N2  UNL     1      28.715   2.578  54.033  1.00  0.00    -0.191 NA
HETATM    9  C8  UNL     1      25.313   2.317  53.200  1.00  0.00     0.038 A 
HETATM   10  C9  UNL     1      24.070   1.729  52.970  1.00  0.00    -0.003 A 
HETATM   11  C10 UNL     1      23.015   2.517  52.592  1.00  0.00     0.053 A 
HETATM   12  C11 UNL     1      21.775   1.940  52.362  1.00  0.00     0.102 A 
ENDROOT
BRANCH  12  13
HETATM   13  O2  UNL     1      20.680   2.705  51.977  1.00  0.00    -0.348 OA
BRANCH  13  14
HETATM   14  C12 UNL     1      20.797   3.962  51.337  1.00  0.00     0.182 C 
BRANCH  14  15
HETATM   15  C13 UNL     1      21.160   3.730  49.894  1.00  0.00     0.037 C 
HETATM   16  C14 UNL     1      19.910   3.623  49.050  1.00  0.00     0.035 C 
HETATM   17  C15 UNL     1      19.310   4.962  48.782  1.00  0.00     0.168 C 
HETATM   18  O3  UNL     1      19.935   5.992  49.463  1.00  0.00    -0.389 OA
HETATM   19  C16 UNL     1      21.256   6.063  49.018  1.00  0.00     0.193 C 
HETATM   20  C17 UNL     1      22.026   4.790  49.288  1.00  0.00     0.111 C 
BRANCH  20  21
HETATM   21  N3  UNL     1      23.251   5.013  50.026  1.00  0.00    -0.383 N 
HETATM   22  H18 UNL     1      23.114   5.295  51.033  1.00  0.00     0.160 HD
BRANCH  21  23
HETATM   23  C18 UNL     1      24.610   4.913  49.613  1.00  0.00     0.030 A 
HETATM   24  C19 UNL     1      25.357   3.747  49.776  1.00  0.00     0.032 A 
HETATM   25  C20 UNL     1      26.663   3.754  49.338  1.00  0.00     0.046 A 
HETATM   26  C21 UNL     1      27.264   4.842  48.753  1.00  0.00     0.138 A 
HETATM   27  F1  UNL     1      28.541   4.687  48.382  1.00  0.00    -0.204 F 
HETATM   28  C22 UNL     1      26.543   5.997  48.586  1.00  0.00     0.074 A 
HETATM   29 CL1  UNL     1      27.314   7.372  47.844  1.00  0.00    -0.081 Cl
HETATM   30  C23 UNL     1      25.216   6.005  49.026  1.00  0.00     0.056 A 
ENDBRANCH  21  23
ENDBRANCH  20  21
ENDBRANCH  14  15
ENDBRANCH  13  14
ENDBRANCH  12  13
BRANCH   1  31
HETATM   31  O1  UNL     1      20.298   0.016  52.265  1.00  0.00    -0.353 OA
HETATM   32  C1  UNL     1      19.647  -0.533  53.392  1.00  0.00     0.210 C 
ENDBRANCH   1  31
TORSDOF 6
ENDMDL
MODEL 6
REMARK VINA RESULT:      -8.5      1.543      2.125
REMARK  6 active torsions:
REMARK  status: ('A' for Active; 'I' for Inactive)
REMARK    1  A    between atoms: O1_2  and  C2_3 
REMARK    2  A    between atoms: C11_14  and  O2_15 
REMARK    3  A    between atoms: O2_15  and  C12_16 
REMARK    4  A    between atoms: C12_16  and  C13_17 
REMARK    5  A    between atoms: C17_22  and  N3_23 
REMARK    6  A    between atoms: N3_23  and  C18_24 
ROOT
HETATM    1  C2  UNL     1      24.957   5.673  49.304  1.00  0.00     0.103 A 
HETATM    2  C3  UNL     1      25.637   6.690  48.685  1.00  0.00     0.072 A 
HETATM    3  C4  UNL     1      26.978   6.584  48.325  1.00  0.00     0.069 A 
HETATM    4  N1  UNL     1      27.647   7.570  47.723  1.00  0.00    -0.259 NA
HETATM    5  C5  UNL     1      28.961   7.436  47.382  1.00  0.00     0.140 A 
HETATM    6  C6  UNL     1      29.681   6.288  47.634  1.00  0.00     0.063 A 
HETATM    7  C7  UNL     1      31.072   6.164  47.266  1.00  0.00     0.101 C 
HETATM    8  N2  UNL     1      32.178   6.055  46.965  1.00  0.00    -0.191 NA
HETATM    9  C8  UNL     1      29.011   5.253  48.256  1.00  0.00     0.038 A 
HETATM   10  C9  UNL     1      27.668   5.404  48.599  1.00  0.00    -0.003 A 
HETATM   11  C10 UNL     1      27.014   4.370  49.216  1.00  0.00     0.053 A 
HETATM   12  C11 UNL     1      25.678   4.512  49.560  1.00  0.00     0.102 A 
ENDROOT
BRANCH  12  13
HETATM   13  O2  UNL     1      24.979   3.487  50.188  1.00  0.00    -0.348 OA
BRANCH  13  14
HETATM   14  C12 UNL     1      25.130   3.170  51.558  1.00  0.00     0.182 C 
BRANCH  14  15
HETATM   15  C13 UNL     1      25.347   1.685  51.683  1.00  0.00     0.037 C 
HETATM   16  C14 UNL     1      26.814   1.354  51.519  1.00  0.00     0.035 C 
HETATM   17  C15 UNL     1      27.591   1.667  52.754  1.00  0.00     0.168 C 
HETATM   18  O3  UNL     1      26.843   2.309  53.726  1.00  0.00    -0.389 OA
HETATM   19  C16 UNL     1      25.819   1.448  54.120  1.00  0.00     0.193 C 
HETATM   20  C17 UNL     1      24.892   1.092  52.979  1.00  0.00     0.111 C 
BRANCH  20  21
HETATM   21  N3  UNL     1      23.501   1.365  53.271  1.00  0.00    -0.383 N 
HETATM   22  H18 UNL     1      23.265   2.388  53.379  1.00  0.00     0.160 HD
BRANCH  21  23
HETATM   23  C18 UNL     1      22.399   0.478  53.435  1.00  0.00     0.030 A 
HETATM   24  C19 UNL     1      22.398  -0.545  54.382  1.00  0.00     0.032 A 
HETATM   25  C20 UNL     1      21.280  -1.345  54.463  1.00  0.00     0.046 A 
HETATM   26  C21 UNL     1      20.173  -1.189  53.663  1.00  0.00     0.138 A 
HETATM   27  F1  UNL     1      19.168  -2.050  53.866  1.00  0.00    -0.204 F 
HETATM   28  C22 UNL     1      20.159  -0.188  52.726  1.00  0.00     0.074 A 
HETATM   29 CL1  UNL     1      18.751   0.001  51.716  1.00  0.00    -0.081 Cl
HETATM   30  C23 UNL     1      21.286   0.632  52.633  1.00  0.00     0.056 A 
ENDBRANCH  21  23
ENDBRANCH  20  21
ENDBRANCH  14  15
ENDBRANCH  13  14
ENDBRANCH  12  13
BRANCH   1  31
HETATM   31  O1  UNL     1      23.620   5.796  49.655  1.00  0.00    -0.353 OA
HETATM   32  C1  UNL     1      23.174   7.106  49.937  1.00  0.00     0.210 C 
ENDBRANCH   1  31
TORSDOF 6
ENDMDL
MODEL 7
REMARK VINA RESULT:      -8.3      1.244      1.433
REMARK  6 active torsions:
REMARK  status: ('A' for Active; 'I' for Inactive)
REMARK    1  A    between atoms: O1_2  and  C2_3 
REMARK    2  A    between atoms: C11_14  and  O2_15 
REMARK    3  A    between atoms: O2_15  and  C12_16 
REMARK    4  A    between atoms: C12_16  and  C13_17 
REMARK    5  A    between atoms: C17_22  and  N3_23 
REMARK    6  A    between atoms: N3_23  and  C18_24 
ROOT
HETATM    1  C2  UNL     1      24.859   4.609  49.717  1.00  0.00     0.103 A 
HETATM    2  C3  UNL     1      24.886   5.828  49.091  1.00  0.00     0.072 A 
HETATM    3  C4  UNL     1      26.043   6.351  48.521  1.00  0.00     0.069 A 
HETATM    4  N1  UNL     1      26.079   7.539  47.911  1.00  0.00    -0.259 NA
HETATM    5  C5  UNL     1      27.228   8.024  47.362  1.00  0.00     0.140 A 
HETATM    6  C6  UNL     1      28.421   7.333  47.398  1.00  0.00     0.063 A 
HETATM    7  C7  UNL     1      29.628   7.863  46.811  1.00  0.00     0.101 C 
HETATM    8  N2  UNL     1      30.592   8.275  46.335  1.00  0.00    -0.191 NA
HETATM    9  C8  UNL     1      28.411   6.101  48.024  1.00  0.00     0.038 A 
HETATM   10  C9  UNL     1      27.228   5.617  48.582  1.00  0.00    -0.003 A 
HETATM   11  C10 UNL     1      27.230   4.395  49.200  1.00  0.00     0.053 A 
HETATM   12  C11 UNL     1      26.058   3.905  49.757  1.00  0.00     0.102 A 
ENDROOT
BRANCH  12  13
HETATM   13  O2  UNL     1      26.018   2.670  50.393  1.00  0.00    -0.348 OA
BRANCH  13  14
HETATM   14  C12 UNL     1      26.767   2.371  51.556  1.00  0.00     0.182 C 
BRANCH  14  15
HETATM   15  C13 UNL     1      26.458   0.957  51.971  1.00  0.00     0.037 C 
HETATM   16  C14 UNL     1      27.708   0.277  52.485  1.00  0.00     0.035 C 
HETATM   17  C15 UNL     1      28.041   0.712  53.873  1.00  0.00     0.168 C 
HETATM   18  O3  UNL     1      27.228   1.730  54.340  1.00  0.00    -0.389 OA
HETATM   19  C16 UNL     1      25.919   1.248  54.388  1.00  0.00     0.193 C 
HETATM   20  C17 UNL     1      25.407   0.829  53.028  1.00  0.00     0.111 C 
BRANCH  20  21
HETATM   21  N3  UNL     1      24.160   1.471  52.669  1.00  0.00    -0.383 N 
HETATM   22  H18 UNL     1      24.264   2.434  52.252  1.00  0.00     0.160 HD
BRANCH  21  23
HETATM   23  C18 UNL     1      22.817   1.012  52.787  1.00  0.00     0.030 A 
HETATM   24  C19 UNL     1      22.500  -0.250  53.288  1.00  0.00     0.032 A 
HETATM   25  C20 UNL     1      21.168  -0.595  53.365  1.00  0.00     0.046 A 
HETATM   26  C21 UNL     1      20.144   0.235  52.977  1.00  0.00     0.138 A 
HETATM   27  F1  UNL     1      18.904  -0.249  53.115  1.00  0.00    -0.204 F 
HETATM   28  C22 UNL     1      20.440   1.479  52.482  1.00  0.00     0.074 A 
HETATM   29 CL1  UNL     1      19.133   2.523  51.991  1.00  0.00    -0.081 Cl
HETATM   30  C23 UNL     1      21.786   1.843  52.397  1.00  0.00     0.056 A 
ENDBRANCH  21  23
ENDBRANCH  20  21
ENDBRANCH  14  15
ENDBRANCH  13  14
ENDBRANCH  12  13
BRANCH   1  31
HETATM   31  O1  UNL     1      23.695   4.102  50.279  1.00  0.00    -0.353 OA
HETATM   32  C1  UNL     1      22.784   5.059  50.779  1.00  0.00     0.210 C 
ENDBRANCH   1  31
TORSDOF 6
ENDMDL
MODEL 8
REMARK VINA RESULT:      -8.3      4.198      9.412
REMARK  6 active torsions:
REMARK  status: ('A' for Active; 'I' for Inactive)
REMARK    1  A    between atoms: O1_2  and  C2_3 
REMARK    2  A    between atoms: C11_14  and  O2_15 
REMARK    3  A    between atoms: O2_15  and  C12_16 
REMARK    4  A    between atoms: C12_16  and  C13_17 
REMARK    5  A    between atoms: C17_22  and  N3_23 
REMARK    6  A    between atoms: N3_23  and  C18_24 
ROOT
HETATM    1  C2  UNL     1      24.867   0.848  53.134  1.00  0.00     0.103 A 
HETATM    2  C3  UNL     1      24.258  -0.201  53.771  1.00  0.00     0.072 A 
HETATM    3  C4  UNL     1      22.883  -0.412  53.720  1.00  0.00     0.069 A 
HETATM    4  N1  UNL     1      22.282  -1.432  54.339  1.00  0.00    -0.259 NA
HETATM    5  C5  UNL     1      20.932  -1.612  54.269  1.00  0.00     0.140 A 
HETATM    6  C6  UNL     1      20.103  -0.765  53.565  1.00  0.00     0.063 A 
HETATM    7  C7  UNL     1      18.676  -0.972  53.502  1.00  0.00     0.101 C 
HETATM    8  N2  UNL     1      17.538  -1.138  53.438  1.00  0.00    -0.191 NA
HETATM    9  C8  UNL     1      20.701   0.298  52.915  1.00  0.00     0.038 A 
HETATM   10  C9  UNL     1      22.082   0.471  52.995  1.00  0.00    -0.003 A 
HETATM   11  C10 UNL     1      22.664   1.528  52.347  1.00  0.00     0.053 A 
HETATM   12  C11 UNL     1      24.037   1.707  52.421  1.00  0.00     0.102 A 
ENDROOT
BRANCH  12  13
HETATM   13  O2  UNL     1      24.665   2.767  51.778  1.00  0.00    -0.348 OA
BRANCH  13  14
HETATM   14  C12 UNL     1      23.964   3.775  51.076  1.00  0.00     0.182 C 
BRANCH  14  15
HETATM   15  C13 UNL     1      24.226   3.601  49.603  1.00  0.00     0.037 C 
HETATM   16  C14 UNL     1      23.128   2.776  48.969  1.00  0.00     0.035 C 
HETATM   17  C15 UNL     1      21.891   3.580  48.750  1.00  0.00     0.168 C 
HETATM   18  O3  UNL     1      21.960   4.854  49.287  1.00  0.00    -0.389 OA
HETATM   19  C16 UNL     1      22.988   5.539  48.639  1.00  0.00     0.193 C 
HETATM   20  C17 UNL     1      24.335   4.878  48.831  1.00  0.00     0.111 C 
BRANCH  20  21
HETATM   21  N3  UNL     1      25.339   5.777  49.359  1.00  0.00    -0.383 N 
HETATM   22  H18 UNL     1      25.029   6.342  50.195  1.00  0.00     0.160 HD
BRANCH  21  23
HETATM   23  C18 UNL     1      26.676   6.022  48.935  1.00  0.00     0.030 A 
HETATM   24  C19 UNL     1      27.561   4.991  48.620  1.00  0.00     0.032 A 
HETATM   25  C20 UNL     1      28.831   5.336  48.215  1.00  0.00     0.046 A 
HETATM   26  C21 UNL     1      29.268   6.634  48.105  1.00  0.00     0.138 A 
HETATM   27  F1  UNL     1      30.533   6.802  47.698  1.00  0.00    -0.204 F 
HETATM   28  C22 UNL     1      28.410   7.659  48.411  1.00  0.00     0.074 A 
HETATM   29 CL1  UNL     1      28.975   9.302  48.270  1.00  0.00    -0.081 Cl
HETATM   30  C23 UNL     1      27.118   7.325  48.824  1.00  0.00     0.056 A 
ENDBRANCH  21  23
ENDBRANCH  20  21
ENDBRANCH  14  15
ENDBRANCH  13  14
ENDBRANCH  12  13
BRANCH   1  31
HETATM   31  O1  UNL     1      26.240   1.044  53.196  1.00  0.00    -0.353 OA
HETATM   32  C1  UNL     1      26.896   0.461  54.303  1.00  0.00     0.210 C 
ENDBRANCH   1  31
TORSDOF 6
ENDMDL
MODEL 9
REMARK VINA RESULT:      -8.0      2.737      7.582
REMARK  6 active torsions:
REMARK  status: ('A' for Active; 'I' for Inactive)
REMARK    1  A    between atoms: O1_2  and  C2_3 
REMARK    2  A    between atoms: C11_14  and  O2_15 
REMARK    3  A    between atoms: O2_15  and  C12_16 
REMARK    4  A    between atoms: C12_16  and  C13_17 
REMARK    5  A    between atoms: C17_22  and  N3_23 
REMARK    6  A    between atoms: N3_23  and  C18_24 
ROOT
HETATM    1  C2  UNL     1      24.774   1.449  53.075  1.00  0.00     0.103 A 
HETATM    2  C3  UNL     1      24.290   0.222  53.446  1.00  0.00     0.072 A 
HETATM    3  C4  UNL     1      22.930  -0.075  53.457  1.00  0.00     0.069 A 
HETATM    4  N1  UNL     1      22.451  -1.268  53.817  1.00  0.00    -0.259 NA
HETATM    5  C5  UNL     1      21.112  -1.528  53.818  1.00  0.00     0.140 A 
HETATM    6  C6  UNL     1      20.171  -0.589  53.451  1.00  0.00     0.063 A 
HETATM    7  C7  UNL     1      18.758  -0.882  53.457  1.00  0.00     0.101 C 
HETATM    8  N2  UNL     1      17.630  -1.113  53.449  1.00  0.00    -0.191 NA
HETATM    9  C8  UNL     1      20.642   0.654  53.074  1.00  0.00     0.038 A 
HETATM   10  C9  UNL     1      22.013   0.906  53.079  1.00  0.00    -0.003 A 
HETATM   11  C10 UNL     1      22.469   2.143  52.703  1.00  0.00     0.053 A 
HETATM   12  C11 UNL     1      23.831   2.402  52.704  1.00  0.00     0.102 A 
ENDROOT
BRANCH  12  13
HETATM   13  O2  UNL     1      24.333   3.643  52.330  1.00  0.00    -0.348 OA
BRANCH  13  14
HETATM   14  C12 UNL     1      24.538   4.024  50.983  1.00  0.00     0.182 C 
BRANCH  14  15
HETATM   15  C13 UNL     1      23.594   5.151  50.657  1.00  0.00     0.037 C 
HETATM   16  C14 UNL     1      24.111   6.451  51.233  1.00  0.00     0.035 C 
HETATM   17  C15 UNL     1      25.220   7.015  50.409  1.00  0.00     0.168 C 
HETATM   18  O3  UNL     1      25.626   6.177  49.384  1.00  0.00    -0.389 OA
HETATM   19  C16 UNL     1      24.547   6.004  48.516  1.00  0.00     0.193 C 
HETATM   20  C17 UNL     1      23.356   5.366  49.195  1.00  0.00     0.111 C 
BRANCH  20  21
HETATM   21  N3  UNL     1      22.883   4.179  48.516  1.00  0.00    -0.383 N 
HETATM   22  H18 UNL     1      23.325   4.004  47.575  1.00  0.00     0.160 HD
BRANCH  21  23
HETATM   23  C18 UNL     1      21.919   3.209  48.913  1.00  0.00     0.030 A 
HETATM   24  C19 UNL     1      22.198   1.843  48.935  1.00  0.00     0.032 A 
HETATM   25  C20 UNL     1      21.197   0.989  49.340  1.00  0.00     0.046 A 
HETATM   26  C21 UNL     1      19.946   1.410  49.721  1.00  0.00     0.138 A 
HETATM   27  F1  UNL     1      19.084   0.453  50.088  1.00  0.00    -0.204 F 
HETATM   28  C22 UNL     1      19.655   2.750  49.705  1.00  0.00     0.074 A 
HETATM   29 CL1  UNL     1      18.065   3.273  50.190  1.00  0.00    -0.081 Cl
HETATM   30  C23 UNL     1      20.661   3.629  49.296  1.00  0.00     0.056 A 
ENDBRANCH  21  23
ENDBRANCH  20  21
ENDBRANCH  14  15
ENDBRANCH  13  14
ENDBRANCH  12  13
BRANCH   1  31
HETATM   31  O1  UNL     1      26.135   1.728  53.070  1.00  0.00    -0.353 OA
HETATM   32  C1  UNL     1      26.871   1.185  51.994  1.00  0.00     0.210 C 
ENDBRANCH   1  31
TORSDOF 6
ENDMDL
