MODEL 1
REMARK VINA RESULT:      -7.9      0.000      0.000
REMARK  2 active torsions:
REMARK  status: ('A' for Active; 'I' for Inactive)
REMARK    1  A    between atoms: C4_6  and  N3_7 
REMARK    2  A    between atoms: N3_7  and  C5_8 
ROOT
HETATM    1  C5  UNL     1      25.067   1.663  51.892  1.00  0.00     0.035 A 
HETATM    2  C6  UNL     1      23.915   0.981  52.215  1.00  0.00     0.029 A 
HETATM    3  C7  UNL     1      23.943   0.044  53.217  1.00  0.00     0.004 A 
HETATM    4  C8  UNL     1      25.076  -0.259  53.931  1.00  0.00     0.023 A 
HETATM    5  C9  UNL     1      26.244   0.422  53.615  1.00  0.00     0.046 A 
HETATM    6  C10 UNL     1      27.408   0.080  54.380  1.00  0.00     0.099 C 
HETATM    7  N4  UNL     1      28.359  -0.185  54.986  1.00  0.00    -0.191 NA
HETATM    8  C11 UNL     1      26.232   1.367  52.610  1.00  0.00     0.052 A 
ENDROOT
BRANCH   1   9
HETATM    9  N3  UNL     1      25.317   2.661  50.916  1.00  0.00    -0.339 N 
HETATM   10  H6  UNL     1      26.026   2.822  50.166  1.00  0.00     0.167 HD
BRANCH   9  11
HETATM   11  C4  UNL     1      24.327   3.705  50.999  1.00  0.00     0.155 C 
HETATM   12  N2  UNL     1      23.799   4.255  49.697  1.00  0.00    -0.214 NA
HETATM   13  C3  UNL     1      23.021   5.360  49.859  1.00  0.00     0.131 C 
HETATM   14  C2  UNL     1      21.544   5.072  50.046  1.00  0.00     0.350 C 
HETATM   15  N7  UNL     1      23.146   6.773  49.996  1.00  0.00    -0.363 N 
HETATM   16  N1  UNL     1      21.209   4.845  51.414  1.00  0.00     0.097 N 
HETATM   17  C1  UNL     1      20.041   3.980  51.433  1.00  0.00     0.310 C 
HETATM   18  C13 UNL     1      22.157   4.305  52.326  1.00  0.00     0.334 C 
HETATM   19  C12 UNL     1      23.588   4.491  51.841  1.00  0.00     0.095 C 
HETATM   20  N5  UNL     1      23.858   5.788  52.469  1.00  0.00    -0.319 N 
HETATM   21  N6  UNL     1      24.473   6.998  52.054  1.00  0.00    -0.222 NA
HETATM   22  H13 UNL     1      23.451   5.697  53.448  1.00  0.00     0.180 HD
HETATM   23  C14 UNL     1      24.293   7.357  50.683  1.00  0.00     0.232 C 
HETATM   24  H14 UNL     1      24.239   7.708  52.755  1.00  0.00     0.148 HD
HETATM   25  H17 UNL     1      22.268   7.059  49.516  1.00  0.00     0.162 HD
ENDBRANCH   9  11
ENDBRANCH   1   9
TORSDOF 2
ENDMDL
MODEL 2
REMARK VINA RESULT:      -7.8      1.908      3.235
REMARK  2 active torsions:
REMARK  status: ('A' for Active; 'I' for Inactive)
REMARK    1  A    between atoms: C4_6  and  N3_7 
REMARK    2  A    between atoms: N3_7  and  C5_8 
ROOT
HETATM    1  C5  UNL     1      21.893   0.691  52.893  1.00  0.00     0.035 A 
HETATM    2  C6  UNL     1      21.002   0.098  53.760  1.00  0.00     0.029 A 
HETATM    3  C7  UNL     1      21.465  -0.774  54.713  1.00  0.00     0.004 A 
HETATM    4  C8  UNL     1      22.792  -1.096  54.856  1.00  0.00     0.023 A 
HETATM    5  C9  UNL     1      23.700  -0.505  53.989  1.00  0.00     0.046 A 
HETATM    6  C10 UNL     1      25.078  -0.865  54.165  1.00  0.00     0.099 C 
HETATM    7  N4  UNL     1      26.194  -1.146  54.291  1.00  0.00    -0.191 NA
HETATM    8  C11 UNL     1      23.251   0.374  53.024  1.00  0.00     0.052 A 
ENDROOT
BRANCH   1   9
HETATM    9  N3  UNL     1      21.691   1.609  51.832  1.00  0.00    -0.339 N 
HETATM   10  H6  UNL     1      20.965   1.767  51.098  1.00  0.00     0.167 HD
BRANCH   9  11
HETATM   11  C4  UNL     1      22.776   2.555  51.772  1.00  0.00     0.155 C 
HETATM   12  N2  UNL     1      23.586   2.592  50.500  1.00  0.00    -0.214 NA
HETATM   13  C3  UNL     1      24.700   3.367  50.596  1.00  0.00     0.131 C 
HETATM   14  C2  UNL     1      24.496   4.820  50.211  1.00  0.00     0.350 C 
HETATM   15  N7  UNL     1      26.053   3.285  51.037  1.00  0.00    -0.363 N 
HETATM   16  N1  UNL     1      24.057   5.613  51.313  1.00  0.00     0.097 N 
HETATM   17  C1  UNL     1      23.292   6.722  50.767  1.00  0.00     0.310 C 
HETATM   18  C13 UNL     1      23.294   5.047  52.371  1.00  0.00     0.334 C 
HETATM   19  C12 UNL     1      23.454   3.535  52.446  1.00  0.00     0.095 C 
HETATM   20  N5  UNL     1      24.595   3.488  53.366  1.00  0.00    -0.319 N 
HETATM   21  N6  UNL     1      25.810   2.756  53.425  1.00  0.00    -0.222 NA
HETATM   22  H13 UNL     1      24.363   4.212  54.111  1.00  0.00     0.180 HD
HETATM   23  C14 UNL     1      26.418   2.444  52.172  1.00  0.00     0.232 C 
HETATM   24  H14 UNL     1      26.400   3.212  54.128  1.00  0.00     0.148 HD
HETATM   25  H17 UNL     1      26.485   3.938  50.351  1.00  0.00     0.162 HD
ENDBRANCH   9  11
ENDBRANCH   1   9
TORSDOF 2
ENDMDL
MODEL 3
REMARK VINA RESULT:      -7.7      3.190      6.219
REMARK  2 active torsions:
REMARK  status: ('A' for Active; 'I' for Inactive)
REMARK    1  A    between atoms: C4_6  and  N3_7 
REMARK    2  A    between atoms: N3_7  and  C5_8 
ROOT
HETATM    1  C5  UNL     1      22.997  -0.757  54.313  1.00  0.00     0.035 A 
HETATM    2  C6  UNL     1      21.733  -0.848  54.853  1.00  0.00     0.029 A 
HETATM    3  C7  UNL     1      20.660  -0.371  54.146  1.00  0.00     0.004 A 
HETATM    4  C8  UNL     1      20.773   0.205  52.905  1.00  0.00     0.023 A 
HETATM    5  C9  UNL     1      22.042   0.304  52.349  1.00  0.00     0.046 A 
HETATM    6  C10 UNL     1      22.125   0.911  51.052  1.00  0.00     0.099 C 
HETATM    7  N4  UNL     1      22.211   1.402  50.007  1.00  0.00    -0.191 NA
HETATM    8  C11 UNL     1      23.133  -0.172  53.048  1.00  0.00     0.052 A 
ENDROOT
BRANCH   1   9
HETATM    9  N3  UNL     1      24.259  -1.159  54.820  1.00  0.00    -0.339 N 
HETATM   10  H6  UNL     1      24.606  -1.853  55.518  1.00  0.00     0.167 HD
BRANCH   9  11
HETATM   11  C4  UNL     1      25.315  -0.403  54.195  1.00  0.00     0.155 C 
HETATM   12  N2  UNL     1      25.962  -1.008  52.974  1.00  0.00    -0.214 NA
HETATM   13  C3  UNL     1      27.069  -0.331  52.563  1.00  0.00     0.131 C 
HETATM   14  C2  UNL     1      26.799   0.777  51.562  1.00  0.00     0.350 C 
HETATM   15  N7  UNL     1      28.467  -0.258  52.832  1.00  0.00    -0.363 N 
HETATM   16  N1  UNL     1      26.488   2.014  52.199  1.00  0.00     0.097 N 
HETATM   17  C1  UNL     1      25.647   2.769  51.285  1.00  0.00     0.310 C 
HETATM   18  C13 UNL     1      25.868   2.050  53.478  1.00  0.00     0.334 C 
HETATM   19  C12 UNL     1      26.057   0.747  54.242  1.00  0.00     0.095 C 
HETATM   20  N5  UNL     1      27.303   1.086  54.936  1.00  0.00    -0.319 N 
HETATM   21  N6  UNL     1      28.526   0.414  55.196  1.00  0.00    -0.222 NA
HETATM   22  H13 UNL     1      27.154   2.086  55.272  1.00  0.00     0.180 HD
HETATM   23  C14 UNL     1      28.980  -0.480  54.180  1.00  0.00     0.232 C 
HETATM   24  H14 UNL     1      29.191   1.120  55.526  1.00  0.00     0.148 HD
HETATM   25  H17 UNL     1      28.802  -0.026  51.874  1.00  0.00     0.162 HD
ENDBRANCH   9  11
ENDBRANCH   1   9
TORSDOF 2
ENDMDL
MODEL 4
REMARK VINA RESULT:      -7.7      3.762      7.019
REMARK  2 active torsions:
REMARK  status: ('A' for Active; 'I' for Inactive)
REMARK    1  A    between atoms: C4_6  and  N3_7 
REMARK    2  A    between atoms: N3_7  and  C5_8 
ROOT
HETATM    1  C5  UNL     1      23.214  -0.126  53.832  1.00  0.00     0.035 A 
HETATM    2  C6  UNL     1      23.304   1.076  53.166  1.00  0.00     0.029 A 
HETATM    3  C7  UNL     1      22.178   1.624  52.606  1.00  0.00     0.004 A 
HETATM    4  C8  UNL     1      20.941   1.033  52.671  1.00  0.00     0.023 A 
HETATM    5  C9  UNL     1      20.837  -0.180  53.339  1.00  0.00     0.046 A 
HETATM    6  C10 UNL     1      19.530  -0.771  53.388  1.00  0.00     0.099 C 
HETATM    7  N4  UNL     1      18.484  -1.264  53.435  1.00  0.00    -0.191 NA
HETATM    8  C11 UNL     1      21.960  -0.745  53.909  1.00  0.00     0.052 A 
ENDROOT
BRANCH   1   9
HETATM    9  N3  UNL     1      24.200  -0.905  54.489  1.00  0.00    -0.339 N 
HETATM   10  H6  UNL     1      24.214  -1.623  55.247  1.00  0.00     0.167 HD
BRANCH   9  11
HETATM   11  C4  UNL     1      25.507  -0.617  53.953  1.00  0.00     0.155 C 
HETATM   12  N2  UNL     1      26.492   0.059  54.874  1.00  0.00    -0.214 NA
HETATM   13  C3  UNL     1      27.625   0.467  54.240  1.00  0.00     0.131 C 
HETATM   14  C2  UNL     1      28.740  -0.561  54.211  1.00  0.00     0.350 C 
HETATM   15  N7  UNL     1      28.115   1.571  53.483  1.00  0.00    -0.363 N 
HETATM   16  N1  UNL     1      28.634  -1.439  53.092  1.00  0.00     0.097 N 
HETATM   17  C1  UNL     1      29.260  -2.695  53.471  1.00  0.00     0.310 C 
HETATM   18  C13 UNL     1      27.373  -1.747  52.513  1.00  0.00     0.334 C 
HETATM   19  C12 UNL     1      26.317  -0.704  52.853  1.00  0.00     0.095 C 
HETATM   20  N5  UNL     1      26.523   0.188  51.709  1.00  0.00    -0.319 N 
HETATM   21  N6  UNL     1      26.617   1.594  51.534  1.00  0.00    -0.222 NA
HETATM   22  H13 UNL     1      26.624  -0.468  50.877  1.00  0.00     0.180 HD
HETATM   23  C14 UNL     1      27.229   2.322  52.599  1.00  0.00     0.232 C 
HETATM   24  H14 UNL     1      26.984   1.754  50.590  1.00  0.00     0.148 HD
HETATM   25  H17 UNL     1      29.109   1.547  53.790  1.00  0.00     0.162 HD
ENDBRANCH   9  11
ENDBRANCH   1   9
TORSDOF 2
ENDMDL
MODEL 5
REMARK VINA RESULT:      -7.7      3.286      6.545
REMARK  2 active torsions:
REMARK  status: ('A' for Active; 'I' for Inactive)
REMARK    1  A    between atoms: C4_6  and  N3_7 
REMARK    2  A    between atoms: N3_7  and  C5_8 
ROOT
HETATM    1  C5  UNL     1      23.613  -0.766  54.561  1.00  0.00     0.035 A 
HETATM    2  C6  UNL     1      22.360  -0.860  55.126  1.00  0.00     0.029 A 
HETATM    3  C7  UNL     1      21.288  -0.288  54.490  1.00  0.00     0.004 A 
HETATM    4  C8  UNL     1      21.392   0.386  53.298  1.00  0.00     0.023 A 
HETATM    5  C9  UNL     1      22.649   0.488  52.718  1.00  0.00     0.046 A 
HETATM    6  C10 UNL     1      22.722   1.200  51.475  1.00  0.00     0.099 C 
HETATM    7  N4  UNL     1      22.801   1.774  50.472  1.00  0.00    -0.191 NA
HETATM    8  C11 UNL     1      23.739  -0.081  53.346  1.00  0.00     0.052 A 
ENDROOT
BRANCH   1   9
HETATM    9  N3  UNL     1      24.872  -1.251  54.997  1.00  0.00    -0.339 N 
HETATM   10  H6  UNL     1      25.210  -1.967  55.678  1.00  0.00     0.167 HD
BRANCH   9  11
HETATM   11  C4  UNL     1      25.939  -0.569  54.310  1.00  0.00     0.155 C 
HETATM   12  N2  UNL     1      26.523   0.648  54.984  1.00  0.00    -0.214 NA
HETATM   13  C3  UNL     1      27.383   1.340  54.189  1.00  0.00     0.131 C 
HETATM   14  C2  UNL     1      28.832   0.900  54.290  1.00  0.00     0.350 C 
HETATM   15  N7  UNL     1      27.368   2.345  53.178  1.00  0.00    -0.363 N 
HETATM   16  N1  UNL     1      29.133  -0.169  53.395  1.00  0.00     0.097 N 
HETATM   17  C1  UNL     1      30.229  -0.923  53.980  1.00  0.00     0.310 C 
HETATM   18  C13 UNL     1      28.137  -1.102  52.997  1.00  0.00     0.334 C 
HETATM   19  C12 UNL     1      26.730  -0.553  53.192  1.00  0.00     0.095 C 
HETATM   20  N5  UNL     1      26.555   0.059  51.872  1.00  0.00    -0.319 N 
HETATM   21  N6  UNL     1      26.042   1.293  51.395  1.00  0.00    -0.222 NA
HETATM   22  H13 UNL     1      26.943  -0.663  51.193  1.00  0.00     0.180 HD
HETATM   23  C14 UNL     1      26.263   2.431  52.229  1.00  0.00     0.232 C 
HETATM   24  H14 UNL     1      26.323   1.375  50.413  1.00  0.00     0.148 HD
HETATM   25  H17 UNL     1      28.271   2.812  53.403  1.00  0.00     0.162 HD
ENDBRANCH   9  11
ENDBRANCH   1   9
TORSDOF 2
ENDMDL
MODEL 6
REMARK VINA RESULT:      -7.7      1.872      2.616
REMARK  2 active torsions:
REMARK  status: ('A' for Active; 'I' for Inactive)
REMARK    1  A    between atoms: C4_6  and  N3_7 
REMARK    2  A    between atoms: N3_7  and  C5_8 
ROOT
HETATM    1  C5  UNL     1      25.947   1.210  53.388  1.00  0.00     0.035 A 
HETATM    2  C6  UNL     1      26.794   2.289  53.518  1.00  0.00     0.029 A 
HETATM    3  C7  UNL     1      28.148   2.081  53.582  1.00  0.00     0.004 A 
HETATM    4  C8  UNL     1      28.721   0.835  53.523  1.00  0.00     0.023 A 
HETATM    5  C9  UNL     1      27.879  -0.261  53.393  1.00  0.00     0.046 A 
HETATM    6  C10 UNL     1      28.510  -1.548  53.336  1.00  0.00     0.099 C 
HETATM    7  N4  UNL     1      29.002  -2.595  53.291  1.00  0.00    -0.191 NA
HETATM    8  C11 UNL     1      26.513  -0.069  53.327  1.00  0.00     0.052 A 
ENDROOT
BRANCH   1   9
HETATM    9  N3  UNL     1      24.533   1.139  53.305  1.00  0.00    -0.339 N 
HETATM   10  H6  UNL     1      23.780   0.562  53.740  1.00  0.00     0.167 HD
BRANCH   9  11
HETATM   11  C4  UNL     1      24.034   2.125  52.380  1.00  0.00     0.155 C 
HETATM   12  N2  UNL     1      23.599   1.633  51.021  1.00  0.00    -0.214 NA
HETATM   13  C3  UNL     1      23.326   2.641  50.149  1.00  0.00     0.131 C 
HETATM   14  C2  UNL     1      21.885   3.116  50.161  1.00  0.00     0.350 C 
HETATM   15  N7  UNL     1      23.995   3.503  49.231  1.00  0.00    -0.363 N 
HETATM   16  N1  UNL     1      21.660   4.130  51.138  1.00  0.00     0.097 N 
HETATM   17  C1  UNL     1      20.263   4.047  51.530  1.00  0.00     0.310 C 
HETATM   18  C13 UNL     1      22.436   4.193  52.328  1.00  0.00     0.334 C 
HETATM   19  C12 UNL     1      23.758   3.452  52.189  1.00  0.00     0.095 C 
HETATM   20  N5  UNL     1      24.577   4.568  51.705  1.00  0.00    -0.319 N 
HETATM   21  N6  UNL     1      25.550   4.733  50.685  1.00  0.00    -0.222 NA
HETATM   22  H13 UNL     1      24.290   5.390  52.316  1.00  0.00     0.180 HD
HETATM   23  C14 UNL     1      25.353   3.965  49.497  1.00  0.00     0.232 C 
HETATM   24  H14 UNL     1      25.692   5.742  50.568  1.00  0.00     0.148 HD
HETATM   25  H17 UNL     1      23.240   3.597  48.521  1.00  0.00     0.162 HD
ENDBRANCH   9  11
ENDBRANCH   1   9
TORSDOF 2
ENDMDL
MODEL 7
REMARK VINA RESULT:      -7.6      3.221      6.401
REMARK  2 active torsions:
REMARK  status: ('A' for Active; 'I' for Inactive)
REMARK    1  A    between atoms: C4_6  and  N3_7 
REMARK    2  A    between atoms: N3_7  and  C5_8 
ROOT
HETATM    1  C5  UNL     1      23.196   1.560  52.880  1.00  0.00     0.035 A 
HETATM    2  C6  UNL     1      22.370   0.613  53.445  1.00  0.00     0.029 A 
HETATM    3  C7  UNL     1      21.440  -0.025  52.664  1.00  0.00     0.004 A 
HETATM    4  C8  UNL     1      21.280   0.230  51.325  1.00  0.00     0.023 A 
HETATM    5  C9  UNL     1      22.105   1.183  50.743  1.00  0.00     0.046 A 
HETATM    6  C10 UNL     1      21.911   1.426  49.342  1.00  0.00     0.099 C 
HETATM    7  N4  UNL     1      21.766   1.638  48.213  1.00  0.00    -0.191 NA
HETATM    8  C11 UNL     1      23.047   1.834  51.515  1.00  0.00     0.052 A 
ENDROOT
BRANCH   1   9
HETATM    9  N3  UNL     1      24.222   2.359  53.444  1.00  0.00    -0.339 N 
HETATM   10  H6  UNL     1      24.286   3.301  53.890  1.00  0.00     0.167 HD
BRANCH   9  11
HETATM   11  C4  UNL     1      25.488   1.675  53.375  1.00  0.00     0.155 C 
HETATM   12  N2  UNL     1      26.012   1.069  54.654  1.00  0.00    -0.214 NA
HETATM   13  C3  UNL     1      27.290   0.615  54.547  1.00  0.00     0.131 C 
HETATM   14  C2  UNL     1      27.414  -0.832  54.107  1.00  0.00     0.350 C 
HETATM   15  N7  UNL     1      28.630   1.092  54.641  1.00  0.00    -0.363 N 
HETATM   16  N1  UNL     1      27.430  -0.962  52.687  1.00  0.00     0.097 N 
HETATM   17  C1  UNL     1      26.901  -2.279  52.370  1.00  0.00     0.310 C 
HETATM   18  C13 UNL     1      26.766  -0.023  51.851  1.00  0.00     0.334 C 
HETATM   19  C12 UNL     1      26.524   1.303  52.561  1.00  0.00     0.095 C 
HETATM   20  N5  UNL     1      27.767   1.978  52.179  1.00  0.00    -0.319 N 
HETATM   21  N6  UNL     1      28.726   2.778  52.853  1.00  0.00    -0.222 NA
HETATM   22  H13 UNL     1      27.890   1.742  51.148  1.00  0.00     0.180 HD
HETATM   23  C14 UNL     1      28.970   2.448  54.221  1.00  0.00     0.232 C 
HETATM   24  H14 UNL     1      29.544   2.847  52.239  1.00  0.00     0.148 HD
HETATM   25  H17 UNL     1      29.079   0.236  55.026  1.00  0.00     0.162 HD
ENDBRANCH   9  11
ENDBRANCH   1   9
TORSDOF 2
ENDMDL
MODEL 8
REMARK VINA RESULT:      -7.5      2.770      4.612
REMARK  2 active torsions:
REMARK  status: ('A' for Active; 'I' for Inactive)
REMARK    1  A    between atoms: C4_6  and  N3_7 
REMARK    2  A    between atoms: N3_7  and  C5_8 
ROOT
HETATM    1  C5  UNL     1      22.037   0.588  51.974  1.00  0.00     0.035 A 
HETATM    2  C6  UNL     1      22.912   0.119  52.928  1.00  0.00     0.029 A 
HETATM    3  C7  UNL     1      22.434  -0.630  53.974  1.00  0.00     0.004 A 
HETATM    4  C8  UNL     1      21.107  -0.946  54.127  1.00  0.00     0.023 A 
HETATM    5  C9  UNL     1      20.214  -0.479  53.172  1.00  0.00     0.046 A 
HETATM    6  C10 UNL     1      18.835  -0.826  53.363  1.00  0.00     0.099 C 
HETATM    7  N4  UNL     1      17.718  -1.094  53.503  1.00  0.00    -0.191 NA
HETATM    8  C11 UNL     1      20.679   0.277  52.114  1.00  0.00     0.052 A 
ENDROOT
BRANCH   1   9
HETATM    9  N3  UNL     1      22.256   1.374  50.814  1.00  0.00    -0.339 N 
HETATM   10  H6  UNL     1      21.890   1.394  49.836  1.00  0.00     0.167 HD
BRANCH   9  11
HETATM   11  C4  UNL     1      23.232   2.400  51.078  1.00  0.00     0.155 C 
HETATM   12  N2  UNL     1      24.186   2.744  49.961  1.00  0.00    -0.214 NA
HETATM   13  C3  UNL     1      25.190   3.575  50.351  1.00  0.00     0.131 C 
HETATM   14  C2  UNL     1      24.882   5.053  50.203  1.00  0.00     0.350 C 
HETATM   15  N7  UNL     1      26.479   3.522  50.959  1.00  0.00    -0.363 N 
HETATM   16  N1  UNL     1      24.227   5.583  51.353  1.00  0.00     0.097 N 
HETATM   17  C1  UNL     1      23.423   6.710  50.909  1.00  0.00     0.310 C 
HETATM   18  C13 UNL     1      23.401   4.767  52.175  1.00  0.00     0.334 C 
HETATM   19  C12 UNL     1      23.711   3.286  52.005  1.00  0.00     0.095 C 
HETATM   20  N5  UNL     1      24.726   3.160  53.055  1.00  0.00    -0.319 N 
HETATM   21  N6  UNL     1      25.995   2.532  53.157  1.00  0.00    -0.222 NA
HETATM   22  H13 UNL     1      24.327   3.707  53.876  1.00  0.00     0.180 HD
HETATM   23  C14 UNL     1      26.786   2.513  51.968  1.00  0.00     0.232 C 
HETATM   24  H14 UNL     1      26.441   2.893  54.007  1.00  0.00     0.148 HD
HETATM   25  H17 UNL     1      26.921   4.326  50.468  1.00  0.00     0.162 HD
ENDBRANCH   9  11
ENDBRANCH   1   9
TORSDOF 2
ENDMDL
MODEL 9
REMARK VINA RESULT:      -7.5      2.054      2.399
REMARK  2 active torsions:
REMARK  status: ('A' for Active; 'I' for Inactive)
REMARK    1  A    between atoms: C4_6  and  N3_7 
REMARK    2  A    between atoms: N3_7  and  C5_8 
ROOT
HETATM    1  C5  UNL     1      23.417   1.558  51.847  1.00  0.00     0.035 A 
HETATM    2  C6  UNL     1      22.335   1.264  51.046  1.00  0.00     0.029 A 
HETATM    3  C7  UNL     1      21.458   0.282  51.429  1.00  0.00     0.004 A 
HETATM    4  C8  UNL     1      21.597  -0.441  52.588  1.00  0.00     0.023 A 
HETATM    5  C9  UNL     1      22.683  -0.155  53.404  1.00  0.00     0.046 A 
HETATM    6  C10 UNL     1      22.800  -0.929  54.607  1.00  0.00     0.099 C 
HETATM    7  N4  UNL     1      22.911  -1.547  55.580  1.00  0.00    -0.191 NA
HETATM    8  C11 UNL     1      23.576   0.831  53.033  1.00  0.00     0.052 A 
ENDROOT
BRANCH   1   9
HETATM    9  N3  UNL     1      24.462   2.503  51.693  1.00  0.00    -0.339 N 
HETATM   10  H6  UNL     1      25.496   2.515  51.834  1.00  0.00     0.167 HD
BRANCH   9  11
HETATM   11  C4  UNL     1      23.938   3.759  51.219  1.00  0.00     0.155 C 
HETATM   12  N2  UNL     1      24.011   4.017  49.734  1.00  0.00    -0.214 NA
HETATM   13  C3  UNL     1      23.677   5.292  49.395  1.00  0.00     0.131 C 
HETATM   14  C2  UNL     1      22.204   5.505  49.104  1.00  0.00     0.350 C 
HETATM   15  N7  UNL     1      24.269   6.585  49.290  1.00  0.00    -0.363 N 
HETATM   16  N1  UNL     1      21.461   5.806  50.284  1.00  0.00     0.097 N 
HETATM   17  C1  UNL     1      20.097   5.354  50.060  1.00  0.00     0.310 C 
HETATM   18  C13 UNL     1      21.868   5.321  51.557  1.00  0.00     0.334 C 
HETATM   19  C12 UNL     1      23.342   4.938  51.578  1.00  0.00     0.095 C 
HETATM   20  N5  UNL     1      23.891   6.231  51.996  1.00  0.00    -0.319 N 
HETATM   21  N6  UNL     1      24.991   7.034  51.597  1.00  0.00    -0.222 NA
HETATM   22  H13 UNL     1      23.235   6.559  52.769  1.00  0.00     0.180 HD
HETATM   23  C14 UNL     1      25.324   6.999  50.209  1.00  0.00     0.232 C 
HETATM   24  H14 UNL     1      24.857   7.958  52.019  1.00  0.00     0.148 HD
HETATM   25  H17 UNL     1      23.716   6.949  48.486  1.00  0.00     0.162 HD
ENDBRANCH   9  11
ENDBRANCH   1   9
TORSDOF 2
ENDMDL
