MODEL 1
REMARK VINA RESULT:      -8.4      0.000      0.000
REMARK  5 active torsions:
REMARK  status: ('A' for Active; 'I' for Inactive)
REMARK    1  A    between atoms: N1_7  and  C7_8 
REMARK    2  A    between atoms: N2_9  and  C8_10 
REMARK    3  A    between atoms: C8_10  and  C9_11 
REMARK    4  A    between atoms: C14_17  and  N3_18 
REMARK    5  A    between atoms: C17_22  and  N5_23 
ROOT
HETATM    1  C1  UNL     1      20.263   1.423  50.578  1.00  0.00     0.010 C 
HETATM    2  C2  UNL     1      20.351   1.786  52.001  1.00  0.00    -0.014 C 
HETATM    3  C3  UNL     1      20.497   0.779  53.051  1.00  0.00     0.004 C 
HETATM    4  C4  UNL     1      21.668  -0.094  53.211  1.00  0.00     0.002 C 
HETATM    5  C5  UNL     1      22.970   0.688  53.292  1.00  0.00     0.020 C 
HETATM    6  C6  UNL     1      23.511   0.965  51.915  1.00  0.00     0.127 C 
HETATM    7  N1  UNL     1      24.406   2.087  51.883  1.00  0.00    -0.331 N 
HETATM    8  C14 UNL     1      23.792   3.429  51.996  1.00  0.00     0.315 A 
HETATM    9  C15 UNL     1      22.327   3.426  51.774  1.00  0.00     0.004 A 
HETATM   10  C16 UNL     1      22.118   4.068  50.575  1.00  0.00     0.126 A 
HETATM   11  N4  UNL     1      23.327   4.526  49.952  1.00  0.00    -0.243 NA
HETATM   12  C17 UNL     1      24.288   4.173  50.754  1.00  0.00     0.162 A 
HETATM   13  C18 UNL     1      21.006   3.096  52.346  1.00  0.00     0.045 C 
ENDROOT
BRANCH   7  14
HETATM   14  C7  UNL     1      25.821   2.027  51.754  1.00  0.00     0.201 C 
HETATM   15  N2  UNL     1      26.328   1.958  52.920  1.00  0.00    -0.281 NA
BRANCH  15  16
HETATM   16  C8  UNL     1      27.677   1.881  53.311  1.00  0.00     0.184 C 
BRANCH  16  17
HETATM   17  C9  UNL     1      28.267   0.536  53.330  1.00  0.00    -0.054 A 
HETATM   18  C10 UNL     1      29.527   0.461  53.718  1.00  0.00     0.007 A 
HETATM   19  C11 UNL     1      29.978  -0.948  53.683  1.00  0.00     0.038 A 
HETATM   20  C12 UNL     1      28.933  -1.648  53.267  1.00  0.00     0.098 A 
HETATM   21  F1  UNL     1      28.659  -2.967  53.015  1.00  0.00    -0.211 F 
HETATM   22  C13 UNL     1      27.718  -0.799  52.991  1.00  0.00     0.106 A 
ENDBRANCH  16  17
ENDBRANCH  15  16
ENDBRANCH   7  14
BRANCH   8  23
HETATM   23  N3  UNL     1      24.227   4.137  53.144  1.00  0.00     0.120 N 
HETATM   24  H20 UNL     1      24.044   3.617  54.033  1.00  0.00     0.317 HD
HETATM   25  H21 UNL     1      25.210   4.493  53.087  1.00  0.00     0.317 HD
ENDBRANCH   8  23
BRANCH  12  26
HETATM   26  N5  UNL     1      25.727   4.307  50.771  1.00  0.00    -0.383 N 
HETATM   27  H23 UNL     1      26.437   3.625  50.370  1.00  0.00     0.157 HD
HETATM   28  H24 UNL     1      26.394   5.022  51.137  1.00  0.00     0.157 HD
ENDBRANCH  12  26
TORSDOF 5
ENDMDL
MODEL 2
REMARK VINA RESULT:      -7.8      1.468      2.267
REMARK  5 active torsions:
REMARK  status: ('A' for Active; 'I' for Inactive)
REMARK    1  A    between atoms: N1_7  and  C7_8 
REMARK    2  A    between atoms: N2_9  and  C8_10 
REMARK    3  A    between atoms: C8_10  and  C9_11 
REMARK    4  A    between atoms: C14_17  and  N3_18 
REMARK    5  A    between atoms: C17_22  and  N5_23 
ROOT
HETATM    1  C1  UNL     1      21.097   4.570  49.355  1.00  0.00     0.010 C 
HETATM    2  C2  UNL     1      20.902   4.772  50.800  1.00  0.00    -0.014 C 
HETATM    3  C3  UNL     1      19.937   3.988  51.569  1.00  0.00     0.004 C 
HETATM    4  C4  UNL     1      20.032   2.539  51.795  1.00  0.00     0.002 C 
HETATM    5  C5  UNL     1      21.370   2.129  52.388  1.00  0.00     0.020 C 
HETATM    6  C6  UNL     1      22.389   1.908  51.303  1.00  0.00     0.127 C 
HETATM    7  N1  UNL     1      23.740   2.025  51.774  1.00  0.00    -0.331 N 
HETATM    8  C14 UNL     1      24.226   3.394  52.059  1.00  0.00     0.315 A 
HETATM    9  C15 UNL     1      23.367   4.456  51.486  1.00  0.00     0.004 A 
HETATM   10  C16 UNL     1      24.094   5.033  50.470  1.00  0.00     0.126 A 
HETATM   11  N4  UNL     1      25.398   4.460  50.302  1.00  0.00    -0.243 NA
HETATM   12  C17 UNL     1      25.489   3.528  51.204  1.00  0.00     0.162 A 
HETATM   13  C18 UNL     1      22.096   5.198  51.611  1.00  0.00     0.045 C 
ENDROOT
BRANCH   7  14
HETATM   14  C7  UNL     1      24.648   0.954  51.991  1.00  0.00     0.201 C 
HETATM   15  N2  UNL     1      24.484   0.521  53.177  1.00  0.00    -0.281 NA
BRANCH  15  16
HETATM   16  C8  UNL     1      25.142  -0.522  53.854  1.00  0.00     0.184 C 
BRANCH  16  17
HETATM   17  C9  UNL     1      26.609  -0.459  53.864  1.00  0.00    -0.054 A 
HETATM   18  C10 UNL     1      27.151   0.270  54.822  1.00  0.00     0.007 A 
HETATM   19  C11 UNL     1      28.627   0.238  54.701  1.00  0.00     0.038 A 
HETATM   20  C12 UNL     1      28.882  -0.530  53.652  1.00  0.00     0.098 A 
HETATM   21  F1  UNL     1      30.002  -0.972  52.996  1.00  0.00    -0.211 F 
HETATM   22  C13 UNL     1      27.640  -1.069  52.989  1.00  0.00     0.106 A 
ENDBRANCH  16  17
ENDBRANCH  15  16
ENDBRANCH   7  14
BRANCH   8  23
HETATM   23  N3  UNL     1      24.586   3.576  53.418  1.00  0.00     0.120 N 
HETATM   24  H20 UNL     1      25.188   2.802  53.784  1.00  0.00     0.317 HD
HETATM   25  H21 UNL     1      24.975   4.522  53.640  1.00  0.00     0.317 HD
ENDBRANCH   8  23
BRANCH  12  26
HETATM   26  N5  UNL     1      26.494   2.573  51.612  1.00  0.00    -0.383 N 
HETATM   27  H23 UNL     1      26.427   1.879  52.414  1.00  0.00     0.157 HD
HETATM   28  H24 UNL     1      27.451   2.325  51.277  1.00  0.00     0.157 HD
ENDBRANCH  12  26
TORSDOF 5
ENDMDL
MODEL 3
REMARK VINA RESULT:      -7.7      3.431      6.020
REMARK  5 active torsions:
REMARK  status: ('A' for Active; 'I' for Inactive)
REMARK    1  A    between atoms: N1_7  and  C7_8 
REMARK    2  A    between atoms: N2_9  and  C8_10 
REMARK    3  A    between atoms: C8_10  and  C9_11 
REMARK    4  A    between atoms: C14_17  and  N3_18 
REMARK    5  A    between atoms: C17_22  and  N5_23 
ROOT
HETATM    1  C1  UNL     1      26.217  -1.265  53.225  1.00  0.00     0.010 C 
HETATM    2  C2  UNL     1      26.431  -0.083  54.075  1.00  0.00    -0.014 C 
HETATM    3  C3  UNL     1      27.735   0.570  54.182  1.00  0.00     0.004 C 
HETATM    4  C4  UNL     1      28.416   1.255  53.075  1.00  0.00     0.002 C 
HETATM    5  C5  UNL     1      27.544   2.317  52.423  1.00  0.00     0.020 C 
HETATM    6  C6  UNL     1      26.673   1.709  51.356  1.00  0.00     0.127 C 
HETATM    7  N1  UNL     1      25.508   2.498  51.070  1.00  0.00    -0.331 N 
HETATM    8  C14 UNL     1      24.425   2.471  52.079  1.00  0.00     0.315 A 
HETATM    9  C15 UNL     1      24.559   1.366  53.057  1.00  0.00     0.004 A 
HETATM   10  C16 UNL     1      23.538   0.485  52.783  1.00  0.00     0.126 A 
HETATM   11  N4  UNL     1      22.699   0.900  51.697  1.00  0.00    -0.243 NA
HETATM   12  C17 UNL     1      23.190   2.033  51.289  1.00  0.00     0.162 A 
HETATM   13  C18 UNL     1      25.279   0.869  54.246  1.00  0.00     0.045 C 
ENDROOT
BRANCH   7  14
HETATM   14  C7  UNL     1      25.301   3.299  49.914  1.00  0.00     0.201 C 
HETATM   15  N2  UNL     1      25.761   4.465  50.145  1.00  0.00    -0.281 NA
BRANCH  15  16
HETATM   16  C8  UNL     1      25.790   5.600  49.316  1.00  0.00     0.184 C 
BRANCH  16  17
HETATM   17  C9  UNL     1      27.079   5.904  48.682  1.00  0.00    -0.054 A 
HETATM   18  C10 UNL     1      27.188   7.098  48.131  1.00  0.00     0.007 A 
HETATM   19  C11 UNL     1      28.535   7.254  47.536  1.00  0.00     0.038 A 
HETATM   20  C12 UNL     1      29.165   6.114  47.776  1.00  0.00     0.098 A 
HETATM   21  F1  UNL     1      30.405   5.592  47.511  1.00  0.00    -0.211 F 
HETATM   22  C13 UNL     1      28.327   5.115  48.531  1.00  0.00     0.106 A 
ENDBRANCH  16  17
ENDBRANCH  15  16
ENDBRANCH   7  14
BRANCH   8  23
HETATM   23  N3  UNL     1      24.166   3.746  52.640  1.00  0.00     0.120 N 
HETATM   24  H20 UNL     1      24.884   4.459  52.374  1.00  0.00     0.317 HD
HETATM   25  H21 UNL     1      23.189   4.093  52.497  1.00  0.00     0.317 HD
ENDBRANCH   8  23
BRANCH  12  26
HETATM   26  N5  UNL     1      22.861   2.998  50.265  1.00  0.00    -0.383 N 
HETATM   27  H23 UNL     1      22.287   2.828  49.387  1.00  0.00     0.157 HD
HETATM   28  H24 UNL     1      23.067   4.011  50.116  1.00  0.00     0.157 HD
ENDBRANCH  12  26
TORSDOF 5
ENDMDL
MODEL 4
REMARK VINA RESULT:      -7.6      1.976      4.208
REMARK  5 active torsions:
REMARK  status: ('A' for Active; 'I' for Inactive)
REMARK    1  A    between atoms: N1_7  and  C7_8 
REMARK    2  A    between atoms: N2_9  and  C8_10 
REMARK    3  A    between atoms: C8_10  and  C9_11 
REMARK    4  A    between atoms: C14_17  and  N3_18 
REMARK    5  A    between atoms: C17_22  and  N5_23 
ROOT
HETATM    1  C1  UNL     1      25.612   7.163  50.447  1.00  0.00     0.010 C 
HETATM    2  C2  UNL     1      25.432   6.460  49.166  1.00  0.00    -0.014 C 
HETATM    3  C3  UNL     1      26.556   5.861  48.446  1.00  0.00     0.004 C 
HETATM    4  C4  UNL     1      27.357   4.733  48.942  1.00  0.00     0.002 C 
HETATM    5  C5  UNL     1      26.502   3.534  49.319  1.00  0.00     0.020 C 
HETATM    6  C6  UNL     1      26.010   3.655  50.737  1.00  0.00     0.127 C 
HETATM    7  N1  UNL     1      24.833   2.872  50.988  1.00  0.00    -0.331 N 
HETATM    8  C14 UNL     1      23.565   3.383  50.422  1.00  0.00     0.315 A 
HETATM    9  C15 UNL     1      23.642   4.796  49.983  1.00  0.00     0.004 A 
HETATM   10  C16 UNL     1      22.865   5.514  50.862  1.00  0.00     0.126 A 
HETATM   11  N4  UNL     1      22.246   4.706  51.873  1.00  0.00    -0.243 NA
HETATM   12  C17 UNL     1      22.632   3.488  51.631  1.00  0.00     0.162 A 
HETATM   13  C18 UNL     1      24.136   5.728  48.950  1.00  0.00     0.045 C 
ENDROOT
BRANCH   7  14
HETATM   14  C7  UNL     1      24.776   1.659  51.726  1.00  0.00     0.201 C 
HETATM   15  N2  UNL     1      25.540   1.767  52.739  1.00  0.00    -0.281 NA
BRANCH  15  16
HETATM   16  C8  UNL     1      25.818   0.840  53.759  1.00  0.00     0.184 C 
BRANCH  16  17
HETATM   17  C9  UNL     1      27.079   0.098  53.631  1.00  0.00    -0.054 A 
HETATM   18  C10 UNL     1      28.165   0.725  54.042  1.00  0.00     0.007 A 
HETATM   19  C11 UNL     1      29.348  -0.144  53.849  1.00  0.00     0.038 A 
HETATM   20  C12 UNL     1      28.885  -1.267  53.322  1.00  0.00     0.098 A 
HETATM   21  F1  UNL     1      29.416  -2.459  52.904  1.00  0.00    -0.211 F 
HETATM   22  C13 UNL     1      27.391  -1.258  53.117  1.00  0.00     0.106 A 
ENDBRANCH  16  17
ENDBRANCH  15  16
ENDBRANCH   7  14
BRANCH   8  23
HETATM   23  N3  UNL     1      22.984   2.491  49.486  1.00  0.00     0.120 N 
HETATM   24  H20 UNL     1      22.300   1.832  49.927  1.00  0.00     0.317 HD
HETATM   25  H21 UNL     1      22.597   2.951  48.629  1.00  0.00     0.317 HD
ENDBRANCH   8  23
BRANCH  12  26
HETATM   26  N5  UNL     1      22.400   2.189  52.220  1.00  0.00    -0.383 N 
HETATM   27  H23 UNL     1      22.172   1.981  53.237  1.00  0.00     0.157 HD
HETATM   28  H24 UNL     1      22.391   1.209  51.859  1.00  0.00     0.157 HD
ENDBRANCH  12  26
TORSDOF 5
ENDMDL
MODEL 5
REMARK VINA RESULT:      -7.5      1.958      3.823
REMARK  5 active torsions:
REMARK  status: ('A' for Active; 'I' for Inactive)
REMARK    1  A    between atoms: N1_7  and  C7_8 
REMARK    2  A    between atoms: N2_9  and  C8_10 
REMARK    3  A    between atoms: C8_10  and  C9_11 
REMARK    4  A    between atoms: C14_17  and  N3_18 
REMARK    5  A    between atoms: C17_22  and  N5_23 
ROOT
HETATM    1  C1  UNL     1      22.394   6.424  50.440  1.00  0.00     0.010 C 
HETATM    2  C2  UNL     1      22.643   5.422  49.391  1.00  0.00    -0.014 C 
HETATM    3  C3  UNL     1      23.988   5.142  48.890  1.00  0.00     0.004 C 
HETATM    4  C4  UNL     1      25.071   4.557  49.692  1.00  0.00     0.002 C 
HETATM    5  C5  UNL     1      24.663   3.250  50.354  1.00  0.00     0.020 C 
HETATM    6  C6  UNL     1      23.985   3.509  51.673  1.00  0.00     0.127 C 
HETATM    7  N1  UNL     1      23.146   2.422  52.092  1.00  0.00    -0.331 N 
HETATM    8  C14 UNL     1      21.861   2.262  51.374  1.00  0.00     0.315 A 
HETATM    9  C15 UNL     1      21.480   3.450  50.575  1.00  0.00     0.004 A 
HETATM   10  C16 UNL     1      20.393   4.007  51.207  1.00  0.00     0.126 A 
HETATM   11  N4  UNL     1      19.982   3.290  52.379  1.00  0.00    -0.243 NA
HETATM   12  C17 UNL     1      20.807   2.290  52.484  1.00  0.00     0.162 A 
HETATM   13  C18 UNL     1      21.734   4.225  49.343  1.00  0.00     0.045 C 
ENDROOT
BRANCH   7  14
HETATM   14  C7  UNL     1      23.434   1.491  53.126  1.00  0.00     0.201 C 
HETATM   15  N2  UNL     1      24.192   0.584  52.651  1.00  0.00    -0.281 NA
BRANCH  15  16
HETATM   16  C8  UNL     1      24.744  -0.547  53.279  1.00  0.00     0.184 C 
BRANCH  16  17
HETATM   17  C9  UNL     1      26.196  -0.519  53.497  1.00  0.00    -0.054 A 
HETATM   18  C10 UNL     1      26.614   0.188  54.531  1.00  0.00     0.007 A 
HETATM   19  C11 UNL     1      28.090   0.122  54.618  1.00  0.00     0.038 A 
HETATM   20  C12 UNL     1      28.474  -0.642  53.607  1.00  0.00     0.098 A 
HETATM   21  F1  UNL     1      29.665  -1.104  53.109  1.00  0.00    -0.211 F 
HETATM   22  C13 UNL     1      27.326  -1.145  52.768  1.00  0.00     0.106 A 
ENDBRANCH  16  17
ENDBRANCH  15  16
ENDBRANCH   7  14
BRANCH   8  23
HETATM   23  N3  UNL     1      21.762   1.021  50.697  1.00  0.00     0.120 N 
HETATM   24  H20 UNL     1      20.970   0.995  50.015  1.00  0.00     0.317 HD
HETATM   25  H21 UNL     1      22.660   0.683  50.278  1.00  0.00     0.317 HD
ENDBRANCH   8  23
BRANCH  12  26
HETATM   26  N5  UNL     1      20.984   1.181  53.394  1.00  0.00    -0.383 N 
HETATM   27  H23 UNL     1      21.324   1.229  54.400  1.00  0.00     0.157 HD
HETATM   28  H24 UNL     1      20.845   0.148  53.330  1.00  0.00     0.157 HD
ENDBRANCH  12  26
TORSDOF 5
ENDMDL
MODEL 6
REMARK VINA RESULT:      -7.4      3.380      5.673
REMARK  5 active torsions:
REMARK  status: ('A' for Active; 'I' for Inactive)
REMARK    1  A    between atoms: N1_7  and  C7_8 
REMARK    2  A    between atoms: N2_9  and  C8_10 
REMARK    3  A    between atoms: C8_10  and  C9_11 
REMARK    4  A    between atoms: C14_17  and  N3_18 
REMARK    5  A    between atoms: C17_22  and  N5_23 
ROOT
HETATM    1  C1  UNL     1      25.820   7.177  50.252  1.00  0.00     0.010 C 
HETATM    2  C2  UNL     1      25.663   6.352  49.044  1.00  0.00    -0.014 C 
HETATM    3  C3  UNL     1      26.572   5.249  48.735  1.00  0.00     0.004 C 
HETATM    4  C4  UNL     1      26.702   4.027  49.541  1.00  0.00     0.002 C 
HETATM    5  C5  UNL     1      25.368   3.332  49.764  1.00  0.00     0.020 C 
HETATM    6  C6  UNL     1      24.662   3.906  50.963  1.00  0.00     0.127 C 
HETATM    7  N1  UNL     1      23.244   3.683  50.935  1.00  0.00    -0.331 N 
HETATM    8  C14 UNL     1      22.463   4.505  49.984  1.00  0.00     0.315 A 
HETATM    9  C15 UNL     1      23.212   5.671  49.459  1.00  0.00     0.004 A 
HETATM   10  C16 UNL     1      22.623   6.786  50.009  1.00  0.00     0.126 A 
HETATM   11  N4  UNL     1      21.514   6.484  50.867  1.00  0.00    -0.243 NA
HETATM   12  C17 UNL     1      21.408   5.188  50.859  1.00  0.00     0.162 A 
HETATM   13  C18 UNL     1      24.267   6.127  48.531  1.00  0.00     0.045 C 
ENDROOT
BRANCH   7  14
HETATM   14  C7  UNL     1      22.526   2.751  51.732  1.00  0.00     0.201 C 
HETATM   15  N2  UNL     1      22.338   1.695  51.045  1.00  0.00    -0.281 NA
BRANCH  15  16
HETATM   16  C8  UNL     1      21.682   0.501  51.393  1.00  0.00     0.184 C 
BRANCH  16  17
HETATM   17  C9  UNL     1      22.012  -0.056  52.711  1.00  0.00    -0.054 A 
HETATM   18  C10 UNL     1      21.010  -0.156  53.565  1.00  0.00     0.007 A 
HETATM   19  C11 UNL     1      21.496  -0.729  54.841  1.00  0.00     0.038 A 
HETATM   20  C12 UNL     1      22.791  -0.943  54.667  1.00  0.00     0.098 A 
HETATM   21  F1  UNL     1      23.825  -1.439  55.418  1.00  0.00    -0.211 F 
HETATM   22  C13 UNL     1      23.284  -0.545  53.298  1.00  0.00     0.106 A 
ENDBRANCH  16  17
ENDBRANCH  15  16
ENDBRANCH   7  14
BRANCH   8  23
HETATM   23  N3  UNL     1      21.795   3.727  49.006  1.00  0.00     0.120 N 
HETATM   24  H20 UNL     1      22.370   3.581  48.144  1.00  0.00     0.317 HD
HETATM   25  H21 UNL     1      21.387   2.833  49.368  1.00  0.00     0.317 HD
ENDBRANCH   8  23
BRANCH  12  26
HETATM   26  N5  UNL     1      20.535   4.213  51.472  1.00  0.00    -0.383 N 
HETATM   27  H23 UNL     1      19.629   4.406  51.992  1.00  0.00     0.157 HD
HETATM   28  H24 UNL     1      20.546   3.173  51.567  1.00  0.00     0.157 HD
ENDBRANCH  12  26
TORSDOF 5
ENDMDL
MODEL 7
REMARK VINA RESULT:      -7.4      4.164      5.969
REMARK  5 active torsions:
REMARK  status: ('A' for Active; 'I' for Inactive)
REMARK    1  A    between atoms: N1_7  and  C7_8 
REMARK    2  A    between atoms: N2_9  and  C8_10 
REMARK    3  A    between atoms: C8_10  and  C9_11 
REMARK    4  A    between atoms: C14_17  and  N3_18 
REMARK    5  A    between atoms: C17_22  and  N5_23 
ROOT
HETATM    1  C1  UNL     1      23.030   1.180  51.894  1.00  0.00     0.010 C 
HETATM    2  C2  UNL     1      24.062   1.835  52.714  1.00  0.00    -0.014 C 
HETATM    3  C3  UNL     1      25.484   1.528  52.562  1.00  0.00     0.004 C 
HETATM    4  C4  UNL     1      26.273   1.813  51.356  1.00  0.00     0.002 C 
HETATM    5  C5  UNL     1      26.182   3.270  50.932  1.00  0.00     0.020 C 
HETATM    6  C6  UNL     1      24.979   3.496  50.055  1.00  0.00     0.127 C 
HETATM    7  N1  UNL     1      24.546   4.865  50.043  1.00  0.00    -0.331 N 
HETATM    8  C14 UNL     1      23.850   5.351  51.255  1.00  0.00     0.315 A 
HETATM    9  C15 UNL     1      23.399   4.262  52.152  1.00  0.00     0.004 A 
HETATM   10  C16 UNL     1      22.025   4.244  52.075  1.00  0.00     0.126 A 
HETATM   11  N4  UNL     1      21.488   5.246  51.200  1.00  0.00    -0.243 NA
HETATM   12  C17 UNL     1      22.517   5.888  50.730  1.00  0.00     0.162 A 
HETATM   13  C18 UNL     1      23.808   3.252  53.149  1.00  0.00     0.045 C 
ENDROOT
BRANCH   7  14
HETATM   14  C7  UNL     1      24.725   5.790  48.979  1.00  0.00     0.201 C 
HETATM   15  N2  UNL     1      25.922   6.223  49.018  1.00  0.00    -0.281 NA
BRANCH  15  16
HETATM   16  C8  UNL     1      26.572   7.148  48.183  1.00  0.00     0.184 C 
BRANCH  16  17
HETATM   17  C9  UNL     1      27.985   6.873  47.892  1.00  0.00    -0.054 A 
HETATM   18  C10 UNL     1      28.451   5.715  48.323  1.00  0.00     0.007 A 
HETATM   19  C11 UNL     1      29.880   5.584  47.957  1.00  0.00     0.038 A 
HETATM   20  C12 UNL     1      30.188   6.699  47.312  1.00  0.00     0.098 A 
HETATM   21  F1  UNL     1      31.305   7.224  46.717  1.00  0.00    -0.211 F 
HETATM   22  C13 UNL     1      29.030   7.656  47.188  1.00  0.00     0.106 A 
ENDBRANCH  16  17
ENDBRANCH  15  16
ENDBRANCH   7  14
BRANCH   8  23
HETATM   23  N3  UNL     1      24.538   6.413  51.894  1.00  0.00     0.120 N 
HETATM   24  H20 UNL     1      24.441   6.389  52.935  1.00  0.00     0.317 HD
HETATM   25  H21 UNL     1      25.533   6.531  51.589  1.00  0.00     0.317 HD
ENDBRANCH   8  23
BRANCH  12  26
HETATM   26  N5  UNL     1      22.725   6.996  49.826  1.00  0.00    -0.383 N 
HETATM   27  H23 UNL     1      22.724   8.030  50.072  1.00  0.00     0.157 HD
HETATM   28  H24 UNL     1      22.911   7.084  48.802  1.00  0.00     0.157 HD
ENDBRANCH  12  26
TORSDOF 5
ENDMDL
MODEL 8
REMARK VINA RESULT:      -7.3      2.171      3.559
REMARK  5 active torsions:
REMARK  status: ('A' for Active; 'I' for Inactive)
REMARK    1  A    between atoms: N1_7  and  C7_8 
REMARK    2  A    between atoms: N2_9  and  C8_10 
REMARK    3  A    between atoms: C8_10  and  C9_11 
REMARK    4  A    between atoms: C14_17  and  N3_18 
REMARK    5  A    between atoms: C17_22  and  N5_23 
ROOT
HETATM    1  C1  UNL     1      23.032   5.755  47.681  1.00  0.00     0.010 C 
HETATM    2  C2  UNL     1      21.828   4.972  48.001  1.00  0.00    -0.014 C 
HETATM    3  C3  UNL     1      21.513   3.719  47.317  1.00  0.00     0.004 C 
HETATM    4  C4  UNL     1      22.322   2.494  47.406  1.00  0.00     0.002 C 
HETATM    5  C5  UNL     1      22.561   2.059  48.844  1.00  0.00     0.020 C 
HETATM    6  C6  UNL     1      23.765   2.756  49.418  1.00  0.00     0.127 C 
HETATM    7  N1  UNL     1      23.752   2.800  50.853  1.00  0.00    -0.331 N 
HETATM    8  C14 UNL     1      22.807   3.752  51.478  1.00  0.00     0.315 A 
HETATM    9  C15 UNL     1      22.271   4.758  50.532  1.00  0.00     0.004 A 
HETATM   10  C16 UNL     1      22.823   5.963  50.898  1.00  0.00     0.126 A 
HETATM   11  N4  UNL     1      23.694   5.874  52.034  1.00  0.00    -0.243 NA
HETATM   12  C17 UNL     1      23.690   4.619  52.379  1.00  0.00     0.162 A 
HETATM   13  C18 UNL     1      21.331   5.010  49.421  1.00  0.00     0.045 C 
ENDROOT
BRANCH   7  14
HETATM   14  C7  UNL     1      24.560   2.018  51.723  1.00  0.00     0.201 C 
HETATM   15  N2  UNL     1      23.870   1.027  52.128  1.00  0.00    -0.281 NA
BRANCH  15  16
HETATM   16  C8  UNL     1      24.225  -0.020  52.998  1.00  0.00     0.184 C 
BRANCH  16  17
HETATM   17  C9  UNL     1      25.637  -0.075  53.398  1.00  0.00    -0.054 A 
HETATM   18  C10 UNL     1      26.433  -0.787  52.622  1.00  0.00     0.007 A 
HETATM   19  C11 UNL     1      27.815  -0.749  53.152  1.00  0.00     0.038 A 
HETATM   20  C12 UNL     1      27.760   0.005  54.239  1.00  0.00     0.098 A 
HETATM   21  F1  UNL     1      28.646   0.443  55.189  1.00  0.00    -0.211 F 
HETATM   22  C13 UNL     1      26.376   0.528  54.534  1.00  0.00     0.106 A 
ENDBRANCH  16  17
ENDBRANCH  15  16
ENDBRANCH   7  14
BRANCH   8  23
HETATM   23  N3  UNL     1      21.838   3.110  52.289  1.00  0.00     0.120 N 
HETATM   24  H20 UNL     1      21.174   3.783  52.735  1.00  0.00     0.317 HD
HETATM   25  H21 UNL     1      21.345   2.311  51.826  1.00  0.00     0.317 HD
ENDBRANCH   8  23
BRANCH  12  26
HETATM   26  N5  UNL     1      24.315   3.825  53.410  1.00  0.00    -0.383 N 
HETATM   27  H23 UNL     1      24.958   2.989  53.272  1.00  0.00     0.157 HD
HETATM   28  H24 UNL     1      24.314   3.843  54.455  1.00  0.00     0.157 HD
ENDBRANCH  12  26
TORSDOF 5
ENDMDL
MODEL 9
REMARK VINA RESULT:      -7.2      2.607      4.217
REMARK  5 active torsions:
REMARK  status: ('A' for Active; 'I' for Inactive)
REMARK    1  A    between atoms: N1_7  and  C7_8 
REMARK    2  A    between atoms: N2_9  and  C8_10 
REMARK    3  A    between atoms: C8_10  and  C9_11 
REMARK    4  A    between atoms: C14_17  and  N3_18 
REMARK    5  A    between atoms: C17_22  and  N5_23 
ROOT
HETATM    1  C1  UNL     1      20.579   7.221  48.231  1.00  0.00     0.010 C 
HETATM    2  C2  UNL     1      20.381   6.824  49.634  1.00  0.00    -0.014 C 
HETATM    3  C3  UNL     1      19.877   5.501  50.001  1.00  0.00     0.004 C 
HETATM    4  C4  UNL     1      20.591   4.240  49.754  1.00  0.00     0.002 C 
HETATM    5  C5  UNL     1      22.002   4.249  50.322  1.00  0.00     0.020 C 
HETATM    6  C6  UNL     1      22.968   4.853  49.339  1.00  0.00     0.127 C 
HETATM    7  N1  UNL     1      24.160   5.354  49.963  1.00  0.00    -0.331 N 
HETATM    8  C14 UNL     1      24.028   6.616  50.726  1.00  0.00     0.315 A 
HETATM    9  C15 UNL     1      22.773   7.349  50.438  1.00  0.00     0.004 A 
HETATM   10  C16 UNL     1      23.138   8.481  49.748  1.00  0.00     0.126 A 
HETATM   11  N4  UNL     1      24.553   8.596  49.543  1.00  0.00    -0.243 NA
HETATM   12  C17 UNL     1      25.073   7.542  50.099  1.00  0.00     0.162 A 
HETATM   13  C18 UNL     1      21.314   7.406  50.660  1.00  0.00     0.045 C 
ENDROOT
BRANCH   7  14
HETATM   14  C7  UNL     1      25.447   4.753  49.917  1.00  0.00     0.201 C 
HETATM   15  N2  UNL     1      25.442   3.733  50.680  1.00  0.00    -0.281 NA
BRANCH  15  16
HETATM   16  C8  UNL     1      26.471   2.818  50.966  1.00  0.00     0.184 C 
BRANCH  16  17
HETATM   17  C9  UNL     1      26.082   1.627  51.731  1.00  0.00    -0.054 A 
HETATM   18  C10 UNL     1      24.825   1.581  52.133  1.00  0.00     0.007 A 
HETATM   19  C11 UNL     1      24.586   0.329  52.886  1.00  0.00     0.038 A 
HETATM   20  C12 UNL     1      25.744  -0.314  52.888  1.00  0.00     0.098 A 
HETATM   21  F1  UNL     1      26.221  -1.497  53.390  1.00  0.00    -0.211 F 
HETATM   22  C13 UNL     1      26.838   0.424  52.157  1.00  0.00     0.106 A 
ENDBRANCH  16  17
ENDBRANCH  15  16
ENDBRANCH   7  14
BRANCH   8  23
HETATM   23  N3  UNL     1      24.336   6.461  52.100  1.00  0.00     0.120 N 
HETATM   24  H20 UNL     1      25.221   5.926  52.258  1.00  0.00     0.317 HD
HETATM   25  H21 UNL     1      24.301   7.348  52.655  1.00  0.00     0.317 HD
ENDBRANCH   8  23
BRANCH  12  26
HETATM   26  N5  UNL     1      26.406   7.015  50.281  1.00  0.00    -0.383 N 
HETATM   27  H23 UNL     1      26.766   6.460  51.113  1.00  0.00     0.157 HD
HETATM   28  H24 UNL     1      27.286   7.028  49.717  1.00  0.00     0.157 HD
ENDBRANCH  12  26
TORSDOF 5
ENDMDL
