MODEL 1
REMARK VINA RESULT:      -7.1      0.000      0.000
REMARK  7 active torsions:
REMARK  status: ('A' for Active; 'I' for Inactive)
REMARK    1  A    between atoms: N1_2  and  C3_4 
REMARK    2  A    between atoms: C3_4  and  C4_5 
REMARK    3  A    between atoms: C5_6  and  N2_7 
REMARK    4  A    between atoms: N2_7  and  O1_8 
REMARK    5  A    between atoms: N2_7  and  C6_9 
REMARK    6  A    between atoms: C10_15  and  C11_16 
REMARK    7  A    between atoms: C14_21  and  O3_22 
ROOT
HETATM    1  C6  UNL     1      25.447   2.502  51.011  1.00  0.00     0.183 C 
HETATM    2  N3  UNL     1      24.178   2.261  50.939  1.00  0.00    -0.265 NA
HETATM    3  C7  UNL     1      23.188   1.422  51.528  1.00  0.00     0.180 C 
HETATM    4  C8  UNL     1      23.637   0.572  52.639  1.00  0.00     0.015 C 
HETATM    5  C9  UNL     1      24.656  -0.186  53.062  1.00  0.00     0.020 C 
HETATM    6 CL1  UNL     1      24.482  -0.969  54.618  1.00  0.00    -0.088 Cl
HETATM    7  C10 UNL     1      25.968  -0.503  52.437  1.00  0.00     0.090 C 
HETATM    8  C12 UNL     1      26.748   0.739  52.425  1.00  0.00    -0.026 C 
HETATM    9  C13 UNL     1      26.523   1.925  51.852  1.00  0.00     0.123 C 
HETATM   10  O2  UNL     1      27.566   2.760  52.143  1.00  0.00    -0.316 OA
HETATM   11  C14 UNL     1      28.222   2.329  53.329  1.00  0.00     0.267 C 
HETATM   12  C15 UNL     1      28.043   0.812  53.148  1.00  0.00     0.099 C 
ENDROOT
BRANCH   1  13
HETATM   13  N2  UNL     1      25.972   3.522  50.129  1.00  0.00    -0.215 N 
BRANCH  13  14
HETATM   14  C5  UNL     1      25.399   4.799  49.947  1.00  0.00     0.123 C 
HETATM   15  C4  UNL     1      25.422   5.602  48.897  1.00  0.00     0.023 C 
BRANCH  15  16
HETATM   16  C3  UNL     1      24.797   6.945  48.757  1.00  0.00     0.300 C 
BRANCH  16  17
HETATM   17  N1  UNL     1      24.841   7.702  49.970  1.00  0.00     0.083 N 
HETATM   18  C1  UNL     1      25.667   8.871  49.939  1.00  0.00     0.309 C 
HETATM   19  C2  UNL     1      23.530   8.069  50.461  1.00  0.00     0.309 C 
ENDBRANCH  16  17
ENDBRANCH  15  16
ENDBRANCH  13  14
BRANCH  13  20
HETATM   20  O1  UNL     1      27.109   3.212  49.423  1.00  0.00    -0.281 OA
HETATM   21  H11 UNL     1      27.720   2.774  50.061  1.00  0.00     0.245 HD
ENDBRANCH  13  20
ENDBRANCH   1  13
BRANCH   7  22
HETATM   22  C11 UNL     1      26.632  -1.666  53.040  1.00  0.00     0.237 C 
HETATM   23  F1  UNL     1      26.970  -2.694  52.220  1.00  0.00    -0.254 F 
ENDBRANCH   7  22
BRANCH  11  24
HETATM   24  O3  UNL     1      29.555   2.670  53.379  1.00  0.00    -0.371 OA
HETATM   25  H19 UNL     1      30.124   2.021  52.875  1.00  0.00     0.212 HD
ENDBRANCH  11  24
TORSDOF 7
ENDMDL
MODEL 2
REMARK VINA RESULT:      -6.8      3.881      6.786
REMARK  7 active torsions:
REMARK  status: ('A' for Active; 'I' for Inactive)
REMARK    1  A    between atoms: N1_2  and  C3_4 
REMARK    2  A    between atoms: C3_4  and  C4_5 
REMARK    3  A    between atoms: C5_6  and  N2_7 
REMARK    4  A    between atoms: N2_7  and  O1_8 
REMARK    5  A    between atoms: N2_7  and  C6_9 
REMARK    6  A    between atoms: C10_15  and  C11_16 
REMARK    7  A    between atoms: C14_21  and  O3_22 
ROOT
HETATM    1  C6  UNL     1      24.118   2.238  51.314  1.00  0.00     0.183 C 
HETATM    2  N3  UNL     1      23.067   1.497  51.180  1.00  0.00    -0.265 NA
HETATM    3  C7  UNL     1      22.016   1.244  50.251  1.00  0.00     0.180 C 
HETATM    4  C8  UNL     1      22.106   1.948  48.965  1.00  0.00     0.015 C 
HETATM    5  C9  UNL     1      22.437   3.119  48.407  1.00  0.00     0.020 C 
HETATM    6 CL1  UNL     1      22.282   3.252  46.667  1.00  0.00    -0.088 Cl
HETATM    7  C10 UNL     1      22.935   4.386  49.007  1.00  0.00     0.090 C 
HETATM    8  C12 UNL     1      24.286   4.117  49.513  1.00  0.00    -0.026 C 
HETATM    9  C13 UNL     1      24.736   3.257  50.432  1.00  0.00     0.123 C 
HETATM   10  O2  UNL     1      26.091   3.399  50.541  1.00  0.00    -0.316 OA
HETATM   11  C14 UNL     1      26.623   3.958  49.347  1.00  0.00     0.267 C 
HETATM   12  C15 UNL     1      25.445   4.878  48.983  1.00  0.00     0.099 C 
ENDROOT
BRANCH   1  13
HETATM   13  N2  UNL     1      24.879   2.084  52.535  1.00  0.00    -0.215 N 
BRANCH  13  14
HETATM   14  C5  UNL     1      25.555   0.906  52.918  1.00  0.00     0.123 C 
HETATM   15  C4  UNL     1      26.682   0.383  52.465  1.00  0.00     0.023 C 
BRANCH  15  16
HETATM   16  C3  UNL     1      27.354  -0.868  52.907  1.00  0.00     0.300 C 
BRANCH  16  17
HETATM   17  N1  UNL     1      28.673  -0.635  53.411  1.00  0.00     0.083 N 
HETATM   18  C1  UNL     1      28.741  -0.042  54.712  1.00  0.00     0.309 C 
HETATM   19  C2  UNL     1      29.508  -1.818  53.393  1.00  0.00     0.309 C 
ENDBRANCH  16  17
ENDBRANCH  15  16
ENDBRANCH  13  14
BRANCH  13  20
HETATM   20  O1  UNL     1      24.938   3.169  53.376  1.00  0.00    -0.281 OA
HETATM   21  H11 UNL     1      25.456   2.881  54.164  1.00  0.00     0.245 HD
ENDBRANCH  13  20
ENDBRANCH   1  13
BRANCH   7  22
HETATM   22  C11 UNL     1      22.811   5.541  48.108  1.00  0.00     0.237 C 
HETATM   23  F1  UNL     1      21.979   6.546  48.487  1.00  0.00    -0.254 F 
ENDBRANCH   7  22
BRANCH  11  24
HETATM   24  O3  UNL     1      27.778   4.682  49.540  1.00  0.00    -0.371 OA
HETATM   25  H19 UNL     1      27.709   5.602  49.154  1.00  0.00     0.212 HD
ENDBRANCH  11  24
TORSDOF 7
ENDMDL
MODEL 3
REMARK VINA RESULT:      -6.5      3.545      4.846
REMARK  7 active torsions:
REMARK  status: ('A' for Active; 'I' for Inactive)
REMARK    1  A    between atoms: N1_2  and  C3_4 
REMARK    2  A    between atoms: C3_4  and  C4_5 
REMARK    3  A    between atoms: C5_6  and  N2_7 
REMARK    4  A    between atoms: N2_7  and  O1_8 
REMARK    5  A    between atoms: N2_7  and  C6_9 
REMARK    6  A    between atoms: C10_15  and  C11_16 
REMARK    7  A    between atoms: C14_21  and  O3_22 
ROOT
HETATM    1  C6  UNL     1      21.380   0.766  52.877  1.00  0.00     0.183 C 
HETATM    2  N3  UNL     1      20.844  -0.226  53.510  1.00  0.00    -0.265 NA
HETATM    3  C7  UNL     1      21.187  -1.241  54.449  1.00  0.00     0.180 C 
HETATM    4  C8  UNL     1      22.551  -1.185  54.993  1.00  0.00     0.015 C 
HETATM    5  C9  UNL     1      23.824  -0.934  54.665  1.00  0.00     0.020 C 
HETATM    6 CL1  UNL     1      25.023  -1.073  55.934  1.00  0.00    -0.088 Cl
HETATM    7  C10 UNL     1      24.444  -0.540  53.371  1.00  0.00     0.090 C 
HETATM    8  C12 UNL     1      23.981   0.819  53.071  1.00  0.00    -0.026 C 
HETATM    9  C13 UNL     1      22.756   1.318  52.878  1.00  0.00     0.123 C 
HETATM   10  O2  UNL     1      22.862   2.658  52.625  1.00  0.00    -0.316 OA
HETATM   11  C14 UNL     1      24.077   3.164  53.163  1.00  0.00     0.267 C 
HETATM   12  C15 UNL     1      24.960   1.926  52.932  1.00  0.00     0.099 C 
ENDROOT
BRANCH   1  13
HETATM   13  N2  UNL     1      20.523   1.517  51.987  1.00  0.00    -0.215 N 
BRANCH  13  14
HETATM   14  C5  UNL     1      20.536   1.411  50.579  1.00  0.00     0.123 C 
HETATM   15  C4  UNL     1      21.545   1.473  49.728  1.00  0.00     0.023 C 
BRANCH  15  16
HETATM   16  C3  UNL     1      21.503   1.352  48.245  1.00  0.00     0.300 C 
BRANCH  16  17
HETATM   17  N1  UNL     1      21.640   2.615  47.587  1.00  0.00     0.083 N 
HETATM   18  C1  UNL     1      20.417   3.316  47.335  1.00  0.00     0.309 C 
HETATM   19  C2  UNL     1      22.563   3.509  48.254  1.00  0.00     0.309 C 
ENDBRANCH  16  17
ENDBRANCH  15  16
ENDBRANCH  13  14
BRANCH  13  20
HETATM   20  O1  UNL     1      19.639   2.397  52.564  1.00  0.00    -0.281 OA
HETATM   21  H11 UNL     1      18.968   2.608  51.872  1.00  0.00     0.245 HD
ENDBRANCH  13  20
ENDBRANCH   1  13
BRANCH   7  22
HETATM   22  C11 UNL     1      25.900  -0.737  53.342  1.00  0.00     0.237 C 
HETATM   23  F1  UNL     1      26.451  -1.184  52.184  1.00  0.00    -0.254 F 
ENDBRANCH   7  22
BRANCH  11  24
HETATM   24  O3  UNL     1      24.568   4.259  52.488  1.00  0.00    -0.371 OA
HETATM   25  H19 UNL     1      24.914   4.013  51.583  1.00  0.00     0.212 HD
ENDBRANCH  11  24
TORSDOF 7
ENDMDL
MODEL 4
REMARK VINA RESULT:      -6.4      3.490      4.707
REMARK  7 active torsions:
REMARK  status: ('A' for Active; 'I' for Inactive)
REMARK    1  A    between atoms: N1_2  and  C3_4 
REMARK    2  A    between atoms: C3_4  and  C4_5 
REMARK    3  A    between atoms: C5_6  and  N2_7 
REMARK    4  A    between atoms: N2_7  and  O1_8 
REMARK    5  A    between atoms: N2_7  and  C6_9 
REMARK    6  A    between atoms: C10_15  and  C11_16 
REMARK    7  A    between atoms: C14_21  and  O3_22 
ROOT
HETATM    1  C6  UNL     1      24.176   2.805  51.574  1.00  0.00     0.183 C 
HETATM    2  N3  UNL     1      25.410   3.009  51.246  1.00  0.00    -0.265 NA
HETATM    3  C7  UNL     1      26.671   2.345  51.260  1.00  0.00     0.180 C 
HETATM    4  C8  UNL     1      26.660   0.945  51.703  1.00  0.00     0.015 C 
HETATM    5  C9  UNL     1      26.111   0.108  52.591  1.00  0.00     0.020 C 
HETATM    6 CL1  UNL     1      26.614  -1.569  52.533  1.00  0.00    -0.088 Cl
HETATM    7  C10 UNL     1      25.109   0.338  53.667  1.00  0.00     0.090 C 
HETATM    8  C12 UNL     1      23.838   0.652  53.007  1.00  0.00    -0.026 C 
HETATM    9  C13 UNL     1      23.486   1.639  52.177  1.00  0.00     0.123 C 
HETATM   10  O2  UNL     1      22.171   1.484  51.840  1.00  0.00    -0.316 OA
HETATM   11  C14 UNL     1      21.779   0.127  52.005  1.00  0.00     0.267 C 
HETATM   12  C15 UNL     1      22.651  -0.214  53.225  1.00  0.00     0.099 C 
ENDROOT
BRANCH   1  13
HETATM   13  N2  UNL     1      23.244   3.884  51.328  1.00  0.00    -0.215 N 
BRANCH  13  14
HETATM   14  C5  UNL     1      22.956   4.422  50.055  1.00  0.00     0.123 C 
HETATM   15  C4  UNL     1      22.639   3.816  48.924  1.00  0.00     0.023 C 
BRANCH  15  16
HETATM   16  C3  UNL     1      22.343   4.434  47.604  1.00  0.00     0.300 C 
BRANCH  16  17
HETATM   17  N1  UNL     1      21.644   3.547  46.725  1.00  0.00     0.083 N 
HETATM   18  C1  UNL     1      20.270   3.314  47.048  1.00  0.00     0.309 C 
HETATM   19  C2  UNL     1      21.738   3.932  45.332  1.00  0.00     0.309 C 
ENDBRANCH  16  17
ENDBRANCH  15  16
ENDBRANCH  13  14
BRANCH  13  20
HETATM   20  O1  UNL     1      22.601   4.417  52.419  1.00  0.00    -0.281 OA
HETATM   21  H11 UNL     1      22.763   5.389  52.387  1.00  0.00     0.245 HD
ENDBRANCH  13  20
ENDBRANCH   1  13
BRANCH   7  22
HETATM   22  C11 UNL     1      25.062  -0.746  54.657  1.00  0.00     0.237 C 
HETATM   23  F1  UNL     1      25.709  -0.551  55.835  1.00  0.00    -0.254 F 
ENDBRANCH   7  22
BRANCH  11  24
HETATM   24  O3  UNL     1      20.441  -0.033  52.289  1.00  0.00    -0.371 OA
HETATM   25  H19 UNL     1      19.973  -0.565  51.583  1.00  0.00     0.212 HD
ENDBRANCH  11  24
TORSDOF 7
ENDMDL
MODEL 5
REMARK VINA RESULT:      -6.3      4.074      5.551
REMARK  7 active torsions:
REMARK  status: ('A' for Active; 'I' for Inactive)
REMARK    1  A    between atoms: N1_2  and  C3_4 
REMARK    2  A    between atoms: C3_4  and  C4_5 
REMARK    3  A    between atoms: C5_6  and  N2_7 
REMARK    4  A    between atoms: N2_7  and  O1_8 
REMARK    5  A    between atoms: N2_7  and  C6_9 
REMARK    6  A    between atoms: C10_15  and  C11_16 
REMARK    7  A    between atoms: C14_21  and  O3_22 
ROOT
HETATM    1  C6  UNL     1      21.634   0.335  52.731  1.00  0.00     0.183 C 
HETATM    2  N3  UNL     1      21.138  -0.635  53.427  1.00  0.00    -0.265 NA
HETATM    3  C7  UNL     1      21.499  -1.524  54.480  1.00  0.00     0.180 C 
HETATM    4  C8  UNL     1      22.815  -1.300  55.094  1.00  0.00     0.015 C 
HETATM    5  C9  UNL     1      24.083  -0.972  54.816  1.00  0.00     0.020 C 
HETATM    6 CL1  UNL     1      25.203  -0.888  56.159  1.00  0.00    -0.088 Cl
HETATM    7  C10 UNL     1      24.753  -0.650  53.527  1.00  0.00     0.090 C 
HETATM    8  C12 UNL     1      24.204   0.629  53.067  1.00  0.00    -0.026 C 
HETATM    9  C13 UNL     1      22.958   1.002  52.756  1.00  0.00     0.123 C 
HETATM   10  O2  UNL     1      22.973   2.315  52.377  1.00  0.00    -0.316 OA
HETATM   11  C14 UNL     1      24.105   2.972  52.931  1.00  0.00     0.267 C 
HETATM   12  C15 UNL     1      25.098   1.799  52.875  1.00  0.00     0.099 C 
ENDROOT
BRANCH   1  13
HETATM   13  N2  UNL     1      20.780   0.923  51.722  1.00  0.00    -0.215 N 
BRANCH  13  14
HETATM   14  C5  UNL     1      19.499   1.462  51.968  1.00  0.00     0.123 C 
HETATM   15  C4  UNL     1      18.488   1.672  51.142  1.00  0.00     0.023 C 
BRANCH  15  16
HETATM   16  C3  UNL     1      17.151   2.245  51.456  1.00  0.00     0.300 C 
BRANCH  16  17
HETATM   17  N1  UNL     1      17.191   3.663  51.646  1.00  0.00     0.083 N 
HETATM   18  C1  UNL     1      17.580   4.428  50.500  1.00  0.00     0.309 C 
HETATM   19  C2  UNL     1      15.956   4.203  52.172  1.00  0.00     0.309 C 
ENDBRANCH  16  17
ENDBRANCH  15  16
ENDBRANCH  13  14
BRANCH  13  20
HETATM   20  O1  UNL     1      21.260   0.951  50.434  1.00  0.00    -0.281 OA
HETATM   21  H11 UNL     1      20.859   0.176  49.973  1.00  0.00     0.245 HD
ENDBRANCH  13  20
ENDBRANCH   1  13
BRANCH   7  22
HETATM   22  C11 UNL     1      26.218  -0.723  53.602  1.00  0.00     0.237 C 
HETATM   23  F1  UNL     1      26.858  -1.483  52.676  1.00  0.00    -0.254 F 
ENDBRANCH   7  22
BRANCH  11  24
HETATM   24  O3  UNL     1      24.550   4.037  52.180  1.00  0.00    -0.371 OA
HETATM   25  H19 UNL     1      25.413   3.831  51.718  1.00  0.00     0.212 HD
ENDBRANCH  11  24
TORSDOF 7
ENDMDL
MODEL 6
REMARK VINA RESULT:      -6.2      2.830      3.933
REMARK  7 active torsions:
REMARK  status: ('A' for Active; 'I' for Inactive)
REMARK    1  A    between atoms: N1_2  and  C3_4 
REMARK    2  A    between atoms: C3_4  and  C4_5 
REMARK    3  A    between atoms: C5_6  and  N2_7 
REMARK    4  A    between atoms: N2_7  and  O1_8 
REMARK    5  A    between atoms: N2_7  and  C6_9 
REMARK    6  A    between atoms: C10_15  and  C11_16 
REMARK    7  A    between atoms: C14_21  and  O3_22 
ROOT
HETATM    1  C6  UNL     1      24.260   2.802  51.608  1.00  0.00     0.183 C 
HETATM    2  N3  UNL     1      25.511   2.985  51.335  1.00  0.00    -0.265 NA
HETATM    3  C7  UNL     1      26.755   2.293  51.384  1.00  0.00     0.180 C 
HETATM    4  C8  UNL     1      26.696   0.883  51.793  1.00  0.00     0.015 C 
HETATM    5  C9  UNL     1      26.093   0.039  52.638  1.00  0.00     0.020 C 
HETATM    6 CL1  UNL     1      26.561  -1.647  52.560  1.00  0.00    -0.088 Cl
HETATM    7  C10 UNL     1      25.053   0.267  53.677  1.00  0.00     0.090 C 
HETATM    8  C12 UNL     1      23.816   0.624  52.974  1.00  0.00    -0.026 C 
HETATM    9  C13 UNL     1      23.521   1.638  52.154  1.00  0.00     0.123 C 
HETATM   10  O2  UNL     1      22.217   1.520  51.761  1.00  0.00    -0.316 OA
HETATM   11  C14 UNL     1      21.790   0.169  51.877  1.00  0.00     0.267 C 
HETATM   12  C15 UNL     1      22.604  -0.219  53.123  1.00  0.00     0.099 C 
ENDROOT
BRANCH   1  13
HETATM   13  N2  UNL     1      23.363   3.907  51.350  1.00  0.00    -0.215 N 
BRANCH  13  14
HETATM   14  C5  UNL     1      23.307   4.631  50.140  1.00  0.00     0.123 C 
HETATM   15  C4  UNL     1      23.998   5.685  49.743  1.00  0.00     0.023 C 
BRANCH  15  16
HETATM   16  C3  UNL     1      23.900   6.413  48.449  1.00  0.00     0.300 C 
BRANCH  16  17
HETATM   17  N1  UNL     1      25.154   6.961  48.030  1.00  0.00     0.083 N 
HETATM   18  C1  UNL     1      25.089   8.255  47.421  1.00  0.00     0.309 C 
HETATM   19  C2  UNL     1      26.145   6.990  49.084  1.00  0.00     0.309 C 
ENDBRANCH  16  17
ENDBRANCH  15  16
ENDBRANCH  13  14
BRANCH  13  20
HETATM   20  O1  UNL     1      22.510   4.270  52.365  1.00  0.00    -0.281 OA
HETATM   21  H11 UNL     1      22.367   3.460  52.909  1.00  0.00     0.245 HD
ENDBRANCH  13  20
ENDBRANCH   1  13
BRANCH   7  22
HETATM   22  C11 UNL     1      24.942  -0.839  54.638  1.00  0.00     0.237 C 
HETATM   23  F1  UNL     1      25.511  -0.670  55.860  1.00  0.00    -0.254 F 
ENDBRANCH   7  22
BRANCH  11  24
HETATM   24  O3  UNL     1      20.438   0.033  52.103  1.00  0.00    -0.371 OA
HETATM   25  H19 UNL     1      20.197  -0.904  52.359  1.00  0.00     0.212 HD
ENDBRANCH  11  24
TORSDOF 7
ENDMDL
MODEL 7
REMARK VINA RESULT:      -6.0      2.899      4.514
REMARK  7 active torsions:
REMARK  status: ('A' for Active; 'I' for Inactive)
REMARK    1  A    between atoms: N1_2  and  C3_4 
REMARK    2  A    between atoms: C3_4  and  C4_5 
REMARK    3  A    between atoms: C5_6  and  N2_7 
REMARK    4  A    between atoms: N2_7  and  O1_8 
REMARK    5  A    between atoms: N2_7  and  C6_9 
REMARK    6  A    between atoms: C10_15  and  C11_16 
REMARK    7  A    between atoms: C14_21  and  O3_22 
ROOT
HETATM    1  C6  UNL     1      24.321   2.470  51.197  1.00  0.00     0.183 C 
HETATM    2  N3  UNL     1      25.248   2.155  52.041  1.00  0.00    -0.265 NA
HETATM    3  C7  UNL     1      25.490   1.249  53.114  1.00  0.00     0.180 C 
HETATM    4  C8  UNL     1      24.436   0.261  53.377  1.00  0.00     0.015 C 
HETATM    5  C9  UNL     1      23.108   0.101  53.426  1.00  0.00     0.020 C 
HETATM    6 CL1  UNL     1      22.505  -1.489  53.846  1.00  0.00    -0.088 Cl
HETATM    7  C10 UNL     1      21.995   1.056  53.178  1.00  0.00     0.090 C 
HETATM    8  C12 UNL     1      22.017   1.378  51.747  1.00  0.00    -0.026 C 
HETATM    9  C13 UNL     1      22.954   1.941  50.977  1.00  0.00     0.123 C 
HETATM   10  O2  UNL     1      22.481   2.021  49.697  1.00  0.00    -0.316 OA
HETATM   11  C14 UNL     1      21.463   1.051  49.488  1.00  0.00     0.267 C 
HETATM   12  C15 UNL     1      20.842   1.068  50.895  1.00  0.00     0.099 C 
ENDROOT
BRANCH   1  13
HETATM   13  N2  UNL     1      24.619   3.534  50.262  1.00  0.00    -0.215 N 
BRANCH  13  14
HETATM   14  C5  UNL     1      24.695   4.902  50.599  1.00  0.00     0.123 C 
HETATM   15  C4  UNL     1      25.387   5.881  50.042  1.00  0.00     0.023 C 
BRANCH  15  16
HETATM   16  C3  UNL     1      25.431   7.314  50.440  1.00  0.00     0.300 C 
BRANCH  16  17
HETATM   17  N1  UNL     1      26.308   8.087  49.614  1.00  0.00     0.083 N 
HETATM   18  C1  UNL     1      27.082   9.080  50.296  1.00  0.00     0.309 C 
HETATM   19  C2  UNL     1      27.195   7.275  48.808  1.00  0.00     0.309 C 
ENDBRANCH  16  17
ENDBRANCH  15  16
ENDBRANCH  13  14
BRANCH  13  20
HETATM   20  O1  UNL     1      24.838   3.173  48.954  1.00  0.00    -0.281 OA
HETATM   21  H11 UNL     1      24.236   2.414  48.772  1.00  0.00     0.245 HD
ENDBRANCH  13  20
ENDBRANCH   1  13
BRANCH   7  22
HETATM   22  C11 UNL     1      20.705   0.593  53.706  1.00  0.00     0.237 C 
HETATM   23  F1  UNL     1      20.541   0.592  55.054  1.00  0.00    -0.254 F 
ENDBRANCH   7  22
BRANCH  11  24
HETATM   24  O3  UNL     1      20.540   1.412  48.532  1.00  0.00    -0.371 OA
HETATM   25  H19 UNL     1      20.517   2.402  48.394  1.00  0.00     0.212 HD
ENDBRANCH  11  24
TORSDOF 7
ENDMDL
MODEL 8
REMARK VINA RESULT:      -5.9      2.332      2.882
REMARK  7 active torsions:
REMARK  status: ('A' for Active; 'I' for Inactive)
REMARK    1  A    between atoms: N1_2  and  C3_4 
REMARK    2  A    between atoms: C3_4  and  C4_5 
REMARK    3  A    between atoms: C5_6  and  N2_7 
REMARK    4  A    between atoms: N2_7  and  O1_8 
REMARK    5  A    between atoms: N2_7  and  C6_9 
REMARK    6  A    between atoms: C10_15  and  C11_16 
REMARK    7  A    between atoms: C14_21  and  O3_22 
ROOT
HETATM    1  C6  UNL     1      23.133   3.323  51.183  1.00  0.00     0.183 C 
HETATM    2  N3  UNL     1      21.857   3.436  51.009  1.00  0.00    -0.265 NA
HETATM    3  C7  UNL     1      20.632   2.920  51.522  1.00  0.00     0.180 C 
HETATM    4  C8  UNL     1      20.743   2.016  52.675  1.00  0.00     0.015 C 
HETATM    5  C9  UNL     1      21.478   1.022  53.188  1.00  0.00     0.020 C 
HETATM    6 CL1  UNL     1      20.976   0.367  54.733  1.00  0.00    -0.088 Cl
HETATM    7  C10 UNL     1      22.696   0.337  52.676  1.00  0.00     0.090 C 
HETATM    8  C12 UNL     1      23.787   1.317  52.717  1.00  0.00    -0.026 C 
HETATM    9  C13 UNL     1      23.942   2.500  52.115  1.00  0.00     0.123 C 
HETATM   10  O2  UNL     1      25.148   3.026  52.483  1.00  0.00    -0.316 OA
HETATM   11  C14 UNL     1      25.568   2.471  53.723  1.00  0.00     0.267 C 
HETATM   12  C15 UNL     1      24.992   1.056  53.543  1.00  0.00     0.099 C 
ENDROOT
BRANCH   1  13
HETATM   13  N2  UNL     1      23.985   4.131  50.337  1.00  0.00    -0.215 N 
BRANCH  13  14
HETATM   14  C5  UNL     1      24.066   5.539  50.389  1.00  0.00     0.123 C 
HETATM   15  C4  UNL     1      25.075   6.347  50.111  1.00  0.00     0.023 C 
BRANCH  15  16
HETATM   16  C3  UNL     1      25.106   7.833  50.182  1.00  0.00     0.300 C 
BRANCH  16  17
HETATM   17  N1  UNL     1      26.178   8.397  49.420  1.00  0.00     0.083 N 
HETATM   18  C1  UNL     1      25.785   9.267  48.353  1.00  0.00     0.309 C 
HETATM   19  C2  UNL     1      27.163   9.073  50.237  1.00  0.00     0.309 C 
ENDBRANCH  16  17
ENDBRANCH  15  16
ENDBRANCH  13  14
BRANCH  13  20
HETATM   20  O1  UNL     1      24.765   3.468  49.420  1.00  0.00    -0.281 OA
HETATM   21  H11 UNL     1      24.236   2.694  49.115  1.00  0.00     0.245 HD
ENDBRANCH  13  20
ENDBRANCH   1  13
BRANCH   7  22
HETATM   22  C11 UNL     1      22.965  -0.943  53.344  1.00  0.00     0.237 C 
HETATM   23  F1  UNL     1      22.135  -1.982  53.069  1.00  0.00    -0.254 F 
ENDBRANCH   7  22
BRANCH  11  24
HETATM   24  O3  UNL     1      26.935   2.436  53.880  1.00  0.00    -0.371 OA
HETATM   25  H19 UNL     1      27.217   1.727  54.527  1.00  0.00     0.212 HD
ENDBRANCH  11  24
TORSDOF 7
ENDMDL
MODEL 9
REMARK VINA RESULT:      -5.9      3.008      4.612
REMARK  7 active torsions:
REMARK  status: ('A' for Active; 'I' for Inactive)
REMARK    1  A    between atoms: N1_2  and  C3_4 
REMARK    2  A    between atoms: C3_4  and  C4_5 
REMARK    3  A    between atoms: C5_6  and  N2_7 
REMARK    4  A    between atoms: N2_7  and  O1_8 
REMARK    5  A    between atoms: N2_7  and  C6_9 
REMARK    6  A    between atoms: C10_15  and  C11_16 
REMARK    7  A    between atoms: C14_21  and  O3_22 
ROOT
HETATM    1  C6  UNL     1      24.462   2.377  51.325  1.00  0.00     0.183 C 
HETATM    2  N3  UNL     1      25.331   2.024  52.215  1.00  0.00    -0.265 NA
HETATM    3  C7  UNL     1      25.491   1.090  53.278  1.00  0.00     0.180 C 
HETATM    4  C8  UNL     1      24.403   0.120  53.458  1.00  0.00     0.015 C 
HETATM    5  C9  UNL     1      23.071  -0.012  53.426  1.00  0.00     0.020 C 
HETATM    6 CL1  UNL     1      22.412  -1.597  53.774  1.00  0.00    -0.088 Cl
HETATM    7  C10 UNL     1      21.995   0.973  53.136  1.00  0.00     0.090 C 
HETATM    8  C12 UNL     1      22.107   1.325  51.716  1.00  0.00    -0.026 C 
HETATM    9  C13 UNL     1      23.099   1.883  51.014  1.00  0.00     0.123 C 
HETATM   10  O2  UNL     1      22.703   2.002  49.711  1.00  0.00    -0.316 OA
HETATM   11  C14 UNL     1      21.679   1.059  49.422  1.00  0.00     0.267 C 
HETATM   12  C15 UNL     1      20.977   1.060  50.790  1.00  0.00     0.099 C 
ENDROOT
BRANCH   1  13
HETATM   13  N2  UNL     1      24.835   3.454  50.433  1.00  0.00    -0.215 N 
BRANCH  13  14
HETATM   14  C5  UNL     1      24.485   4.809  50.618  1.00  0.00     0.123 C 
HETATM   15  C4  UNL     1      23.300   5.396  50.588  1.00  0.00     0.023 C 
BRANCH  15  16
HETATM   16  C3  UNL     1      22.985   6.835  50.792  1.00  0.00     0.300 C 
BRANCH  16  17
HETATM   17  N1  UNL     1      21.582   7.106  50.720  1.00  0.00     0.083 N 
HETATM   18  C1  UNL     1      21.207   8.197  49.872  1.00  0.00     0.309 C 
HETATM   19  C2  UNL     1      20.794   5.945  50.365  1.00  0.00     0.309 C 
ENDBRANCH  16  17
ENDBRANCH  15  16
ENDBRANCH  13  14
BRANCH  13  20
HETATM   20  O1  UNL     1      25.583   3.121  49.330  1.00  0.00    -0.281 OA
HETATM   21  H11 UNL     1      25.268   2.232  49.041  1.00  0.00     0.245 HD
ENDBRANCH  13  20
ENDBRANCH   1  13
BRANCH   7  22
HETATM   22  C11 UNL     1      20.667   0.527  53.577  1.00  0.00     0.237 C 
HETATM   23  F1  UNL     1      20.375   0.634  54.899  1.00  0.00    -0.254 F 
ENDBRANCH   7  22
BRANCH  11  24
HETATM   24  O3  UNL     1      20.822   1.461  48.422  1.00  0.00    -0.371 OA
HETATM   25  H19 UNL     1      20.500   0.687  47.876  1.00  0.00     0.212 HD
ENDBRANCH  11  24
TORSDOF 7
ENDMDL
