MODEL 1
REMARK VINA RESULT:      -8.2      0.000      0.000
REMARK  9 active torsions:
REMARK  status: ('A' for Active; 'I' for Inactive)
REMARK    1  A    between atoms: N1_1  and  C1_2 
REMARK    2  A    between atoms: C2_4  and  N3_5 
REMARK    3  A    between atoms: N3_5  and  C3_6 
REMARK    4  A    between atoms: C6_9  and  S1_10 
REMARK    5  A    between atoms: S1_10  and  N4_11 
REMARK       I    between atoms: N6_17  and  C9_18 
REMARK    6  A    between atoms: C9_18  and  C10_20 
REMARK    7  A    between atoms: C10_20  and  C11_21 
REMARK    8  A    between atoms: C12_23  and  C13_24 
REMARK    9  A    between atoms: C14_25  and  C15_26 
ROOT
HETATM    1  C1  UNL     1      24.018   1.219  52.673  1.00  0.00     0.740 A 
HETATM    2  N2  UNL     1      23.411   1.853  51.659  1.00  0.00     0.131 NA
HETATM    3  C2  UNL     1      24.269   2.731  51.156  1.00  0.00     0.760 A 
HETATM    4  N5  UNL     1      25.375   2.620  51.863  1.00  0.00     0.045 NA
HETATM    5  N6  UNL     1      25.287   1.708  52.812  1.00  0.00    -0.011 N 
HETATM    6  C9  UNL     1      26.286   1.299  53.787  1.00  0.00     0.268 C 
HETATM    7  O3  UNL     1      25.832   0.378  54.550  1.00  0.00    -0.270 OA
ENDROOT
BRANCH   3   8
HETATM    8  N3  UNL     1      24.121   3.637  50.091  1.00  0.00    -0.186 N 
HETATM    9  H3  UNL     1      23.426   3.433  49.310  1.00  0.00     0.184 HD
BRANCH   8  10
HETATM   10  C3  UNL     1      24.831   4.854  49.938  1.00  0.00     0.049 A 
HETATM   11  C4  UNL     1      24.442   6.004  50.630  1.00  0.00     0.031 A 
HETATM   12  C5  UNL     1      25.073   7.199  50.532  1.00  0.00     0.027 A 
HETATM   13  C6  UNL     1      26.163   7.353  49.721  1.00  0.00     0.074 A 
HETATM   14  C7  UNL     1      26.591   6.250  49.014  1.00  0.00     0.027 A 
HETATM   15  C8  UNL     1      25.927   5.072  49.145  1.00  0.00     0.031 A 
BRANCH  13  16
HETATM   16  S1  UNL     1      26.994   8.880  49.576  1.00  0.00     0.239 S 
HETATM   17  O1  UNL     1      26.134   9.956  48.976  1.00  0.00    -0.206 OA
HETATM   18  O2  UNL     1      28.252   8.685  48.759  1.00  0.00    -0.206 OA
BRANCH  16  19
HETATM   19  N4  UNL     1      27.530   9.383  51.149  1.00  0.00    -0.225 NA
HETATM   20  H6  UNL     1      28.507   9.694  51.162  1.00  0.00     0.136 HD
HETATM   21  H7  UNL     1      27.258   8.641  51.807  1.00  0.00     0.136 HD
ENDBRANCH  16  19
ENDBRANCH  13  16
ENDBRANCH   8  10
ENDBRANCH   3   8
BRANCH   1  22
HETATM   22  N1  UNL     1      23.413   0.202  53.461  1.00  0.00    -0.230 N 
HETATM   23  H1  UNL     1      22.566   0.514  53.998  1.00  0.00     0.174 HD
HETATM   24  H2  UNL     1      23.720  -0.806  53.559  1.00  0.00     0.174 HD
ENDBRANCH   1  22
BRANCH   6  25
HETATM   25  C10 UNL     1      27.564   2.075  53.616  1.00  0.00     0.175 C 
BRANCH  25  26
HETATM   26  C11 UNL     1      28.785   1.359  53.856  1.00  0.00     0.102 C 
HETATM   27  F1  UNL     1      29.557   2.372  54.417  1.00  0.00    -0.210 F 
HETATM   28  C12 UNL     1      29.495   0.252  53.801  1.00  0.00     0.038 C 
BRANCH  28  29
HETATM   29  C13 UNL     1      29.489  -1.125  53.411  1.00  0.00     0.001 C 
HETATM   30  C14 UNL     1      28.756  -2.131  52.998  1.00  0.00     0.004 C 
BRANCH  30  31
HETATM   31  C15 UNL     1      27.299  -2.116  52.746  1.00  0.00     0.249 C 
HETATM   32  F2  UNL     1      27.049  -1.045  51.880  1.00  0.00    -0.251 F 
ENDBRANCH  30  31
ENDBRANCH  28  29
ENDBRANCH  25  26
ENDBRANCH   6  25
TORSDOF 9
ENDMDL
MODEL 2
REMARK VINA RESULT:      -7.9      4.049      5.817
REMARK  9 active torsions:
REMARK  status: ('A' for Active; 'I' for Inactive)
REMARK    1  A    between atoms: N1_1  and  C1_2 
REMARK    2  A    between atoms: C2_4  and  N3_5 
REMARK    3  A    between atoms: N3_5  and  C3_6 
REMARK    4  A    between atoms: C6_9  and  S1_10 
REMARK    5  A    between atoms: S1_10  and  N4_11 
REMARK       I    between atoms: N6_17  and  C9_18 
REMARK    6  A    between atoms: C9_18  and  C10_20 
REMARK    7  A    between atoms: C10_20  and  C11_21 
REMARK    8  A    between atoms: C12_23  and  C13_24 
REMARK    9  A    between atoms: C14_25  and  C15_26 
ROOT
HETATM    1  C1  UNL     1      28.554   1.359  53.115  1.00  0.00     0.740 A 
HETATM    2  N2  UNL     1      28.269   2.537  52.538  1.00  0.00     0.131 NA
HETATM    3  C2  UNL     1      27.054   2.449  52.014  1.00  0.00     0.760 A 
HETATM    4  N5  UNL     1      26.620   1.233  52.276  1.00  0.00     0.045 NA
HETATM    5  N6  UNL     1      27.494   0.511  52.950  1.00  0.00    -0.011 N 
HETATM    6  C9  UNL     1      27.383  -0.861  53.420  1.00  0.00     0.268 C 
HETATM    7  O3  UNL     1      28.442  -1.219  54.042  1.00  0.00    -0.270 OA
ENDROOT
BRANCH   3   8
HETATM    8  N3  UNL     1      26.301   3.402  51.307  1.00  0.00    -0.186 N 
HETATM    9  H3  UNL     1      26.792   4.174  50.763  1.00  0.00     0.184 HD
BRANCH   8  10
HETATM   10  C3  UNL     1      24.885   3.447  51.234  1.00  0.00     0.049 A 
HETATM   11  C4  UNL     1      24.218   3.150  50.042  1.00  0.00     0.031 A 
HETATM   12  C5  UNL     1      22.871   3.173  49.900  1.00  0.00     0.027 A 
HETATM   13  C6  UNL     1      22.060   3.500  50.951  1.00  0.00     0.074 A 
HETATM   14  C7  UNL     1      22.665   3.803  52.153  1.00  0.00     0.027 A 
HETATM   15  C8  UNL     1      24.020   3.766  52.247  1.00  0.00     0.031 A 
BRANCH  13  16
HETATM   16  S1  UNL     1      20.323   3.538  50.797  1.00  0.00     0.239 S 
HETATM   17  O1  UNL     1      19.800   2.498  49.847  1.00  0.00    -0.206 OA
HETATM   18  O2  UNL     1      19.893   4.921  50.361  1.00  0.00    -0.206 OA
BRANCH  16  19
HETATM   19  N4  UNL     1      19.611   3.295  52.361  1.00  0.00    -0.225 NA
HETATM   20  H6  UNL     1      20.255   3.497  53.133  1.00  0.00     0.136 HD
HETATM   21  H7  UNL     1      19.166   2.368  52.344  1.00  0.00     0.136 HD
ENDBRANCH  16  19
ENDBRANCH  13  16
ENDBRANCH   8  10
ENDBRANCH   3   8
BRANCH   1  22
HETATM   22  N1  UNL     1      29.774   1.067  53.785  1.00  0.00    -0.230 N 
HETATM   23  H1  UNL     1      29.657   0.564  54.699  1.00  0.00     0.174 HD
HETATM   24  H2  UNL     1      30.755   1.298  53.466  1.00  0.00     0.174 HD
ENDBRANCH   1  22
BRANCH   6  25
HETATM   25  C10 UNL     1      26.057  -1.461  53.040  1.00  0.00     0.175 C 
BRANCH  25  26
HETATM   26  C11 UNL     1      24.895  -0.893  53.665  1.00  0.00     0.102 C 
HETATM   27  F1  UNL     1      25.271  -0.975  55.002  1.00  0.00    -0.210 F 
HETATM   28  C12 UNL     1      23.696  -0.358  53.582  1.00  0.00     0.038 C 
BRANCH  28  29
HETATM   29  C13 UNL     1      22.654   0.051  52.691  1.00  0.00     0.001 C 
HETATM   30  C14 UNL     1      21.359   0.178  52.523  1.00  0.00     0.004 C 
BRANCH  30  31
HETATM   31  C15 UNL     1      20.305  -0.170  53.501  1.00  0.00     0.249 C 
HETATM   32  F2  UNL     1      20.534   0.613  54.639  1.00  0.00    -0.251 F 
ENDBRANCH  30  31
ENDBRANCH  28  29
ENDBRANCH  25  26
ENDBRANCH   6  25
TORSDOF 9
ENDMDL
MODEL 3
REMARK VINA RESULT:      -7.8      3.685      5.539
REMARK  9 active torsions:
REMARK  status: ('A' for Active; 'I' for Inactive)
REMARK    1  A    between atoms: N1_1  and  C1_2 
REMARK    2  A    between atoms: C2_4  and  N3_5 
REMARK    3  A    between atoms: N3_5  and  C3_6 
REMARK    4  A    between atoms: C6_9  and  S1_10 
REMARK    5  A    between atoms: S1_10  and  N4_11 
REMARK       I    between atoms: N6_17  and  C9_18 
REMARK    6  A    between atoms: C9_18  and  C10_20 
REMARK    7  A    between atoms: C10_20  and  C11_21 
REMARK    8  A    between atoms: C12_23  and  C13_24 
REMARK    9  A    between atoms: C14_25  and  C15_26 
ROOT
HETATM    1  C1  UNL     1      24.759  -0.786  54.762  1.00  0.00     0.740 A 
HETATM    2  N2  UNL     1      25.656  -0.032  54.109  1.00  0.00     0.131 NA
HETATM    3  C2  UNL     1      25.029   0.565  53.105  1.00  0.00     0.760 A 
HETATM    4  N5  UNL     1      23.773   0.172  53.159  1.00  0.00     0.045 NA
HETATM    5  N6  UNL     1      23.540  -0.661  54.156  1.00  0.00    -0.011 N 
HETATM    6  C9  UNL     1      22.294  -1.305  54.540  1.00  0.00     0.268 C 
HETATM    7  O3  UNL     1      22.461  -2.048  55.568  1.00  0.00    -0.270 OA
ENDROOT
BRANCH   3   8
HETATM    8  N3  UNL     1      25.519   1.452  52.130  1.00  0.00    -0.186 N 
HETATM    9  H3  UNL     1      26.385   1.199  51.564  1.00  0.00     0.184 HD
BRANCH   8  10
HETATM   10  C3  UNL     1      24.954   2.711  51.800  1.00  0.00     0.049 A 
HETATM   11  C4  UNL     1      25.222   3.317  50.569  1.00  0.00     0.031 A 
HETATM   12  C5  UNL     1      24.718   4.516  50.188  1.00  0.00     0.027 A 
HETATM   13  C6  UNL     1      23.891   5.224  51.015  1.00  0.00     0.074 A 
HETATM   14  C7  UNL     1      23.593   4.672  52.243  1.00  0.00     0.027 A 
HETATM   15  C8  UNL     1      24.122   3.467  52.581  1.00  0.00     0.031 A 
BRANCH  13  16
HETATM   16  S1  UNL     1      23.228   6.769  50.550  1.00  0.00     0.239 S 
HETATM   17  O1  UNL     1      21.784   6.922  50.933  1.00  0.00    -0.206 OA
HETATM   18  O2  UNL     1      23.407   6.958  49.059  1.00  0.00    -0.206 OA
BRANCH  16  19
HETATM   19  N4  UNL     1      24.157   8.031  51.297  1.00  0.00    -0.225 NA
HETATM   20  H6  UNL     1      24.208   8.884  50.731  1.00  0.00     0.136 HD
HETATM   21  H7  UNL     1      25.044   7.607  51.599  1.00  0.00     0.136 HD
ENDBRANCH  16  19
ENDBRANCH  13  16
ENDBRANCH   8  10
ENDBRANCH   3   8
BRANCH   1  22
HETATM   22  N1  UNL     1      25.057  -1.581  55.904  1.00  0.00    -0.230 N 
HETATM   23  H1  UNL     1      25.382  -1.035  56.740  1.00  0.00     0.174 HD
HETATM   24  H2  UNL     1      24.985  -2.633  55.993  1.00  0.00     0.174 HD
ENDBRANCH   1  22
BRANCH   6  25
HETATM   25  C10 UNL     1      21.170  -0.911  53.621  1.00  0.00     0.175 C 
BRANCH  25  26
HETATM   26  C11 UNL     1      20.753   0.463  53.672  1.00  0.00     0.102 C 
HETATM   27  F1  UNL     1      20.454   0.577  55.026  1.00  0.00    -0.210 F 
HETATM   28  C12 UNL     1      20.525   1.614  53.078  1.00  0.00     0.038 C 
BRANCH  28  29
HETATM   29  C13 UNL     1      20.558   2.316  51.831  1.00  0.00     0.001 C 
HETATM   30  C14 UNL     1      21.067   2.356  50.623  1.00  0.00     0.004 C 
BRANCH  30  31
HETATM   31  C15 UNL     1      22.038   1.402  50.043  1.00  0.00     0.249 C 
HETATM   32  F2  UNL     1      21.531   0.118  50.276  1.00  0.00    -0.251 F 
ENDBRANCH  30  31
ENDBRANCH  28  29
ENDBRANCH  25  26
ENDBRANCH   6  25
TORSDOF 9
ENDMDL
MODEL 4
REMARK VINA RESULT:      -7.8      2.472      4.178
REMARK  9 active torsions:
REMARK  status: ('A' for Active; 'I' for Inactive)
REMARK    1  A    between atoms: N1_1  and  C1_2 
REMARK    2  A    between atoms: C2_4  and  N3_5 
REMARK    3  A    between atoms: N3_5  and  C3_6 
REMARK    4  A    between atoms: C6_9  and  S1_10 
REMARK    5  A    between atoms: S1_10  and  N4_11 
REMARK       I    between atoms: N6_17  and  C9_18 
REMARK    6  A    between atoms: C9_18  and  C10_20 
REMARK    7  A    between atoms: C10_20  and  C11_21 
REMARK    8  A    between atoms: C12_23  and  C13_24 
REMARK    9  A    between atoms: C14_25  and  C15_26 
ROOT
HETATM    1  C1  UNL     1      27.602   1.670  53.246  1.00  0.00     0.740 A 
HETATM    2  N2  UNL     1      27.736   2.442  52.158  1.00  0.00     0.131 NA
HETATM    3  C2  UNL     1      26.724   2.174  51.343  1.00  0.00     0.760 A 
HETATM    4  N5  UNL     1      25.996   1.253  51.940  1.00  0.00     0.045 NA
HETATM    5  N6  UNL     1      26.481   0.899  53.115  1.00  0.00    -0.011 N 
HETATM    6  C9  UNL     1      25.966  -0.076  54.063  1.00  0.00     0.268 C 
HETATM    7  O3  UNL     1      26.712  -0.145  55.100  1.00  0.00    -0.270 OA
ENDROOT
BRANCH   3   8
HETATM    8  N3  UNL     1      26.409   2.710  50.081  1.00  0.00    -0.186 N 
HETATM    9  H3  UNL     1      26.157   2.062  49.275  1.00  0.00     0.184 HD
BRANCH   8  10
HETATM   10  C3  UNL     1      26.388   4.089  49.752  1.00  0.00     0.049 A 
HETATM   11  C4  UNL     1      25.447   4.949  50.325  1.00  0.00     0.031 A 
HETATM   12  C5  UNL     1      25.368   6.275  50.057  1.00  0.00     0.027 A 
HETATM   13  C6  UNL     1      26.235   6.866  49.180  1.00  0.00     0.074 A 
HETATM   14  C7  UNL     1      27.186   6.064  48.586  1.00  0.00     0.027 A 
HETATM   15  C8  UNL     1      27.226   4.739  48.886  1.00  0.00     0.031 A 
BRANCH  13  16
HETATM   16  S1  UNL     1      26.157   8.571  48.817  1.00  0.00     0.239 S 
HETATM   17  O1  UNL     1      24.879   8.962  48.130  1.00  0.00    -0.206 OA
HETATM   18  O2  UNL     1      27.354   8.954  47.975  1.00  0.00    -0.206 OA
BRANCH  16  19
HETATM   19  N4  UNL     1      26.313   9.471  50.293  1.00  0.00    -0.225 NA
HETATM   20  H6  UNL     1      26.604  10.443  50.145  1.00  0.00     0.136 HD
HETATM   21  H7  UNL     1      26.880   8.898  50.932  1.00  0.00     0.136 HD
ENDBRANCH  16  19
ENDBRANCH  13  16
ENDBRANCH   8  10
ENDBRANCH   3   8
BRANCH   1  22
HETATM   22  N1  UNL     1      28.500   1.675  54.350  1.00  0.00    -0.230 N 
HETATM   23  H1  UNL     1      28.733   0.721  54.724  1.00  0.00     0.174 HD
HETATM   24  H2  UNL     1      28.943   2.515  54.816  1.00  0.00     0.174 HD
ENDBRANCH   1  22
BRANCH   6  25
HETATM   25  C10 UNL     1      24.705  -0.720  53.554  1.00  0.00     0.175 C 
BRANCH  25  26
HETATM   26  C11 UNL     1      23.652  -0.911  54.511  1.00  0.00     0.102 C 
HETATM   27  F1  UNL     1      24.363  -1.521  55.539  1.00  0.00    -0.210 F 
HETATM   28  C12 UNL     1      22.390  -0.794  54.865  1.00  0.00     0.038 C 
BRANCH  28  29
HETATM   29  C13 UNL     1      21.097  -0.335  54.459  1.00  0.00     0.001 C 
HETATM   30  C14 UNL     1      20.406   0.266  53.520  1.00  0.00     0.004 C 
BRANCH  30  31
HETATM   31  C15 UNL     1      20.928   0.790  52.239  1.00  0.00     0.249 C 
HETATM   32  F2  UNL     1      21.597  -0.268  51.612  1.00  0.00    -0.251 F 
ENDBRANCH  30  31
ENDBRANCH  28  29
ENDBRANCH  25  26
ENDBRANCH   6  25
TORSDOF 9
ENDMDL
MODEL 5
REMARK VINA RESULT:      -7.8      2.373      4.138
REMARK  9 active torsions:
REMARK  status: ('A' for Active; 'I' for Inactive)
REMARK    1  A    between atoms: N1_1  and  C1_2 
REMARK    2  A    between atoms: C2_4  and  N3_5 
REMARK    3  A    between atoms: N3_5  and  C3_6 
REMARK    4  A    between atoms: C6_9  and  S1_10 
REMARK    5  A    between atoms: S1_10  and  N4_11 
REMARK       I    between atoms: N6_17  and  C9_18 
REMARK    6  A    between atoms: C9_18  and  C10_20 
REMARK    7  A    between atoms: C10_20  and  C11_21 
REMARK    8  A    between atoms: C12_23  and  C13_24 
REMARK    9  A    between atoms: C14_25  and  C15_26 
ROOT
HETATM    1  C1  UNL     1      27.604   1.805  53.202  1.00  0.00     0.740 A 
HETATM    2  N2  UNL     1      27.695   2.568  52.102  1.00  0.00     0.131 NA
HETATM    3  C2  UNL     1      26.716   2.214  51.280  1.00  0.00     0.760 A 
HETATM    4  N5  UNL     1      26.050   1.251  51.884  1.00  0.00     0.045 NA
HETATM    5  N6  UNL     1      26.545   0.952  53.070  1.00  0.00    -0.011 N 
HETATM    6  C9  UNL     1      26.091  -0.044  54.029  1.00  0.00     0.268 C 
HETATM    7  O3  UNL     1      26.827  -0.042  55.074  1.00  0.00    -0.270 OA
ENDROOT
BRANCH   3   8
HETATM    8  N3  UNL     1      26.378   2.705  50.007  1.00  0.00    -0.186 N 
HETATM    9  H3  UNL     1      25.973   2.050  49.272  1.00  0.00     0.184 HD
BRANCH   8  10
HETATM   10  C3  UNL     1      26.523   4.048  49.575  1.00  0.00     0.049 A 
HETATM   11  C4  UNL     1      25.586   5.022  49.931  1.00  0.00     0.031 A 
HETATM   12  C5  UNL     1      25.661   6.322  49.555  1.00  0.00     0.027 A 
HETATM   13  C6  UNL     1      26.694   6.769  48.779  1.00  0.00     0.074 A 
HETATM   14  C7  UNL     1      27.649   5.850  48.398  1.00  0.00     0.027 A 
HETATM   15  C8  UNL     1      27.531   4.557  48.800  1.00  0.00     0.031 A 
BRANCH  13  16
HETATM   16  S1  UNL     1      26.815   8.436  48.280  1.00  0.00     0.239 S 
HETATM   17  O1  UNL     1      26.961   8.590  46.793  1.00  0.00    -0.206 OA
HETATM   18  O2  UNL     1      27.977   9.086  49.000  1.00  0.00    -0.206 OA
BRANCH  16  19
HETATM   19  N4  UNL     1      25.399   9.289  48.809  1.00  0.00    -0.225 NA
HETATM   20  H6  UNL     1      25.059   8.978  49.726  1.00  0.00     0.136 HD
HETATM   21  H7  UNL     1      24.733   9.273  48.026  1.00  0.00     0.136 HD
ENDBRANCH  16  19
ENDBRANCH  13  16
ENDBRANCH   8  10
ENDBRANCH   3   8
BRANCH   1  22
HETATM   22  N1  UNL     1      28.486   1.893  54.315  1.00  0.00    -0.230 N 
HETATM   23  H1  UNL     1      28.608   0.994  54.843  1.00  0.00     0.174 HD
HETATM   24  H2  UNL     1      29.013   2.745  54.653  1.00  0.00     0.174 HD
ENDBRANCH   1  22
BRANCH   6  25
HETATM   25  C10 UNL     1      24.887  -0.786  53.515  1.00  0.00     0.175 C 
BRANCH  25  26
HETATM   26  C11 UNL     1      23.625  -0.108  53.617  1.00  0.00     0.102 C 
HETATM   27  F1  UNL     1      23.042  -0.830  54.653  1.00  0.00    -0.210 F 
HETATM   28  C12 UNL     1      22.791   0.827  53.215  1.00  0.00     0.038 C 
BRANCH  28  29
HETATM   29  C13 UNL     1      22.595   1.906  52.296  1.00  0.00     0.001 C 
HETATM   30  C14 UNL     1      22.828   3.172  52.046  1.00  0.00     0.004 C 
BRANCH  30  31
HETATM   31  C15 UNL     1      23.585   4.115  52.898  1.00  0.00     0.249 C 
HETATM   32  F2  UNL     1      24.502   3.351  53.631  1.00  0.00    -0.251 F 
ENDBRANCH  30  31
ENDBRANCH  28  29
ENDBRANCH  25  26
ENDBRANCH   6  25
TORSDOF 9
ENDMDL
MODEL 6
REMARK VINA RESULT:      -7.8      4.948      7.054
REMARK  9 active torsions:
REMARK  status: ('A' for Active; 'I' for Inactive)
REMARK    1  A    between atoms: N1_1  and  C1_2 
REMARK    2  A    between atoms: C2_4  and  N3_5 
REMARK    3  A    between atoms: N3_5  and  C3_6 
REMARK    4  A    between atoms: C6_9  and  S1_10 
REMARK    5  A    between atoms: S1_10  and  N4_11 
REMARK       I    between atoms: N6_17  and  C9_18 
REMARK    6  A    between atoms: C9_18  and  C10_20 
REMARK    7  A    between atoms: C10_20  and  C11_21 
REMARK    8  A    between atoms: C12_23  and  C13_24 
REMARK    9  A    between atoms: C14_25  and  C15_26 
ROOT
HETATM    1  C1  UNL     1      24.339  -1.201  55.596  1.00  0.00     0.740 A 
HETATM    2  N2  UNL     1      23.016  -1.420  55.627  1.00  0.00     0.131 NA
HETATM    3  C2  UNL     1      22.535  -1.171  54.417  1.00  0.00     0.760 A 
HETATM    4  N5  UNL     1      23.560  -0.807  53.673  1.00  0.00     0.045 NA
HETATM    5  N6  UNL     1      24.699  -0.805  54.339  1.00  0.00    -0.011 N 
HETATM    6  C9  UNL     1      26.034  -0.466  53.870  1.00  0.00     0.268 C 
HETATM    7  O3  UNL     1      26.893  -0.584  54.811  1.00  0.00    -0.270 OA
ENDROOT
BRANCH   3   8
HETATM    8  N3  UNL     1      21.217  -1.249  53.930  1.00  0.00    -0.186 N 
HETATM    9  H3  UNL     1      20.656  -2.145  54.054  1.00  0.00     0.184 HD
BRANCH   8  10
HETATM   10  C3  UNL     1      20.521  -0.210  53.262  1.00  0.00     0.049 A 
HETATM   11  C4  UNL     1      20.938   1.120  53.374  1.00  0.00     0.031 A 
HETATM   12  C5  UNL     1      20.322   2.162  52.764  1.00  0.00     0.027 A 
HETATM   13  C6  UNL     1      19.220   1.964  51.980  1.00  0.00     0.074 A 
HETATM   14  C7  UNL     1      18.766   0.670  51.834  1.00  0.00     0.027 A 
HETATM   15  C8  UNL     1      19.416  -0.342  52.464  1.00  0.00     0.031 A 
BRANCH  13  16
HETATM   16  S1  UNL     1      18.407   3.287  51.184  1.00  0.00     0.239 S 
HETATM   17  O1  UNL     1      17.370   3.940  52.052  1.00  0.00    -0.206 OA
HETATM   18  O2  UNL     1      17.787   2.787  49.897  1.00  0.00    -0.206 OA
BRANCH  16  19
HETATM   19  N4  UNL     1      19.586   4.470  50.708  1.00  0.00    -0.225 NA
HETATM   20  H6  UNL     1      19.503   5.352  51.224  1.00  0.00     0.136 HD
HETATM   21  H7  UNL     1      19.562   4.516  49.681  1.00  0.00     0.136 HD
ENDBRANCH  16  19
ENDBRANCH  13  16
ENDBRANCH   8  10
ENDBRANCH   3   8
BRANCH   1  22
HETATM   22  N1  UNL     1      25.206  -1.364  56.712  1.00  0.00    -0.230 N 
HETATM   23  H1  UNL     1      25.721  -2.279  56.731  1.00  0.00     0.174 HD
HETATM   24  H2  UNL     1      25.380  -0.678  57.498  1.00  0.00     0.174 HD
ENDBRANCH   1  22
BRANCH   6  25
HETATM   25  C10 UNL     1      26.019  -0.078  52.417  1.00  0.00     0.175 C 
BRANCH  25  26
HETATM   26  C11 UNL     1      25.925   1.327  52.130  1.00  0.00     0.102 C 
HETATM   27  F1  UNL     1      27.022   1.479  51.288  1.00  0.00    -0.210 F 
HETATM   28  C12 UNL     1      25.325   2.488  52.277  1.00  0.00     0.038 C 
BRANCH  28  29
HETATM   29  C13 UNL     1      24.236   3.174  52.904  1.00  0.00     0.001 C 
HETATM   30  C14 UNL     1      23.414   4.194  52.835  1.00  0.00     0.004 C 
BRANCH  30  31
HETATM   31  C15 UNL     1      23.374   5.223  51.773  1.00  0.00     0.249 C 
HETATM   32  F2  UNL     1      22.862   4.603  50.627  1.00  0.00    -0.251 F 
ENDBRANCH  30  31
ENDBRANCH  28  29
ENDBRANCH  25  26
ENDBRANCH   6  25
TORSDOF 9
ENDMDL
MODEL 7
REMARK VINA RESULT:      -7.7      4.506      6.369
REMARK  9 active torsions:
REMARK  status: ('A' for Active; 'I' for Inactive)
REMARK    1  A    between atoms: N1_1  and  C1_2 
REMARK    2  A    between atoms: C2_4  and  N3_5 
REMARK    3  A    between atoms: N3_5  and  C3_6 
REMARK    4  A    between atoms: C6_9  and  S1_10 
REMARK    5  A    between atoms: S1_10  and  N4_11 
REMARK       I    between atoms: N6_17  and  C9_18 
REMARK    6  A    between atoms: C9_18  and  C10_20 
REMARK    7  A    between atoms: C10_20  and  C11_21 
REMARK    8  A    between atoms: C12_23  and  C13_24 
REMARK    9  A    between atoms: C14_25  and  C15_26 
ROOT
HETATM    1  C1  UNL     1      24.559  -1.042  55.286  1.00  0.00     0.740 A 
HETATM    2  N2  UNL     1      23.224  -1.150  55.207  1.00  0.00     0.131 NA
HETATM    3  C2  UNL     1      22.870  -0.891  53.956  1.00  0.00     0.760 A 
HETATM    4  N5  UNL     1      23.981  -0.631  53.297  1.00  0.00     0.045 NA
HETATM    5  N6  UNL     1      25.056  -0.707  54.057  1.00  0.00    -0.011 N 
HETATM    6  C9  UNL     1      26.450  -0.492  53.700  1.00  0.00     0.268 C 
HETATM    7  O3  UNL     1      27.213  -0.658  54.712  1.00  0.00    -0.270 OA
ENDROOT
BRANCH   3   8
HETATM    8  N3  UNL     1      21.596  -0.871  53.359  1.00  0.00    -0.186 N 
HETATM    9  H3  UNL     1      20.908  -1.662  53.545  1.00  0.00     0.184 HD
BRANCH   8  10
HETATM   10  C3  UNL     1      21.105   0.141  52.496  1.00  0.00     0.049 A 
HETATM   11  C4  UNL     1      21.445   0.154  51.140  1.00  0.00     0.031 A 
HETATM   12  C5  UNL     1      21.013   1.088  50.258  1.00  0.00     0.027 A 
HETATM   13  C6  UNL     1      20.193   2.106  50.660  1.00  0.00     0.074 A 
HETATM   14  C7  UNL     1      19.824   2.141  51.988  1.00  0.00     0.027 A 
HETATM   15  C8  UNL     1      20.282   1.182  52.835  1.00  0.00     0.031 A 
BRANCH  13  16
HETATM   16  S1  UNL     1      19.622   3.321  49.546  1.00  0.00     0.239 S 
HETATM   17  O1  UNL     1      20.719   4.224  49.057  1.00  0.00    -0.206 OA
HETATM   18  O2  UNL     1      18.525   4.126  50.208  1.00  0.00    -0.206 OA
BRANCH  16  19
HETATM   19  N4  UNL     1      18.876   2.538  48.189  1.00  0.00    -0.225 NA
HETATM   20  H6  UNL     1      18.226   3.146  47.679  1.00  0.00     0.136 HD
HETATM   21  H7  UNL     1      18.516   1.636  48.527  1.00  0.00     0.136 HD
ENDBRANCH  16  19
ENDBRANCH  13  16
ENDBRANCH   8  10
ENDBRANCH   3   8
BRANCH   1  22
HETATM   22  N1  UNL     1      25.313  -1.249  56.475  1.00  0.00    -0.230 N 
HETATM   23  H1  UNL     1      26.287  -0.858  56.445  1.00  0.00     0.174 HD
HETATM   24  H2  UNL     1      25.000  -1.741  57.358  1.00  0.00     0.174 HD
ENDBRANCH   1  22
BRANCH   6  25
HETATM   25  C10 UNL     1      26.590  -0.139  52.244  1.00  0.00     0.175 C 
BRANCH  25  26
HETATM   26  C11 UNL     1      26.686   1.259  51.930  1.00  0.00     0.102 C 
HETATM   27  F1  UNL     1      27.954   1.536  52.431  1.00  0.00    -0.210 F 
HETATM   28  C12 UNL     1      26.171   2.357  51.420  1.00  0.00     0.038 C 
BRANCH  28  29
HETATM   29  C13 UNL     1      25.031   2.922  50.765  1.00  0.00     0.001 C 
HETATM   30  C14 UNL     1      23.845   3.459  50.926  1.00  0.00     0.004 C 
BRANCH  30  31
HETATM   31  C15 UNL     1      23.153   3.702  52.210  1.00  0.00     0.249 C 
HETATM   32  F2  UNL     1      23.339   2.556  52.993  1.00  0.00    -0.251 F 
ENDBRANCH  30  31
ENDBRANCH  28  29
ENDBRANCH  25  26
ENDBRANCH   6  25
TORSDOF 9
ENDMDL
MODEL 8
REMARK VINA RESULT:      -7.6      3.423      5.112
REMARK  9 active torsions:
REMARK  status: ('A' for Active; 'I' for Inactive)
REMARK    1  A    between atoms: N1_1  and  C1_2 
REMARK    2  A    between atoms: C2_4  and  N3_5 
REMARK    3  A    between atoms: N3_5  and  C3_6 
REMARK    4  A    between atoms: C6_9  and  S1_10 
REMARK    5  A    between atoms: S1_10  and  N4_11 
REMARK       I    between atoms: N6_17  and  C9_18 
REMARK    6  A    between atoms: C9_18  and  C10_20 
REMARK    7  A    between atoms: C10_20  and  C11_21 
REMARK    8  A    between atoms: C12_23  and  C13_24 
REMARK    9  A    between atoms: C14_25  and  C15_26 
ROOT
HETATM    1  C1  UNL     1      25.931   1.214  53.627  1.00  0.00     0.740 A 
HETATM    2  N2  UNL     1      26.021   2.166  52.686  1.00  0.00     0.131 NA
HETATM    3  C2  UNL     1      24.997   2.014  51.856  1.00  0.00     0.760 A 
HETATM    4  N5  UNL     1      24.306   0.984  52.298  1.00  0.00     0.045 NA
HETATM    5  N6  UNL     1      24.826   0.446  53.384  1.00  0.00    -0.011 N 
HETATM    6  C9  UNL     1      24.357  -0.693  54.159  1.00  0.00     0.268 C 
HETATM    7  O3  UNL     1      25.128  -0.918  55.154  1.00  0.00    -0.270 OA
ENDROOT
BRANCH   3   8
HETATM    8  N3  UNL     1      24.640   2.751  50.712  1.00  0.00    -0.186 N 
HETATM    9  H3  UNL     1      23.701   2.582  50.241  1.00  0.00     0.184 HD
BRANCH   8  10
HETATM   10  C3  UNL     1      25.436   3.746  50.090  1.00  0.00     0.049 A 
HETATM   11  C4  UNL     1      25.037   5.085  50.087  1.00  0.00     0.031 A 
HETATM   12  C5  UNL     1      25.747   6.087  49.512  1.00  0.00     0.027 A 
HETATM   13  C6  UNL     1      26.933   5.834  48.880  1.00  0.00     0.074 A 
HETATM   14  C7  UNL     1      27.374   4.528  48.853  1.00  0.00     0.027 A 
HETATM   15  C8  UNL     1      26.629   3.557  49.443  1.00  0.00     0.031 A 
BRANCH  13  16
HETATM   16  S1  UNL     1      27.866   7.104  48.132  1.00  0.00     0.239 S 
HETATM   17  O1  UNL     1      27.067   7.912  47.149  1.00  0.00    -0.206 OA
HETATM   18  O2  UNL     1      29.080   6.499  47.461  1.00  0.00    -0.206 OA
BRANCH  16  19
HETATM   19  N4  UNL     1      28.486   8.153  49.368  1.00  0.00    -0.225 NA
HETATM   20  H6  UNL     1      27.861   8.237  50.177  1.00  0.00     0.136 HD
HETATM   21  H7  UNL     1      28.778   9.021  48.902  1.00  0.00     0.136 HD
ENDBRANCH  16  19
ENDBRANCH  13  16
ENDBRANCH   8  10
ENDBRANCH   3   8
BRANCH   1  22
HETATM   22  N1  UNL     1      26.853   1.053  54.698  1.00  0.00    -0.230 N 
HETATM   23  H1  UNL     1      26.977   0.061  55.018  1.00  0.00     0.174 HD
HETATM   24  H2  UNL     1      27.410   1.808  55.187  1.00  0.00     0.174 HD
ENDBRANCH   1  22
BRANCH   6  25
HETATM   25  C10 UNL     1      23.101  -1.273  53.568  1.00  0.00     0.175 C 
BRANCH  25  26
HETATM   26  C11 UNL     1      21.859  -0.796  54.109  1.00  0.00     0.102 C 
HETATM   27  F1  UNL     1      22.204  -0.685  55.453  1.00  0.00    -0.210 F 
HETATM   28  C12 UNL     1      20.605  -0.432  53.951  1.00  0.00     0.038 C 
BRANCH  28  29
HETATM   29  C13 UNL     1      19.546  -0.258  53.005  1.00  0.00     0.001 C 
HETATM   30  C14 UNL     1      18.346  -0.643  52.638  1.00  0.00     0.004 C 
BRANCH  30  31
HETATM   31  C15 UNL     1      17.508  -1.668  53.299  1.00  0.00     0.249 C 
HETATM   32  F2  UNL     1      18.319  -2.794  53.486  1.00  0.00    -0.251 F 
ENDBRANCH  30  31
ENDBRANCH  28  29
ENDBRANCH  25  26
ENDBRANCH   6  25
TORSDOF 9
ENDMDL
MODEL 9
REMARK VINA RESULT:      -7.5      3.990      8.125
REMARK  9 active torsions:
REMARK  status: ('A' for Active; 'I' for Inactive)
REMARK    1  A    between atoms: N1_1  and  C1_2 
REMARK    2  A    between atoms: C2_4  and  N3_5 
REMARK    3  A    between atoms: N3_5  and  C3_6 
REMARK    4  A    between atoms: C6_9  and  S1_10 
REMARK    5  A    between atoms: S1_10  and  N4_11 
REMARK       I    between atoms: N6_17  and  C9_18 
REMARK    6  A    between atoms: C9_18  and  C10_20 
REMARK    7  A    between atoms: C10_20  and  C11_21 
REMARK    8  A    between atoms: C12_23  and  C13_24 
REMARK    9  A    between atoms: C14_25  and  C15_26 
ROOT
HETATM    1  C1  UNL     1      25.359   7.026  50.328  1.00  0.00     0.740 A 
HETATM    2  N2  UNL     1      24.626   5.971  50.715  1.00  0.00     0.131 NA
HETATM    3  C2  UNL     1      25.049   4.913  50.035  1.00  0.00     0.760 A 
HETATM    4  N5  UNL     1      26.021   5.334  49.252  1.00  0.00     0.045 NA
HETATM    5  N6  UNL     1      26.262   6.624  49.384  1.00  0.00    -0.011 N 
HETATM    6  C9  UNL     1      27.247   7.448  48.701  1.00  0.00     0.268 C 
HETATM    7  O3  UNL     1      27.182   8.662  49.095  1.00  0.00    -0.270 OA
ENDROOT
BRANCH   3   8
HETATM    8  N3  UNL     1      24.610   3.577  50.072  1.00  0.00    -0.186 N 
HETATM    9  H3  UNL     1      23.849   3.246  49.406  1.00  0.00     0.184 HD
BRANCH   8  10
HETATM   10  C3  UNL     1      25.100   2.572  50.945  1.00  0.00     0.049 A 
HETATM   11  C4  UNL     1      24.230   1.852  51.769  1.00  0.00     0.031 A 
HETATM   12  C5  UNL     1      24.627   0.880  52.626  1.00  0.00     0.027 A 
HETATM   13  C6  UNL     1      25.946   0.538  52.737  1.00  0.00     0.074 A 
HETATM   14  C7  UNL     1      26.849   1.217  51.946  1.00  0.00     0.027 A 
HETATM   15  C8  UNL     1      26.404   2.184  51.102  1.00  0.00     0.031 A 
BRANCH  13  16
HETATM   16  S1  UNL     1      26.484  -0.709  53.831  1.00  0.00     0.239 S 
HETATM   17  O1  UNL     1      26.968  -1.940  53.119  1.00  0.00    -0.206 OA
HETATM   18  O2  UNL     1      25.360  -1.052  54.785  1.00  0.00    -0.206 OA
BRANCH  16  19
HETATM   19  N4  UNL     1      27.763  -0.079  54.821  1.00  0.00    -0.225 NA
HETATM   20  H6  UNL     1      27.930  -0.633  55.667  1.00  0.00     0.136 HD
HETATM   21  H7  UNL     1      27.579   0.926  54.940  1.00  0.00     0.136 HD
ENDBRANCH  16  19
ENDBRANCH  13  16
ENDBRANCH   8  10
ENDBRANCH   3   8
BRANCH   1  22
HETATM   22  N1  UNL     1      25.199   8.345  50.837  1.00  0.00    -0.230 N 
HETATM   23  H1  UNL     1      24.929   8.388  51.852  1.00  0.00     0.174 HD
HETATM   24  H2  UNL     1      25.320   9.256  50.315  1.00  0.00     0.174 HD
ENDBRANCH   1  22
BRANCH   6  25
HETATM   25  C10 UNL     1      28.059   6.633  47.730  1.00  0.00     0.175 C 
BRANCH  25  26
HETATM   26  C11 UNL     1      29.294   6.091  48.225  1.00  0.00     0.102 C 
HETATM   27  F1  UNL     1      29.059   4.733  48.032  1.00  0.00    -0.210 F 
HETATM   28  C12 UNL     1      30.488   6.256  48.752  1.00  0.00     0.038 C 
BRANCH  28  29
HETATM   29  C13 UNL     1      31.436   7.215  49.228  1.00  0.00     0.001 C 
HETATM   30  C14 UNL     1      31.650   8.477  49.517  1.00  0.00     0.004 C 
BRANCH  30  31
HETATM   31  C15 UNL     1      30.679   9.586  49.394  1.00  0.00     0.249 C 
HETATM   32  F2  UNL     1      30.181   9.545  48.087  1.00  0.00    -0.251 F 
ENDBRANCH  30  31
ENDBRANCH  28  29
ENDBRANCH  25  26
ENDBRANCH   6  25
TORSDOF 9
ENDMDL
