MODEL 1
REMARK VINA RESULT:      -8.6      0.000      0.000
REMARK  3 active torsions:
REMARK  status: ('A' for Active; 'I' for Inactive)
REMARK    1  A    between atoms: C1_2  and  C2_3 
REMARK       I    between atoms: C2_3  and  N2_5 
REMARK    2  A    between atoms: N2_5  and  C3_6 
REMARK    3  A    between atoms: N3_13  and  C10_14 
ROOT
HETATM    1  C3  UNL     1      26.031   0.080  52.383  1.00  0.00     0.035 A 
HETATM    2  C4  UNL     1      24.833  -0.009  53.035  1.00  0.00     0.032 A 
HETATM    3  C5  UNL     1      23.859   0.951  53.047  1.00  0.00     0.034 A 
HETATM    4  C6  UNL     1      24.085   2.122  52.345  1.00  0.00     0.066 A 
HETATM    5  C7  UNL     1      25.276   2.276  51.664  1.00  0.00    -0.007 A 
HETATM    6  C8  UNL     1      26.214   1.258  51.700  1.00  0.00     0.040 A 
HETATM    7  C9  UNL     1      25.810   3.364  50.847  1.00  0.00     0.190 C 
HETATM    8  N3  UNL     1      25.053   4.558  50.770  1.00  0.00    -0.287 N 
HETATM    9  N4  UNL     1      23.967   4.997  51.530  1.00  0.00    -0.291 N 
HETATM   10  C16 UNL     1      22.928   4.243  52.107  1.00  0.00     0.224 C 
HETATM   11  N5  UNL     1      22.994   3.024  52.448  1.00  0.00    -0.242 NA
HETATM   12  H13 UNL     1      23.926   6.047  51.692  1.00  0.00     0.188 HD
ENDROOT
BRANCH   1  13
HETATM   13  N2  UNL     1      27.047  -0.897  52.361  1.00  0.00    -0.322 N 
HETATM   14  C2  UNL     1      28.026  -1.181  53.326  1.00  0.00     0.262 C 
HETATM   15  O1  UNL     1      28.060  -0.514  54.369  1.00  0.00    -0.267 OA
HETATM   16  H3  UNL     1      27.125  -1.530  51.526  1.00  0.00     0.169 HD
BRANCH  14  17
HETATM   17  C1  UNL     1      29.026  -2.238  53.163  1.00  0.00     0.181 C 
HETATM   18  N1  UNL     1      28.643  -3.451  53.144  1.00  0.00    -0.307 NA
HETATM   19  H1  UNL     1      29.314  -4.241  53.031  1.00  0.00     0.186 HD
ENDBRANCH  14  17
ENDBRANCH   1  13
BRANCH   8  20
HETATM   20  C10 UNL     1      25.504   5.435  49.743  1.00  0.00     0.052 A 
HETATM   21  C11 UNL     1      24.695   6.312  49.052  1.00  0.00     0.031 A 
HETATM   22  C12 UNL     1      25.111   7.165  48.067  1.00  0.00     0.004 A 
HETATM   23  C13 UNL     1      26.440   7.170  47.713  1.00  0.00     0.019 A 
HETATM   24  C14 UNL     1      27.329   6.316  48.357  1.00  0.00     0.013 A 
HETATM   25 BR1  UNL     1      29.148   6.334  47.860  1.00  0.00    -0.051 Br
HETATM   26  C15 UNL     1      26.820   5.492  49.338  1.00  0.00     0.050 A 
ENDBRANCH   8  20
TORSDOF 3
ENDMDL
MODEL 2
REMARK VINA RESULT:      -8.2      4.619      7.987
REMARK  3 active torsions:
REMARK  status: ('A' for Active; 'I' for Inactive)
REMARK    1  A    between atoms: C1_2  and  C2_3 
REMARK       I    between atoms: C2_3  and  N2_5 
REMARK    2  A    between atoms: N2_5  and  C3_6 
REMARK    3  A    between atoms: N3_13  and  C10_14 
ROOT
HETATM    1  C3  UNL     1      23.996   7.403  50.877  1.00  0.00     0.035 A 
HETATM    2  C4  UNL     1      22.729   7.810  50.567  1.00  0.00     0.032 A 
HETATM    3  C5  UNL     1      21.609   7.026  50.601  1.00  0.00     0.034 A 
HETATM    4  C6  UNL     1      21.748   5.703  50.980  1.00  0.00     0.066 A 
HETATM    5  C7  UNL     1      23.002   5.227  51.306  1.00  0.00    -0.007 A 
HETATM    6  C8  UNL     1      24.089   6.083  51.247  1.00  0.00     0.040 A 
HETATM    7  C9  UNL     1      23.475   3.912  51.735  1.00  0.00     0.190 C 
HETATM    8  N3  UNL     1      22.538   2.852  51.755  1.00  0.00    -0.287 N 
HETATM    9  N4  UNL     1      21.255   2.762  51.210  1.00  0.00    -0.291 N 
HETATM   10  C16 UNL     1      20.283   3.769  51.064  1.00  0.00     0.224 C 
HETATM   11  N5  UNL     1      20.507   5.012  50.968  1.00  0.00    -0.242 NA
HETATM   12  H13 UNL     1      20.983   1.796  50.857  1.00  0.00     0.188 HD
ENDROOT
BRANCH   1  13
HETATM   13  N2  UNL     1      25.162   8.195  50.846  1.00  0.00    -0.322 N 
HETATM   14  C2  UNL     1      26.144   8.290  49.846  1.00  0.00     0.262 C 
HETATM   15  O1  UNL     1      26.032   7.606  48.820  1.00  0.00    -0.267 OA
HETATM   16  H3  UNL     1      25.371   8.823  51.661  1.00  0.00     0.169 HD
BRANCH  14  17
HETATM   17  C1  UNL     1      27.312   9.167  49.955  1.00  0.00     0.181 C 
HETATM   18  N1  UNL     1      27.685   9.557  51.106  1.00  0.00    -0.307 NA
HETATM   19  H1  UNL     1      28.509  10.182  51.238  1.00  0.00     0.186 HD
ENDBRANCH  14  17
ENDBRANCH   1  13
BRANCH   8  20
HETATM   20  C10 UNL     1      23.015   1.702  52.446  1.00  0.00     0.052 A 
HETATM   21  C11 UNL     1      24.348   1.398  52.632  1.00  0.00     0.031 A 
HETATM   22  C12 UNL     1      24.825   0.302  53.297  1.00  0.00     0.004 A 
HETATM   23  C13 UNL     1      23.926  -0.590  53.835  1.00  0.00     0.019 A 
HETATM   24  C14 UNL     1      22.561  -0.362  53.694  1.00  0.00     0.013 A 
HETATM   25 BR1  UNL     1      21.341  -1.594  54.437  1.00  0.00    -0.051 Br
HETATM   26  C15 UNL     1      22.172   0.769  53.009  1.00  0.00     0.050 A 
ENDBRANCH   8  20
TORSDOF 3
ENDMDL
MODEL 3
REMARK VINA RESULT:      -8.2      4.165      6.519
REMARK  3 active torsions:
REMARK  status: ('A' for Active; 'I' for Inactive)
REMARK    1  A    between atoms: C1_2  and  C2_3 
REMARK       I    between atoms: C2_3  and  N2_5 
REMARK    2  A    between atoms: N2_5  and  C3_6 
REMARK    3  A    between atoms: N3_13  and  C10_14 
ROOT
HETATM    1  C3  UNL     1      26.218   0.488  52.388  1.00  0.00     0.035 A 
HETATM    2  C4  UNL     1      26.447   1.832  52.482  1.00  0.00     0.032 A 
HETATM    3  C5  UNL     1      25.485   2.805  52.504  1.00  0.00     0.034 A 
HETATM    4  C6  UNL     1      24.160   2.416  52.426  1.00  0.00     0.066 A 
HETATM    5  C7  UNL     1      23.859   1.073  52.329  1.00  0.00    -0.007 A 
HETATM    6  C8  UNL     1      24.888   0.147  52.312  1.00  0.00     0.040 A 
HETATM    7  C9  UNL     1      22.591   0.352  52.233  1.00  0.00     0.190 C 
HETATM    8  N3  UNL     1      21.407   1.119  52.121  1.00  0.00    -0.287 N 
HETATM    9  N4  UNL     1      21.226   2.477  51.847  1.00  0.00    -0.291 N 
HETATM   10  C16 UNL     1      22.033   3.569  52.216  1.00  0.00     0.224 C 
HETATM   11  N5  UNL     1      23.277   3.528  52.458  1.00  0.00    -0.242 NA
HETATM   12  H13 UNL     1      20.357   2.710  51.281  1.00  0.00     0.188 HD
ENDROOT
BRANCH   1  13
HETATM   13  N2  UNL     1      27.194  -0.529  52.362  1.00  0.00    -0.322 N 
HETATM   14  C2  UNL     1      27.969  -1.041  53.415  1.00  0.00     0.262 C 
HETATM   15  O1  UNL     1      27.826  -0.578  54.554  1.00  0.00    -0.267 OA
HETATM   16  H3  UNL     1      27.410  -1.003  51.450  1.00  0.00     0.169 HD
BRANCH  14  17
HETATM   17  C1  UNL     1      28.954  -2.110  53.235  1.00  0.00     0.181 C 
HETATM   18  N1  UNL     1      28.572  -3.320  53.319  1.00  0.00    -0.307 NA
HETATM   19  H1  UNL     1      29.234  -4.118  53.199  1.00  0.00     0.186 HD
ENDBRANCH  14  17
ENDBRANCH   1  13
BRANCH   8  20
HETATM   20  C10 UNL     1      20.226   0.349  52.317  1.00  0.00     0.052 A 
HETATM   21  C11 UNL     1      20.002  -0.478  53.397  1.00  0.00     0.031 A 
HETATM   22  C12 UNL     1      18.873  -1.221  53.606  1.00  0.00     0.004 A 
HETATM   23  C13 UNL     1      17.859  -1.160  52.678  1.00  0.00     0.019 A 
HETATM   24  C14 UNL     1      18.000  -0.351  51.555  1.00  0.00     0.013 A 
HETATM   25 BR1  UNL     1      16.601  -0.278  50.292  1.00  0.00    -0.051 Br
HETATM   26  C15 UNL     1      19.173   0.362  51.429  1.00  0.00     0.050 A 
ENDBRANCH   8  20
TORSDOF 3
ENDMDL
MODEL 4
REMARK VINA RESULT:      -8.2      4.756      5.610
REMARK  3 active torsions:
REMARK  status: ('A' for Active; 'I' for Inactive)
REMARK    1  A    between atoms: C1_2  and  C2_3 
REMARK       I    between atoms: C2_3  and  N2_5 
REMARK    2  A    between atoms: N2_5  and  C3_6 
REMARK    3  A    between atoms: N3_13  and  C10_14 
ROOT
HETATM    1  C3  UNL     1      25.726   0.045  54.804  1.00  0.00     0.035 A 
HETATM    2  C4  UNL     1      25.303  -0.935  55.657  1.00  0.00     0.032 A 
HETATM    3  C5  UNL     1      24.063  -1.512  55.658  1.00  0.00     0.034 A 
HETATM    4  C6  UNL     1      23.140  -1.081  54.722  1.00  0.00     0.066 A 
HETATM    5  C7  UNL     1      23.503  -0.093  53.829  1.00  0.00    -0.007 A 
HETATM    6  C8  UNL     1      24.778   0.442  53.891  1.00  0.00     0.040 A 
HETATM    7  C9  UNL     1      22.780   0.567  52.744  1.00  0.00     0.190 C 
HETATM    8  N3  UNL     1      21.411   0.246  52.576  1.00  0.00    -0.287 N 
HETATM    9  N4  UNL     1      20.528  -0.435  53.418  1.00  0.00    -0.291 N 
HETATM   10  C16 UNL     1      20.788  -1.503  54.296  1.00  0.00     0.224 C 
HETATM   11  N5  UNL     1      21.901  -1.764  54.842  1.00  0.00    -0.242 NA
HETATM   12  H13 UNL     1      19.522  -0.092  53.386  1.00  0.00     0.188 HD
ENDROOT
BRANCH   1  13
HETATM   13  N2  UNL     1      26.998   0.652  54.788  1.00  0.00    -0.322 N 
HETATM   14  C2  UNL     1      28.131   0.317  54.030  1.00  0.00     0.262 C 
HETATM   15  O1  UNL     1      28.074  -0.638  53.244  1.00  0.00    -0.267 OA
HETATM   16  H3  UNL     1      27.175   1.476  55.414  1.00  0.00     0.169 HD
BRANCH  14  17
HETATM   17  C1  UNL     1      29.397   1.047  54.121  1.00  0.00     0.181 C 
HETATM   18  N1  UNL     1      29.376   2.282  54.427  1.00  0.00    -0.307 NA
HETATM   19  H1  UNL     1      30.249   2.848  54.504  1.00  0.00     0.186 HD
ENDBRANCH  14  17
ENDBRANCH   1  13
BRANCH   8  20
HETATM   20  C10 UNL     1      20.878   0.713  51.342  1.00  0.00     0.052 A 
HETATM   21  C11 UNL     1      19.533   0.781  51.046  1.00  0.00     0.031 A 
HETATM   22  C12 UNL     1      19.003   1.231  49.868  1.00  0.00     0.004 A 
HETATM   23  C13 UNL     1      19.857   1.657  48.877  1.00  0.00     0.019 A 
HETATM   24  C14 UNL     1      21.231   1.622  49.089  1.00  0.00     0.013 A 
HETATM   25 BR1  UNL     1      22.389   2.209  47.720  1.00  0.00    -0.051 Br
HETATM   26  C15 UNL     1      21.675   1.153  50.307  1.00  0.00     0.050 A 
ENDBRANCH   8  20
TORSDOF 3
ENDMDL
MODEL 5
REMARK VINA RESULT:      -8.1      3.995      6.087
REMARK  3 active torsions:
REMARK  status: ('A' for Active; 'I' for Inactive)
REMARK    1  A    between atoms: C1_2  and  C2_3 
REMARK       I    between atoms: C2_3  and  N2_5 
REMARK    2  A    between atoms: N2_5  and  C3_6 
REMARK    3  A    between atoms: N3_13  and  C10_14 
ROOT
HETATM    1  C3  UNL     1      20.758  -0.587  53.740  1.00  0.00     0.035 A 
HETATM    2  C4  UNL     1      21.487  -1.254  54.684  1.00  0.00     0.032 A 
HETATM    3  C5  UNL     1      22.847  -1.202  54.826  1.00  0.00     0.034 A 
HETATM    4  C6  UNL     1      23.566  -0.412  53.947  1.00  0.00     0.066 A 
HETATM    5  C7  UNL     1      22.891   0.289  52.968  1.00  0.00    -0.007 A 
HETATM    6  C8  UNL     1      21.513   0.185  52.889  1.00  0.00     0.040 A 
HETATM    7  C9  UNL     1      23.346   1.190  51.912  1.00  0.00     0.190 C 
HETATM    8  N3  UNL     1      24.742   1.351  51.742  1.00  0.00    -0.287 N 
HETATM    9  N4  UNL     1      25.811   0.616  52.259  1.00  0.00    -0.291 N 
HETATM   10  C16 UNL     1      25.922  -0.026  53.507  1.00  0.00     0.224 C 
HETATM   11  N5  UNL     1      24.961  -0.456  54.211  1.00  0.00    -0.242 NA
HETATM   12  H13 UNL     1      26.654   0.533  51.616  1.00  0.00     0.188 HD
ENDROOT
BRANCH   1  13
HETATM   13  N2  UNL     1      19.359  -0.629  53.577  1.00  0.00    -0.322 N 
HETATM   14  C2  UNL     1      18.592  -0.390  52.426  1.00  0.00     0.262 C 
HETATM   15  O1  UNL     1      19.163  -0.094  51.368  1.00  0.00    -0.267 OA
HETATM   16  H3  UNL     1      18.758  -0.870  54.404  1.00  0.00     0.169 HD
BRANCH  14  17
HETATM   17  C1  UNL     1      17.130  -0.473  52.408  1.00  0.00     0.181 C 
HETATM   18  N1  UNL     1      16.525  -0.905  53.440  1.00  0.00    -0.307 NA
HETATM   19  H1  UNL     1      15.485  -0.983  53.479  1.00  0.00     0.186 HD
ENDBRANCH  14  17
ENDBRANCH   1  13
BRANCH   8  20
HETATM   20  C10 UNL     1      25.076   2.445  50.894  1.00  0.00     0.052 A 
HETATM   21  C11 UNL     1      26.360   2.788  50.529  1.00  0.00     0.031 A 
HETATM   22  C12 UNL     1      26.699   3.832  49.712  1.00  0.00     0.004 A 
HETATM   23  C13 UNL     1      25.698   4.623  49.198  1.00  0.00     0.019 A 
HETATM   24  C14 UNL     1      24.372   4.350  49.516  1.00  0.00     0.013 A 
HETATM   25 BR1  UNL     1      23.011   5.444  48.802  1.00  0.00    -0.051 Br
HETATM   26  C15 UNL     1      24.125   3.277  50.345  1.00  0.00     0.050 A 
ENDBRANCH   8  20
TORSDOF 3
ENDMDL
MODEL 6
REMARK VINA RESULT:      -8.0      4.066      7.281
REMARK  3 active torsions:
REMARK  status: ('A' for Active; 'I' for Inactive)
REMARK    1  A    between atoms: C1_2  and  C2_3 
REMARK       I    between atoms: C2_3  and  N2_5 
REMARK    2  A    between atoms: N2_5  and  C3_6 
REMARK    3  A    between atoms: N3_13  and  C10_14 
ROOT
HETATM    1  C3  UNL     1      26.460   2.255  51.971  1.00  0.00     0.035 A 
HETATM    2  C4  UNL     1      27.275   1.482  52.750  1.00  0.00     0.032 A 
HETATM    3  C5  UNL     1      26.865   0.470  53.573  1.00  0.00     0.034 A 
HETATM    4  C6  UNL     1      25.512   0.187  53.639  1.00  0.00     0.066 A 
HETATM    5  C7  UNL     1      24.634   0.930  52.878  1.00  0.00    -0.007 A 
HETATM    6  C8  UNL     1      25.125   1.940  52.068  1.00  0.00     0.040 A 
HETATM    7  C9  UNL     1      23.181   0.884  52.724  1.00  0.00     0.190 C 
HETATM    8  N3  UNL     1      22.462  -0.010  53.553  1.00  0.00    -0.287 N 
HETATM    9  N4  UNL     1      22.862  -0.719  54.688  1.00  0.00    -0.291 N 
HETATM   10  C16 UNL     1      24.119  -1.278  54.984  1.00  0.00     0.224 C 
HETATM   11  N5  UNL     1      25.235  -0.882  54.532  1.00  0.00    -0.242 NA
HETATM   12  H13 UNL     1      22.108  -0.851  55.426  1.00  0.00     0.188 HD
ENDROOT
BRANCH   1  13
HETATM   13  N2  UNL     1      26.863   3.303  51.119  1.00  0.00    -0.322 N 
HETATM   14  C2  UNL     1      26.371   3.653  49.851  1.00  0.00     0.262 C 
HETATM   15  O1  UNL     1      25.455   2.987  49.351  1.00  0.00    -0.267 OA
HETATM   16  H3  UNL     1      27.636   3.942  51.429  1.00  0.00     0.169 HD
BRANCH  14  17
HETATM   17  C1  UNL     1      26.894   4.780  49.075  1.00  0.00     0.181 C 
HETATM   18  N1  UNL     1      28.149   4.982  49.051  1.00  0.00    -0.307 NA
HETATM   19  H1  UNL     1      28.572   5.770  48.514  1.00  0.00     0.186 HD
ENDBRANCH  14  17
ENDBRANCH   1  13
BRANCH   8  20
HETATM   20  C10 UNL     1      21.112  -0.186  53.139  1.00  0.00     0.052 A 
HETATM   21  C11 UNL     1      20.187  -0.971  53.796  1.00  0.00     0.031 A 
HETATM   22  C12 UNL     1      18.885  -1.148  53.416  1.00  0.00     0.004 A 
HETATM   23  C13 UNL     1      18.431  -0.504  52.288  1.00  0.00     0.019 A 
HETATM   24  C14 UNL     1      19.296   0.307  51.561  1.00  0.00     0.013 A 
HETATM   25 BR1  UNL     1      18.658   1.182  50.017  1.00  0.00    -0.051 Br
HETATM   26  C15 UNL     1      20.591   0.427  52.020  1.00  0.00     0.050 A 
ENDBRANCH   8  20
TORSDOF 3
ENDMDL
MODEL 7
REMARK VINA RESULT:      -7.8      3.964      7.298
REMARK  3 active torsions:
REMARK  status: ('A' for Active; 'I' for Inactive)
REMARK    1  A    between atoms: C1_2  and  C2_3 
REMARK       I    between atoms: C2_3  and  N2_5 
REMARK    2  A    between atoms: N2_5  and  C3_6 
REMARK    3  A    between atoms: N3_13  and  C10_14 
ROOT
HETATM    1  C3  UNL     1      26.508   6.049  48.953  1.00  0.00     0.035 A 
HETATM    2  C4  UNL     1      25.393   6.534  48.329  1.00  0.00     0.032 A 
HETATM    3  C5  UNL     1      24.143   5.980  48.385  1.00  0.00     0.034 A 
HETATM    4  C6  UNL     1      23.971   4.828  49.133  1.00  0.00     0.066 A 
HETATM    5  C7  UNL     1      25.058   4.286  49.789  1.00  0.00    -0.007 A 
HETATM    6  C8  UNL     1      26.292   4.905  49.684  1.00  0.00     0.040 A 
HETATM    7  C9  UNL     1      25.207   3.107  50.639  1.00  0.00     0.190 C 
HETATM    8  N3  UNL     1      24.083   2.260  50.790  1.00  0.00    -0.287 N 
HETATM    9  N4  UNL     1      22.882   2.208  50.078  1.00  0.00    -0.291 N 
HETATM   10  C16 UNL     1      22.153   3.261  49.495  1.00  0.00     0.224 C 
HETATM   11  N5  UNL     1      22.629   4.367  49.099  1.00  0.00    -0.242 NA
HETATM   12  H13 UNL     1      22.468   1.236  49.965  1.00  0.00     0.188 HD
ENDROOT
BRANCH   1  13
HETATM   13  N2  UNL     1      27.803   6.605  48.905  1.00  0.00    -0.322 N 
HETATM   14  C2  UNL     1      29.005   6.017  48.482  1.00  0.00     0.262 C 
HETATM   15  O1  UNL     1      28.999   4.845  48.083  1.00  0.00    -0.267 OA
HETATM   16  H3  UNL     1      27.941   7.597  49.219  1.00  0.00     0.169 HD
BRANCH  14  17
HETATM   17  C1  UNL     1      30.287   6.725  48.489  1.00  0.00     0.181 C 
HETATM   18  N1  UNL     1      30.532   7.546  49.429  1.00  0.00    -0.307 NA
HETATM   19  H1  UNL     1      31.429   8.077  49.480  1.00  0.00     0.186 HD
ENDBRANCH  14  17
ENDBRANCH   1  13
BRANCH   8  20
HETATM   20  C10 UNL     1      24.237   1.315  51.843  1.00  0.00     0.052 A 
HETATM   21  C11 UNL     1      25.447   0.808  52.268  1.00  0.00     0.031 A 
HETATM   22  C12 UNL     1      25.615  -0.096  53.281  1.00  0.00     0.004 A 
HETATM   23  C13 UNL     1      24.504  -0.557  53.949  1.00  0.00     0.019 A 
HETATM   24  C14 UNL     1      23.242  -0.100  53.585  1.00  0.00     0.013 A 
HETATM   25 BR1  UNL     1      21.728  -0.742  54.510  1.00  0.00    -0.051 Br
HETATM   26  C15 UNL     1      23.169   0.811  52.553  1.00  0.00     0.050 A 
ENDBRANCH   8  20
TORSDOF 3
ENDMDL
MODEL 8
REMARK VINA RESULT:      -7.6      3.873      6.956
REMARK  3 active torsions:
REMARK  status: ('A' for Active; 'I' for Inactive)
REMARK    1  A    between atoms: C1_2  and  C2_3 
REMARK       I    between atoms: C2_3  and  N2_5 
REMARK    2  A    between atoms: N2_5  and  C3_6 
REMARK    3  A    between atoms: N3_13  and  C10_14 
ROOT
HETATM    1  C3  UNL     1      26.248   5.989  48.919  1.00  0.00     0.035 A 
HETATM    2  C4  UNL     1      25.234   6.624  48.259  1.00  0.00     0.032 A 
HETATM    3  C5  UNL     1      23.929   6.216  48.219  1.00  0.00     0.034 A 
HETATM    4  C6  UNL     1      23.584   5.062  48.900  1.00  0.00     0.066 A 
HETATM    5  C7  UNL     1      24.561   4.372  49.588  1.00  0.00    -0.007 A 
HETATM    6  C8  UNL     1      25.860   4.848  49.581  1.00  0.00     0.040 A 
HETATM    7  C9  UNL     1      24.524   3.149  50.388  1.00  0.00     0.190 C 
HETATM    8  N3  UNL     1      23.305   2.432  50.435  1.00  0.00    -0.287 N 
HETATM    9  N4  UNL     1      22.150   2.549  49.657  1.00  0.00    -0.291 N 
HETATM   10  C16 UNL     1      21.581   3.702  49.086  1.00  0.00     0.224 C 
HETATM   11  N5  UNL     1      22.202   4.760  48.770  1.00  0.00    -0.242 NA
HETATM   12  H13 UNL     1      21.637   1.636  49.474  1.00  0.00     0.188 HD
ENDROOT
BRANCH   1  13
HETATM   13  N2  UNL     1      27.597   6.393  48.969  1.00  0.00    -0.322 N 
HETATM   14  C2  UNL     1      28.749   5.689  48.583  1.00  0.00     0.262 C 
HETATM   15  O1  UNL     1      28.635   4.544  48.126  1.00  0.00    -0.267 OA
HETATM   16  H3  UNL     1      27.828   7.348  49.340  1.00  0.00     0.169 HD
BRANCH  14  17
HETATM   17  C1  UNL     1      30.100   6.244  48.695  1.00  0.00     0.181 C 
HETATM   18  N1  UNL     1      30.893   5.765  49.566  1.00  0.00    -0.307 NA
HETATM   19  H1  UNL     1      31.865   6.125  49.686  1.00  0.00     0.186 HD
ENDBRANCH  14  17
ENDBRANCH   1  13
BRANCH   8  20
HETATM   20  C10 UNL     1      23.288   1.433  51.449  1.00  0.00     0.052 A 
HETATM   21  C11 UNL     1      22.192   0.657  51.765  1.00  0.00     0.031 A 
HETATM   22  C12 UNL     1      22.159  -0.311  52.731  1.00  0.00     0.004 A 
HETATM   23  C13 UNL     1      23.296  -0.553  53.465  1.00  0.00     0.019 A 
HETATM   24  C14 UNL     1      24.449   0.184  53.215  1.00  0.00     0.013 A 
HETATM   25 BR1  UNL     1      26.000  -0.160  54.232  1.00  0.00    -0.051 Br
HETATM   26  C15 UNL     1      24.390   1.138  52.222  1.00  0.00     0.050 A 
ENDBRANCH   8  20
TORSDOF 3
ENDMDL
MODEL 9
REMARK VINA RESULT:      -7.6      4.242      7.315
REMARK  3 active torsions:
REMARK  status: ('A' for Active; 'I' for Inactive)
REMARK    1  A    between atoms: C1_2  and  C2_3 
REMARK       I    between atoms: C2_3  and  N2_5 
REMARK    2  A    between atoms: N2_5  and  C3_6 
REMARK    3  A    between atoms: N3_13  and  C10_14 
ROOT
HETATM    1  C3  UNL     1      29.553   6.267  47.772  1.00  0.00     0.035 A 
HETATM    2  C4  UNL     1      28.849   7.371  47.380  1.00  0.00     0.032 A 
HETATM    3  C5  UNL     1      27.507   7.566  47.555  1.00  0.00     0.034 A 
HETATM    4  C6  UNL     1      26.778   6.570  48.183  1.00  0.00     0.066 A 
HETATM    5  C7  UNL     1      27.428   5.428  48.605  1.00  0.00    -0.007 A 
HETATM    6  C8  UNL     1      28.790   5.305  48.391  1.00  0.00     0.040 A 
HETATM    7  C9  UNL     1      26.959   4.222  49.283  1.00  0.00     0.190 C 
HETATM    8  N3  UNL     1      25.566   4.091  49.500  1.00  0.00    -0.287 N 
HETATM    9  N4  UNL     1      24.492   4.811  48.972  1.00  0.00    -0.291 N 
HETATM   10  C16 UNL     1      24.425   6.173  48.627  1.00  0.00     0.224 C 
HETATM   11  N5  UNL     1      25.403   6.907  48.294  1.00  0.00    -0.242 NA
HETATM   12  H13 UNL     1      23.607   4.245  48.809  1.00  0.00     0.188 HD
ENDROOT
BRANCH   1  13
HETATM   13  N2  UNL     1      30.934   6.049  47.599  1.00  0.00    -0.322 N 
HETATM   14  C2  UNL     1      31.974   6.156  48.537  1.00  0.00     0.262 C 
HETATM   15  O1  UNL     1      31.709   6.488  49.700  1.00  0.00    -0.267 OA
HETATM   16  H3  UNL     1      31.288   5.762  46.653  1.00  0.00     0.169 HD
BRANCH  14  17
HETATM   17  C1  UNL     1      33.377   5.895  48.208  1.00  0.00     0.181 C 
HETATM   18  N1  UNL     1      34.101   5.273  49.048  1.00  0.00    -0.307 NA
HETATM   19  H1  UNL     1      35.106   5.061  48.863  1.00  0.00     0.186 HD
ENDBRANCH  14  17
ENDBRANCH   1  13
BRANCH   8  20
HETATM   20  C10 UNL     1      25.242   3.040  50.403  1.00  0.00     0.052 A 
HETATM   21  C11 UNL     1      26.164   2.338  51.151  1.00  0.00     0.031 A 
HETATM   22  C12 UNL     1      25.870   1.329  52.028  1.00  0.00     0.004 A 
HETATM   23  C13 UNL     1      24.556   0.960  52.197  1.00  0.00     0.019 A 
HETATM   24  C14 UNL     1      23.558   1.614  51.481  1.00  0.00     0.013 A 
HETATM   25 BR1  UNL     1      21.761   1.096  51.725  1.00  0.00    -0.051 Br
HETATM   26  C15 UNL     1      23.947   2.619  50.621  1.00  0.00     0.050 A 
ENDBRANCH   8  20
TORSDOF 3
ENDMDL
