MODEL 1
REMARK VINA RESULT:      -9.4      0.000      0.000
REMARK  7 active torsions:
REMARK  status: ('A' for Active; 'I' for Inactive)
REMARK    1  A    between atoms: C2_2  and  N1_3 
REMARK    2  A    between atoms: C2_2  and  C20_25 
REMARK    3  A    between atoms: N1_3  and  C3_4 
REMARK    4  A    between atoms: C9_10  and  N2_11 
REMARK    5  A    between atoms: N2_11  and  C10_12 
REMARK    6  A    between atoms: C13_16  and  C14_17 
REMARK    7  A    between atoms: C25_30  and  O1_31 
ROOT
HETATM    1  C3  UNL     1      26.523   2.800  50.215  1.00  0.00     0.198 C 
HETATM    2  C4  UNL     1      26.404   4.047  49.831  1.00  0.00    -0.012 A 
HETATM    3  C5  UNL     1      25.280   4.831  50.334  1.00  0.00     0.015 A 
HETATM    4  C6  UNL     1      25.231   6.078  49.899  1.00  0.00    -0.077 A 
HETATM    5  C7  UNL     1      24.118   6.960  50.358  1.00  0.00     0.044 C 
HETATM    6  C8  UNL     1      26.144   6.801  48.978  1.00  0.00     0.091 A 
HETATM    7  C9  UNL     1      27.216   5.856  48.572  1.00  0.00     0.031 A 
HETATM    8  C19 UNL     1      27.403   4.592  48.916  1.00  0.00     0.038 A 
ENDROOT
BRANCH   7   9
HETATM    9  N2  UNL     1      28.124   6.497  47.685  1.00  0.00    -0.192 N 
HETATM   10  H11 UNL     1      27.832   6.698  46.694  1.00  0.00     0.184 HD
BRANCH   9  11
HETATM   11  C10 UNL     1      29.396   6.848  48.157  1.00  0.00     0.727 A 
HETATM   12  N3  UNL     1      29.563   8.048  48.755  1.00  0.00    -0.075 NA
HETATM   13  C11 UNL     1      30.792   8.359  49.197  1.00  0.00     0.139 A 
HETATM   14  C12 UNL     1      31.840   7.474  49.038  1.00  0.00     0.053 A 
HETATM   15  C13 UNL     1      31.664   6.251  48.426  1.00  0.00     0.089 A 
HETATM   16  N5  UNL     1      30.433   5.974  48.000  1.00  0.00    -0.062 NA
BRANCH  15  17
HETATM   17  C14 UNL     1      32.717   5.264  48.221  1.00  0.00     0.011 A 
HETATM   18  C15 UNL     1      32.337   4.052  47.685  1.00  0.00     0.017 A 
HETATM   19  C16 UNL     1      33.297   3.063  47.462  1.00  0.00     0.020 A 
HETATM   20  C17 UNL     1      34.625   3.343  47.799  1.00  0.00     0.116 A 
HETATM   21  N4  UNL     1      34.996   4.541  48.328  1.00  0.00    -0.272 NA
HETATM   22  C18 UNL     1      34.040   5.481  48.532  1.00  0.00     0.130 A 
ENDBRANCH  15  17
ENDBRANCH   9  11
ENDBRANCH   7   9
BRANCH   1  23
HETATM   23  N1  UNL     1      25.603   2.182  51.103  1.00  0.00    -0.080 N 
HETATM   24  H3  UNL     1      24.651   1.818  50.896  1.00  0.00     0.271 HD
BRANCH  23  25
HETATM   25  C2  UNL     1      25.889   1.967  52.479  1.00  0.00     0.115 C 
HETATM   26  C1  UNL     1      24.749   2.301  53.058  1.00  0.00     0.465 C 
BRANCH  25  27
HETATM   27  C20 UNL     1      27.163   1.493  52.995  1.00  0.00     0.027 A 
HETATM   28  C21 UNL     1      28.010   2.410  53.578  1.00  0.00     0.016 A 
HETATM   29  C22 UNL     1      29.200   1.867  54.041  1.00  0.00     0.001 A 
HETATM   30  C23 UNL     1      29.512   0.520  53.928  1.00  0.00     0.003 A 
HETATM   31  C24 UNL     1      28.606  -0.336  53.329  1.00  0.00     0.037 A 
HETATM   32  C25 UNL     1      27.400   0.163  52.850  1.00  0.00     0.080 A 
BRANCH  32  33
HETATM   33  O1  UNL     1      26.516  -0.716  52.257  1.00  0.00    -0.355 OA
HETATM   34  C26 UNL     1      26.684  -2.118  52.306  1.00  0.00     0.210 C 
ENDBRANCH  32  33
ENDBRANCH  25  27
ENDBRANCH  23  25
ENDBRANCH   1  23
TORSDOF 7
ENDMDL
MODEL 2
REMARK VINA RESULT:      -9.3      2.571      7.933
REMARK  7 active torsions:
REMARK  status: ('A' for Active; 'I' for Inactive)
REMARK    1  A    between atoms: C2_2  and  N1_3 
REMARK    2  A    between atoms: C2_2  and  C20_25 
REMARK    3  A    between atoms: N1_3  and  C3_4 
REMARK    4  A    between atoms: C9_10  and  N2_11 
REMARK    5  A    between atoms: N2_11  and  C10_12 
REMARK    6  A    between atoms: C13_16  and  C14_17 
REMARK    7  A    between atoms: C25_30  and  O1_31 
ROOT
HETATM    1  C3  UNL     1      29.648   5.365  48.169  1.00  0.00     0.198 C 
HETATM    2  C4  UNL     1      28.382   5.570  48.434  1.00  0.00    -0.012 A 
HETATM    3  C5  UNL     1      27.866   6.934  48.375  1.00  0.00     0.015 A 
HETATM    4  C6  UNL     1      26.580   7.056  48.655  1.00  0.00    -0.077 A 
HETATM    5  C7  UNL     1      25.958   8.413  48.620  1.00  0.00     0.044 C 
HETATM    6  C8  UNL     1      25.583   6.018  49.021  1.00  0.00     0.091 A 
HETATM    7  C9  UNL     1      26.281   4.707  49.032  1.00  0.00     0.031 A 
HETATM    8  C19 UNL     1      27.548   4.422  48.777  1.00  0.00     0.038 A 
ENDROOT
BRANCH   7   9
HETATM    9  N2  UNL     1      25.370   3.671  49.378  1.00  0.00    -0.192 N 
HETATM   10  H11 UNL     1      24.904   3.110  48.619  1.00  0.00     0.184 HD
BRANCH   9  11
HETATM   11  C10 UNL     1      25.112   3.421  50.733  1.00  0.00     0.727 A 
HETATM   12  N3  UNL     1      23.998   3.941  51.293  1.00  0.00    -0.075 NA
HETATM   13  C11 UNL     1      23.776   3.686  52.592  1.00  0.00     0.139 A 
HETATM   14  C12 UNL     1      24.664   2.919  53.319  1.00  0.00     0.053 A 
HETATM   15  C13 UNL     1      25.800   2.391  52.742  1.00  0.00     0.089 A 
HETATM   16  N5  UNL     1      25.990   2.662  51.452  1.00  0.00    -0.062 NA
BRANCH  15  17
HETATM   17  C14 UNL     1      26.785   1.572  53.440  1.00  0.00     0.011 A 
HETATM   18  C15 UNL     1      28.111   1.836  53.176  1.00  0.00     0.017 A 
HETATM   19  C16 UNL     1      29.105   1.089  53.812  1.00  0.00     0.020 A 
HETATM   20  C17 UNL     1      28.709   0.086  54.703  1.00  0.00     0.116 A 
HETATM   21  N4  UNL     1      27.397  -0.171  54.960  1.00  0.00    -0.272 NA
HETATM   22  C18 UNL     1      26.457   0.572  54.327  1.00  0.00     0.130 A 
ENDBRANCH  15  17
ENDBRANCH   9  11
ENDBRANCH   7   9
BRANCH   1  23
HETATM   23  N1  UNL     1      30.538   6.417  47.826  1.00  0.00    -0.080 N 
HETATM   24  H3  UNL     1      30.531   7.403  48.156  1.00  0.00     0.271 HD
BRANCH  23  25
HETATM   25  C2  UNL     1      31.625   6.240  46.927  1.00  0.00     0.115 C 
HETATM   26  C1  UNL     1      31.386   7.163  46.011  1.00  0.00     0.465 C 
BRANCH  25  27
HETATM   27  C20 UNL     1      32.679   5.251  47.087  1.00  0.00     0.027 A 
HETATM   28  C21 UNL     1      32.614   4.103  46.327  1.00  0.00     0.016 A 
HETATM   29  C22 UNL     1      33.660   3.219  46.546  1.00  0.00     0.001 A 
HETATM   30  C23 UNL     1      34.684   3.467  47.451  1.00  0.00     0.003 A 
HETATM   31  C24 UNL     1      34.676   4.644  48.175  1.00  0.00     0.037 A 
HETATM   32  C25 UNL     1      33.647   5.561  47.989  1.00  0.00     0.080 A 
BRANCH  32  33
HETATM   33  O1  UNL     1      33.667   6.727  48.727  1.00  0.00    -0.355 OA
HETATM   34  C26 UNL     1      34.587   7.770  48.483  1.00  0.00     0.210 C 
ENDBRANCH  32  33
ENDBRANCH  25  27
ENDBRANCH  23  25
ENDBRANCH   1  23
TORSDOF 7
ENDMDL
MODEL 3
REMARK VINA RESULT:      -9.1      2.746      8.062
REMARK  7 active torsions:
REMARK  status: ('A' for Active; 'I' for Inactive)
REMARK    1  A    between atoms: C2_2  and  N1_3 
REMARK    2  A    between atoms: C2_2  and  C20_25 
REMARK    3  A    between atoms: N1_3  and  C3_4 
REMARK    4  A    between atoms: C9_10  and  N2_11 
REMARK    5  A    between atoms: N2_11  and  C10_12 
REMARK    6  A    between atoms: C13_16  and  C14_17 
REMARK    7  A    between atoms: C25_30  and  O1_31 
ROOT
HETATM    1  C3  UNL     1      29.065   5.535  48.203  1.00  0.00     0.198 C 
HETATM    2  C4  UNL     1      27.778   5.514  48.444  1.00  0.00    -0.012 A 
HETATM    3  C5  UNL     1      26.997   6.717  48.175  1.00  0.00     0.015 A 
HETATM    4  C6  UNL     1      25.706   6.616  48.444  1.00  0.00    -0.077 A 
HETATM    5  C7  UNL     1      24.822   7.794  48.202  1.00  0.00     0.044 C 
HETATM    6  C8  UNL     1      24.933   5.465  48.977  1.00  0.00     0.091 A 
HETATM    7  C9  UNL     1      25.883   4.343  49.189  1.00  0.00     0.031 A 
HETATM    8  C19 UNL     1      27.188   4.288  48.970  1.00  0.00     0.038 A 
ENDROOT
BRANCH   7   9
HETATM    9  N2  UNL     1      25.195   3.210  49.701  1.00  0.00    -0.192 N 
HETATM   10  H11 UNL     1      24.587   2.634  49.063  1.00  0.00     0.184 HD
BRANCH   9  11
HETATM   11  C10 UNL     1      25.342   2.884  51.057  1.00  0.00     0.727 A 
HETATM   12  N3  UNL     1      24.479   3.410  51.953  1.00  0.00    -0.075 NA
HETATM   13  C11 UNL     1      24.643   3.082  53.244  1.00  0.00     0.139 A 
HETATM   14  C12 UNL     1      25.665   2.236  53.630  1.00  0.00     0.053 A 
HETATM   15  C13 UNL     1      26.543   1.702  52.710  1.00  0.00     0.089 A 
HETATM   16  N5  UNL     1      26.351   2.047  51.438  1.00  0.00    -0.062 NA
BRANCH  15  17
HETATM   17  C14 UNL     1      27.644   0.803  53.036  1.00  0.00     0.011 A 
HETATM   18  C15 UNL     1      27.423  -0.544  52.848  1.00  0.00     0.017 A 
HETATM   19  C16 UNL     1      28.437  -1.459  53.140  1.00  0.00     0.020 A 
HETATM   20  C17 UNL     1      29.653  -0.965  53.621  1.00  0.00     0.116 A 
HETATM   21  N4  UNL     1      29.867   0.367  53.805  1.00  0.00    -0.272 NA
HETATM   22  C18 UNL     1      28.863   1.229  53.512  1.00  0.00     0.130 A 
ENDBRANCH  15  17
ENDBRANCH   9  11
ENDBRANCH   7   9
BRANCH   1  23
HETATM   23  N1  UNL     1      29.731   6.680  47.690  1.00  0.00    -0.080 N 
HETATM   24  H3  UNL     1      29.594   7.150  46.773  1.00  0.00     0.271 HD
BRANCH  23  25
HETATM   25  C2  UNL     1      30.734   7.376  48.419  1.00  0.00     0.115 C 
HETATM   26  C1  UNL     1      31.274   6.411  49.144  1.00  0.00     0.465 C 
BRANCH  25  27
HETATM   27  C20 UNL     1      31.001   8.800  48.306  1.00  0.00     0.027 A 
HETATM   28  C21 UNL     1      32.097   9.200  47.572  1.00  0.00     0.016 A 
HETATM   29  C22 UNL     1      32.273  10.575  47.520  1.00  0.00     0.001 A 
HETATM   30  C23 UNL     1      31.421  11.471  48.150  1.00  0.00     0.003 A 
HETATM   31  C24 UNL     1      30.342  10.988  48.867  1.00  0.00     0.037 A 
HETATM   32  C25 UNL     1      30.126   9.618  48.947  1.00  0.00     0.080 A 
BRANCH  32  33
HETATM   33  O1  UNL     1      29.040   9.166  49.671  1.00  0.00    -0.355 OA
HETATM   34  C26 UNL     1      27.792   9.829  49.671  1.00  0.00     0.210 C 
ENDBRANCH  32  33
ENDBRANCH  25  27
ENDBRANCH  23  25
ENDBRANCH   1  23
TORSDOF 7
ENDMDL
MODEL 4
REMARK VINA RESULT:      -8.9      2.627      8.097
REMARK  7 active torsions:
REMARK  status: ('A' for Active; 'I' for Inactive)
REMARK    1  A    between atoms: C2_2  and  N1_3 
REMARK    2  A    between atoms: C2_2  and  C20_25 
REMARK    3  A    between atoms: N1_3  and  C3_4 
REMARK    4  A    between atoms: C9_10  and  N2_11 
REMARK    5  A    between atoms: N2_11  and  C10_12 
REMARK    6  A    between atoms: C13_16  and  C14_17 
REMARK    7  A    between atoms: C25_30  and  O1_31 
ROOT
HETATM    1  C3  UNL     1      27.296   5.077  48.894  1.00  0.00     0.198 C 
HETATM    2  C4  UNL     1      26.082   5.017  49.381  1.00  0.00    -0.012 A 
HETATM    3  C5  UNL     1      25.506   6.218  49.978  1.00  0.00     0.015 A 
HETATM    4  C6  UNL     1      24.278   6.074  50.445  1.00  0.00    -0.077 A 
HETATM    5  C7  UNL     1      23.602   7.247  51.075  1.00  0.00     0.044 C 
HETATM    6  C8  UNL     1      23.397   4.879  50.455  1.00  0.00     0.091 A 
HETATM    7  C9  UNL     1      24.142   3.765  49.814  1.00  0.00     0.031 A 
HETATM    8  C19 UNL     1      25.363   3.749  49.302  1.00  0.00     0.038 A 
ENDROOT
BRANCH   7   9
HETATM    9  N2  UNL     1      23.344   2.589  49.796  1.00  0.00    -0.192 N 
HETATM   10  H11 UNL     1      22.764   2.363  48.947  1.00  0.00     0.184 HD
BRANCH   9  11
HETATM   11  C10 UNL     1      23.346   1.751  50.920  1.00  0.00     0.727 A 
HETATM   12  N3  UNL     1      22.172   1.259  51.371  1.00  0.00    -0.075 NA
HETATM   13  C11 UNL     1      22.203   0.459  52.449  1.00  0.00     0.139 A 
HETATM   14  C12 UNL     1      23.401   0.160  53.067  1.00  0.00     0.053 A 
HETATM   15  C13 UNL     1      24.597   0.666  52.603  1.00  0.00     0.089 A 
HETATM   16  N5  UNL     1      24.531   1.454  51.531  1.00  0.00    -0.062 NA
BRANCH  15  17
HETATM   17  C14 UNL     1      25.901   0.398  53.197  1.00  0.00     0.011 A 
HETATM   18  C15 UNL     1      26.662  -0.589  52.609  1.00  0.00     0.017 A 
HETATM   19  C16 UNL     1      27.921  -0.895  53.129  1.00  0.00     0.020 A 
HETATM   20  C17 UNL     1      28.367  -0.179  54.244  1.00  0.00     0.116 A 
HETATM   21  N4  UNL     1      27.612   0.795  54.823  1.00  0.00    -0.272 NA
HETATM   22  C18 UNL     1      26.394   1.069  54.294  1.00  0.00     0.130 A 
ENDBRANCH  15  17
ENDBRANCH   9  11
ENDBRANCH   7   9
BRANCH   1  23
HETATM   23  N1  UNL     1      28.075   6.265  48.924  1.00  0.00    -0.080 N 
HETATM   24  H3  UNL     1      28.016   7.059  49.592  1.00  0.00     0.271 HD
BRANCH  23  25
HETATM   25  C2  UNL     1      29.103   6.533  47.980  1.00  0.00     0.115 C 
HETATM   26  C1  UNL     1      28.459   7.218  47.051  1.00  0.00     0.465 C 
BRANCH  25  27
HETATM   27  C20 UNL     1      30.485   6.104  48.117  1.00  0.00     0.027 A 
HETATM   28  C21 UNL     1      30.859   4.914  47.530  1.00  0.00     0.016 A 
HETATM   29  C22 UNL     1      32.194   4.587  47.713  1.00  0.00     0.001 A 
HETATM   30  C23 UNL     1      33.079   5.386  48.425  1.00  0.00     0.003 A 
HETATM   31  C24 UNL     1      32.624   6.566  48.984  1.00  0.00     0.037 A 
HETATM   32  C25 UNL     1      31.293   6.935  48.826  1.00  0.00     0.080 A 
BRANCH  32  33
HETATM   33  O1  UNL     1      30.869   8.119  49.397  1.00  0.00    -0.355 OA
HETATM   34  C26 UNL     1      31.179   9.384  48.850  1.00  0.00     0.210 C 
ENDBRANCH  32  33
ENDBRANCH  25  27
ENDBRANCH  23  25
ENDBRANCH   1  23
TORSDOF 7
ENDMDL
MODEL 5
REMARK VINA RESULT:      -8.8      1.734      2.891
REMARK  7 active torsions:
REMARK  status: ('A' for Active; 'I' for Inactive)
REMARK    1  A    between atoms: C2_2  and  N1_3 
REMARK    2  A    between atoms: C2_2  and  C20_25 
REMARK    3  A    between atoms: N1_3  and  C3_4 
REMARK    4  A    between atoms: C9_10  and  N2_11 
REMARK    5  A    between atoms: N2_11  and  C10_12 
REMARK    6  A    between atoms: C13_16  and  C14_17 
REMARK    7  A    between atoms: C25_30  and  O1_31 
ROOT
HETATM    1  C3  UNL     1      26.355   3.374  49.639  1.00  0.00     0.198 C 
HETATM    2  C4  UNL     1      26.391   4.649  49.341  1.00  0.00    -0.012 A 
HETATM    3  C5  UNL     1      25.307   5.508  49.808  1.00  0.00     0.015 A 
HETATM    4  C6  UNL     1      25.417   6.780  49.465  1.00  0.00    -0.077 A 
HETATM    5  C7  UNL     1      24.357   7.739  49.897  1.00  0.00     0.044 C 
HETATM    6  C8  UNL     1      26.473   7.466  48.678  1.00  0.00     0.091 A 
HETATM    7  C9  UNL     1      27.480   6.445  48.291  1.00  0.00     0.031 A 
HETATM    8  C19 UNL     1      27.514   5.148  48.553  1.00  0.00     0.038 A 
ENDROOT
BRANCH   7   9
HETATM    9  N2  UNL     1      28.520   7.048  47.532  1.00  0.00    -0.192 N 
HETATM   10  H11 UNL     1      28.339   7.342  46.537  1.00  0.00     0.184 HD
BRANCH   9  11
HETATM   11  C10 UNL     1      29.773   7.237  48.131  1.00  0.00     0.727 A 
HETATM   12  N3  UNL     1      29.991   8.361  48.849  1.00  0.00    -0.075 NA
HETATM   13  C11 UNL     1      31.200   8.516  49.412  1.00  0.00     0.139 A 
HETATM   14  C12 UNL     1      32.178   7.554  49.253  1.00  0.00     0.053 A 
HETATM   15  C13 UNL     1      31.950   6.410  48.518  1.00  0.00     0.089 A 
HETATM   16  N5  UNL     1      30.740   6.286  47.974  1.00  0.00    -0.062 NA
BRANCH  15  17
HETATM   17  C14 UNL     1      32.928   5.350  48.303  1.00  0.00     0.011 A 
HETATM   18  C15 UNL     1      32.451   4.156  47.808  1.00  0.00     0.017 A 
HETATM   19  C16 UNL     1      33.336   3.099  47.578  1.00  0.00     0.020 A 
HETATM   20  C17 UNL     1      34.689   3.297  47.868  1.00  0.00     0.116 A 
HETATM   21  N4  UNL     1      35.156   4.478  48.358  1.00  0.00    -0.272 NA
HETATM   22  C18 UNL     1      34.272   5.484  48.569  1.00  0.00     0.130 A 
ENDBRANCH  15  17
ENDBRANCH   9  11
ENDBRANCH   7   9
BRANCH   1  23
HETATM   23  N1  UNL     1      25.305   2.795  50.400  1.00  0.00    -0.080 N 
HETATM   24  H3  UNL     1      24.282   2.823  50.216  1.00  0.00     0.271 HD
BRANCH  23  25
HETATM   25  C2  UNL     1      25.538   2.051  51.589  1.00  0.00     0.115 C 
HETATM   26  C1  UNL     1      26.832   2.237  51.787  1.00  0.00     0.465 C 
BRANCH  25  27
HETATM   27  C20 UNL     1      24.519   1.312  52.316  1.00  0.00     0.027 A 
HETATM   28  C21 UNL     1      24.881   0.124  52.915  1.00  0.00     0.016 A 
HETATM   29  C22 UNL     1      23.845  -0.510  53.585  1.00  0.00     0.001 A 
HETATM   30  C23 UNL     1      22.557   0.004  53.648  1.00  0.00     0.003 A 
HETATM   31  C24 UNL     1      22.276   1.203  53.019  1.00  0.00     0.037 A 
HETATM   32  C25 UNL     1      23.283   1.875  52.335  1.00  0.00     0.080 A 
BRANCH  32  33
HETATM   33  O1  UNL     1      22.971   3.069  51.718  1.00  0.00    -0.355 OA
HETATM   34  C26 UNL     1      22.733   4.262  52.436  1.00  0.00     0.210 C 
ENDBRANCH  32  33
ENDBRANCH  25  27
ENDBRANCH  23  25
ENDBRANCH   1  23
TORSDOF 7
ENDMDL
MODEL 6
REMARK VINA RESULT:      -8.7      4.677      8.443
REMARK  7 active torsions:
REMARK  status: ('A' for Active; 'I' for Inactive)
REMARK    1  A    between atoms: C2_2  and  N1_3 
REMARK    2  A    between atoms: C2_2  and  C20_25 
REMARK    3  A    between atoms: N1_3  and  C3_4 
REMARK    4  A    between atoms: C9_10  and  N2_11 
REMARK    5  A    between atoms: N2_11  and  C10_12 
REMARK    6  A    between atoms: C13_16  and  C14_17 
REMARK    7  A    between atoms: C25_30  and  O1_31 
ROOT
HETATM    1  C3  UNL     1      24.493   1.641  52.491  1.00  0.00     0.198 C 
HETATM    2  C4  UNL     1      24.569   2.791  51.869  1.00  0.00    -0.012 A 
HETATM    3  C5  UNL     1      25.583   2.961  50.833  1.00  0.00     0.015 A 
HETATM    4  C6  UNL     1      25.595   4.149  50.254  1.00  0.00    -0.077 A 
HETATM    5  C7  UNL     1      26.597   4.420  49.181  1.00  0.00     0.044 C 
HETATM    6  C8  UNL     1      24.734   5.334  50.496  1.00  0.00     0.091 A 
HETATM    7  C9  UNL     1      23.772   4.980  51.571  1.00  0.00     0.031 A 
HETATM    8  C19 UNL     1      23.634   3.848  52.243  1.00  0.00     0.038 A 
ENDROOT
BRANCH   7   9
HETATM    9  N2  UNL     1      22.919   6.084  51.847  1.00  0.00    -0.192 N 
HETATM   10  H11 UNL     1      23.140   6.729  52.648  1.00  0.00     0.184 HD
BRANCH   9  11
HETATM   11  C10 UNL     1      21.792   6.286  51.038  1.00  0.00     0.727 A 
HETATM   12  N3  UNL     1      21.012   5.228  50.728  1.00  0.00    -0.075 NA
HETATM   13  C11 UNL     1      19.939   5.450  49.951  1.00  0.00     0.139 A 
HETATM   14  C12 UNL     1      19.656   6.721  49.491  1.00  0.00     0.053 A 
HETATM   15  C13 UNL     1      20.457   7.797  49.811  1.00  0.00     0.089 A 
HETATM   16  N5  UNL     1      21.511   7.543  50.584  1.00  0.00    -0.062 NA
BRANCH  15  17
HETATM   17  C14 UNL     1      20.226   9.167  49.367  1.00  0.00     0.011 A 
HETATM   18  C15 UNL     1      18.920   9.608  49.363  1.00  0.00     0.017 A 
HETATM   19  C16 UNL     1      18.631  10.910  48.949  1.00  0.00     0.020 A 
HETATM   20  C17 UNL     1      19.693  11.726  48.547  1.00  0.00     0.116 A 
HETATM   21  N4  UNL     1      20.981  11.286  48.552  1.00  0.00    -0.272 NA
HETATM   22  C18 UNL     1      21.229  10.018  48.959  1.00  0.00     0.130 A 
ENDBRANCH  15  17
ENDBRANCH   9  11
ENDBRANCH   7   9
BRANCH   1  23
HETATM   23  N1  UNL     1      25.357   0.553  52.197  1.00  0.00    -0.080 N 
HETATM   24  H3  UNL     1      25.751   0.271  51.277  1.00  0.00     0.271 HD
BRANCH  23  25
HETATM   25  C2  UNL     1      25.825  -0.346  53.194  1.00  0.00     0.115 C 
HETATM   26  C1  UNL     1      24.745  -0.535  53.932  1.00  0.00     0.465 C 
BRANCH  25  27
HETATM   27  C20 UNL     1      27.183  -0.860  53.274  1.00  0.00     0.027 A 
HETATM   28  C21 UNL     1      27.421  -2.143  52.829  1.00  0.00     0.016 A 
HETATM   29  C22 UNL     1      28.743  -2.546  52.944  1.00  0.00     0.001 A 
HETATM   30  C23 UNL     1      29.741  -1.731  53.461  1.00  0.00     0.003 A 
HETATM   31  C24 UNL     1      29.419  -0.455  53.885  1.00  0.00     0.037 A 
HETATM   32  C25 UNL     1      28.107  -0.007  53.789  1.00  0.00     0.080 A 
BRANCH  32  33
HETATM   33  O1  UNL     1      27.817   1.272  54.222  1.00  0.00    -0.355 OA
HETATM   34  C26 UNL     1      28.322   2.427  53.585  1.00  0.00     0.210 C 
ENDBRANCH  32  33
ENDBRANCH  25  27
ENDBRANCH  23  25
ENDBRANCH   1  23
TORSDOF 7
ENDMDL
MODEL 7
REMARK VINA RESULT:      -8.5      2.951      5.034
REMARK  7 active torsions:
REMARK  status: ('A' for Active; 'I' for Inactive)
REMARK    1  A    between atoms: C2_2  and  N1_3 
REMARK    2  A    between atoms: C2_2  and  C20_25 
REMARK    3  A    between atoms: N1_3  and  C3_4 
REMARK    4  A    between atoms: C9_10  and  N2_11 
REMARK    5  A    between atoms: N2_11  and  C10_12 
REMARK    6  A    between atoms: C13_16  and  C14_17 
REMARK    7  A    between atoms: C25_30  and  O1_31 
ROOT
HETATM    1  C3  UNL     1      25.380   3.200  50.298  1.00  0.00     0.198 C 
HETATM    2  C4  UNL     1      25.836   4.253  49.666  1.00  0.00    -0.012 A 
HETATM    3  C5  UNL     1      24.956   5.405  49.498  1.00  0.00     0.015 A 
HETATM    4  C6  UNL     1      25.490   6.425  48.850  1.00  0.00    -0.077 A 
HETATM    5  C7  UNL     1      24.668   7.651  48.628  1.00  0.00     0.044 C 
HETATM    6  C8  UNL     1      26.847   6.577  48.267  1.00  0.00     0.091 A 
HETATM    7  C9  UNL     1      27.593   5.320  48.530  1.00  0.00     0.031 A 
HETATM    8  C19 UNL     1      27.204   4.221  49.158  1.00  0.00     0.038 A 
ENDROOT
BRANCH   7   9
HETATM    9  N2  UNL     1      28.906   5.408  47.991  1.00  0.00    -0.192 N 
HETATM   10  H11 UNL     1      29.191   4.775  47.200  1.00  0.00     0.184 HD
BRANCH   9  11
HETATM   11  C10 UNL     1      29.798   6.344  48.532  1.00  0.00     0.727 A 
HETATM   12  N3  UNL     1      30.982   5.912  49.019  1.00  0.00    -0.075 NA
HETATM   13  C11 UNL     1      31.818   6.830  49.532  1.00  0.00     0.139 A 
HETATM   14  C12 UNL     1      31.465   8.165  49.556  1.00  0.00     0.053 A 
HETATM   15  C13 UNL     1      30.255   8.600  49.058  1.00  0.00     0.089 A 
HETATM   16  N5  UNL     1      29.451   7.664  48.556  1.00  0.00    -0.062 NA
BRANCH  15  17
HETATM   17  C14 UNL     1      29.811   9.988  49.047  1.00  0.00     0.011 A 
HETATM   18  C15 UNL     1      30.792  10.955  49.071  1.00  0.00     0.017 A 
HETATM   19  C16 UNL     1      30.434  12.305  49.061  1.00  0.00     0.020 A 
HETATM   20  C17 UNL     1      29.073  12.627  49.029  1.00  0.00     0.116 A 
HETATM   21  N4  UNL     1      28.107  11.668  49.006  1.00  0.00    -0.272 NA
HETATM   22  C18 UNL     1      28.487  10.367  49.016  1.00  0.00     0.130 A 
ENDBRANCH  15  17
ENDBRANCH   9  11
ENDBRANCH   7   9
BRANCH   1  23
HETATM   23  N1  UNL     1      24.064   3.136  50.828  1.00  0.00    -0.080 N 
HETATM   24  H3  UNL     1      23.166   3.366  50.357  1.00  0.00     0.271 HD
BRANCH  23  25
HETATM   25  C2  UNL     1      23.792   2.719  52.159  1.00  0.00     0.115 C 
HETATM   26  C1  UNL     1      24.113   3.792  52.861  1.00  0.00     0.465 C 
BRANCH  25  27
HETATM   27  C20 UNL     1      23.287   1.407  52.529  1.00  0.00     0.027 A 
HETATM   28  C21 UNL     1      24.135   0.546  53.192  1.00  0.00     0.016 A 
HETATM   29  C22 UNL     1      23.566  -0.680  53.504  1.00  0.00     0.001 A 
HETATM   30  C23 UNL     1      22.259  -1.014  53.177  1.00  0.00     0.003 A 
HETATM   31  C24 UNL     1      21.473  -0.093  52.511  1.00  0.00     0.037 A 
HETATM   32  C25 UNL     1      21.999   1.150  52.178  1.00  0.00     0.080 A 
BRANCH  32  33
HETATM   33  O1  UNL     1      21.189   2.048  51.512  1.00  0.00    -0.355 OA
HETATM   34  C26 UNL     1      20.321   2.938  52.184  1.00  0.00     0.210 C 
ENDBRANCH  32  33
ENDBRANCH  25  27
ENDBRANCH  23  25
ENDBRANCH   1  23
TORSDOF 7
ENDMDL
MODEL 8
REMARK VINA RESULT:      -8.4      7.580     12.814
REMARK  7 active torsions:
REMARK  status: ('A' for Active; 'I' for Inactive)
REMARK    1  A    between atoms: C2_2  and  N1_3 
REMARK    2  A    between atoms: C2_2  and  C20_25 
REMARK    3  A    between atoms: N1_3  and  C3_4 
REMARK    4  A    between atoms: C9_10  and  N2_11 
REMARK    5  A    between atoms: N2_11  and  C10_12 
REMARK    6  A    between atoms: C13_16  and  C14_17 
REMARK    7  A    between atoms: C25_30  and  O1_31 
ROOT
HETATM    1  C3  UNL     1      21.144  -0.171  52.868  1.00  0.00     0.198 C 
HETATM    2  C4  UNL     1      20.726   0.521  51.837  1.00  0.00    -0.012 A 
HETATM    3  C5  UNL     1      21.524   0.507  50.615  1.00  0.00     0.015 A 
HETATM    4  C6  UNL     1      21.036   1.230  49.622  1.00  0.00    -0.077 A 
HETATM    5  C7  UNL     1      21.780   1.279  48.329  1.00  0.00     0.044 C 
HETATM    6  C8  UNL     1      19.801   2.052  49.561  1.00  0.00     0.091 A 
HETATM    7  C9  UNL     1      19.126   1.949  50.880  1.00  0.00     0.031 A 
HETATM    8  C19 UNL     1      19.482   1.274  51.962  1.00  0.00     0.038 A 
ENDROOT
BRANCH   7   9
HETATM    9  N2  UNL     1      17.932   2.721  50.880  1.00  0.00    -0.192 N 
HETATM   10  H11 UNL     1      17.980   3.760  50.720  1.00  0.00     0.184 HD
BRANCH   9  11
HETATM   11  C10 UNL     1      16.707   2.073  51.096  1.00  0.00     0.727 A 
HETATM   12  N3  UNL     1      16.471   0.897  50.473  1.00  0.00    -0.075 NA
HETATM   13  C11 UNL     1      15.291   0.299  50.697  1.00  0.00     0.139 A 
HETATM   14  C12 UNL     1      14.358   0.877  51.536  1.00  0.00     0.053 A 
HETATM   15  C13 UNL     1      14.605   2.077  52.169  1.00  0.00     0.089 A 
HETATM   16  N5  UNL     1      15.785   2.644  51.926  1.00  0.00    -0.062 NA
BRANCH  15  17
HETATM   17  C14 UNL     1      13.674   2.750  53.067  1.00  0.00     0.011 A 
HETATM   18  C15 UNL     1      12.738   1.960  53.699  1.00  0.00     0.017 A 
HETATM   19  C16 UNL     1      11.818   2.543  54.574  1.00  0.00     0.020 A 
HETATM   20  C17 UNL     1      11.883   3.925  54.775  1.00  0.00     0.116 A 
HETATM   21  N4  UNL     1      12.809   4.702  54.148  1.00  0.00    -0.272 NA
HETATM   22  C18 UNL     1      13.688   4.106  53.306  1.00  0.00     0.130 A 
ENDBRANCH  15  17
ENDBRANCH   9  11
ENDBRANCH   7   9
BRANCH   1  23
HETATM   23  N1  UNL     1      22.341  -0.935  52.843  1.00  0.00    -0.080 N 
HETATM   24  H3  UNL     1      22.559  -1.776  52.272  1.00  0.00     0.271 HD
BRANCH  23  25
HETATM   25  C2  UNL     1      23.468  -0.622  53.651  1.00  0.00     0.115 C 
HETATM   26  C1  UNL     1      23.056  -0.976  54.856  1.00  0.00     0.465 C 
BRANCH  25  27
HETATM   27  C20 UNL     1      24.711  -0.055  53.154  1.00  0.00     0.027 A 
HETATM   28  C21 UNL     1      25.778  -0.904  52.952  1.00  0.00     0.016 A 
HETATM   29  C22 UNL     1      26.919  -0.275  52.476  1.00  0.00     0.001 A 
HETATM   30  C23 UNL     1      26.984   1.089  52.226  1.00  0.00     0.003 A 
HETATM   31  C24 UNL     1      25.867   1.872  52.455  1.00  0.00     0.037 A 
HETATM   32  C25 UNL     1      24.700   1.285  52.931  1.00  0.00     0.080 A 
BRANCH  32  33
HETATM   33  O1  UNL     1      23.602   2.093  53.150  1.00  0.00    -0.355 OA
HETATM   34  C26 UNL     1      23.310   3.220  52.349  1.00  0.00     0.210 C 
ENDBRANCH  32  33
ENDBRANCH  25  27
ENDBRANCH  23  25
ENDBRANCH   1  23
TORSDOF 7
ENDMDL
MODEL 9
REMARK VINA RESULT:      -8.3      8.381     13.861
REMARK  7 active torsions:
REMARK  status: ('A' for Active; 'I' for Inactive)
REMARK    1  A    between atoms: C2_2  and  N1_3 
REMARK    2  A    between atoms: C2_2  and  C20_25 
REMARK    3  A    between atoms: N1_3  and  C3_4 
REMARK    4  A    between atoms: C9_10  and  N2_11 
REMARK    5  A    between atoms: N2_11  and  C10_12 
REMARK    6  A    between atoms: C13_16  and  C14_17 
REMARK    7  A    between atoms: C25_30  and  O1_31 
ROOT
HETATM    1  C3  UNL     1      20.780  -0.529  53.782  1.00  0.00     0.198 C 
HETATM    2  C4  UNL     1      19.722  -0.458  53.014  1.00  0.00    -0.012 A 
HETATM    3  C5  UNL     1      19.794   0.341  51.794  1.00  0.00     0.015 A 
HETATM    4  C6  UNL     1      18.686   0.362  51.074  1.00  0.00    -0.077 A 
HETATM    5  C7  UNL     1      18.661   1.152  49.808  1.00  0.00     0.044 C 
HETATM    6  C8  UNL     1      17.380  -0.301  51.318  1.00  0.00     0.091 A 
HETATM    7  C9  UNL     1      17.491  -1.060  52.590  1.00  0.00     0.031 A 
HETATM    8  C19 UNL     1      18.519  -1.180  53.416  1.00  0.00     0.038 A 
ENDROOT
BRANCH   7   9
HETATM    9  N2  UNL     1      16.264  -1.719  52.876  1.00  0.00    -0.192 N 
HETATM   10  H11 UNL     1      16.270  -2.636  53.392  1.00  0.00     0.184 HD
BRANCH   9  11
HETATM   11  C10 UNL     1      15.065  -1.126  52.457  1.00  0.00     0.727 A 
HETATM   12  N3  UNL     1      14.314  -1.757  51.527  1.00  0.00    -0.075 NA
HETATM   13  C11 UNL     1      13.170  -1.168  51.144  1.00  0.00     0.139 A 
HETATM   14  C12 UNL     1      12.787   0.043  51.688  1.00  0.00     0.053 A 
HETATM   15  C13 UNL     1      13.557   0.682  52.637  1.00  0.00     0.089 A 
HETATM   16  N5  UNL     1      14.685   0.069  52.996  1.00  0.00    -0.062 NA
BRANCH  15  17
HETATM   17  C14 UNL     1      13.223   1.957  53.259  1.00  0.00     0.011 A 
HETATM   18  C15 UNL     1      12.109   1.980  54.070  1.00  0.00     0.017 A 
HETATM   19  C16 UNL     1      11.734   3.171  54.697  1.00  0.00     0.020 A 
HETATM   20  C17 UNL     1      12.513   4.310  54.471  1.00  0.00     0.116 A 
HETATM   21  N4  UNL     1      13.613   4.282  53.669  1.00  0.00    -0.272 NA
HETATM   22  C18 UNL     1      13.951   3.112  53.075  1.00  0.00     0.130 A 
ENDBRANCH  15  17
ENDBRANCH   9  11
ENDBRANCH   7   9
BRANCH   1  23
HETATM   23  N1  UNL     1      21.995   0.138  53.475  1.00  0.00    -0.080 N 
HETATM   24  H3  UNL     1      22.131   1.024  52.949  1.00  0.00     0.271 HD
BRANCH  23  25
HETATM   25  C2  UNL     1      23.265  -0.356  53.879  1.00  0.00     0.115 C 
HETATM   26  C1  UNL     1      22.955  -1.110  54.919  1.00  0.00     0.465 C 
BRANCH  25  27
HETATM   27  C20 UNL     1      24.524  -0.037  53.225  1.00  0.00     0.027 A 
HETATM   28  C21 UNL     1      25.498  -1.011  53.176  1.00  0.00     0.016 A 
HETATM   29  C22 UNL     1      26.662  -0.617  52.533  1.00  0.00     0.001 A 
HETATM   30  C23 UNL     1      26.834   0.647  51.987  1.00  0.00     0.003 A 
HETATM   31  C24 UNL     1      25.807   1.568  52.077  1.00  0.00     0.037 A 
HETATM   32  C25 UNL     1      24.621   1.218  52.712  1.00  0.00     0.080 A 
BRANCH  32  33
HETATM   33  O1  UNL     1      23.614   2.160  52.787  1.00  0.00    -0.355 OA
HETATM   34  C26 UNL     1      23.863   3.550  52.749  1.00  0.00     0.210 C 
ENDBRANCH  32  33
ENDBRANCH  25  27
ENDBRANCH  23  25
ENDBRANCH   1  23
TORSDOF 7
ENDMDL
