MODEL 1
REMARK VINA RESULT:      -7.1      0.000      0.000
REMARK  6 active torsions:
REMARK  status: ('A' for Active; 'I' for Inactive)
REMARK    1  A    between atoms: O1_2  and  S1_3 
REMARK    2  A    between atoms: S1_3  and  C2_4 
REMARK    3  A    between atoms: C5_9  and  C6_10 
REMARK    4  A    between atoms: C6_10  and  N3_11 
REMARK    5  A    between atoms: N3_11  and  C7_12 
REMARK    6  A    between atoms: C9_14  and  C10_15 
ROOT
HETATM    1  N3  UNL     1      25.256   2.951  51.988  1.00  0.00     0.094 N 
HETATM    2  H8  UNL     1      25.348   3.376  52.926  1.00  0.00     0.316 HD
ENDROOT
BRANCH   1   3
HETATM    3  C6  UNL     1      26.286   2.016  51.659  1.00  0.00     0.330 C 
BRANCH   3   4
HETATM    4  C5  UNL     1      27.282   1.803  52.732  1.00  0.00     0.084 A 
HETATM    5  C2  UNL     1      27.004   0.648  53.459  1.00  0.00     0.072 A 
HETATM    6  C3  UNL     1      27.827   0.262  54.520  1.00  0.00     0.140 A 
HETATM    7  N1  UNL     1      28.888   1.070  54.789  1.00  0.00    -0.253 NA
HETATM    8  C4  UNL     1      29.131   2.171  54.077  1.00  0.00     0.232 A 
HETATM    9  N2  UNL     1      28.356   2.541  53.069  1.00  0.00    -0.243 NA
BRANCH   5  10
HETATM   10  S1  UNL     1      25.620  -0.459  53.154  1.00  0.00     0.031 SA
BRANCH  10  11
HETATM   11  O1  UNL     1      24.127   0.299  53.516  1.00  0.00    -0.320 OA
HETATM   12  C1  UNL     1      23.044  -0.560  53.345  1.00  0.00     0.220 C 
ENDBRANCH  10  11
ENDBRANCH   5  10
ENDBRANCH   3   4
ENDBRANCH   1   3
BRANCH   1  13
HETATM   13  C7  UNL     1      24.923   3.861  50.929  1.00  0.00     0.229 A 
HETATM   14  C8  UNL     1      24.778   3.262  49.566  1.00  0.00     0.046 A 
HETATM   15  C9  UNL     1      25.989   4.137  49.941  1.00  0.00     0.044 A 
BRANCH  15  16
HETATM   16  C10 UNL     1      26.048   5.400  49.197  1.00  0.00    -0.011 C 
HETATM   17  C11 UNL     1      27.058   5.940  48.534  1.00  0.00    -0.034 C 
HETATM   18  C12 UNL     1      28.337   5.245  48.485  1.00  0.00     0.006 C 
HETATM   19  C15 UNL     1      26.854   7.222  47.870  1.00  0.00     0.308 C 
HETATM   20  C13 UNL     1      29.299   5.962  47.903  1.00  0.00     0.003 C 
HETATM   21  C14 UNL     1      29.206   7.312  47.334  1.00  0.00     0.297 C 
HETATM   22  N4  UNL     1      28.027   8.028  47.730  1.00  0.00     0.090 N 
HETATM   23  H18 UNL     1      28.248   8.497  48.658  1.00  0.00     0.316 HD
ENDBRANCH  15  16
ENDBRANCH   1  13
TORSDOF 6
ENDMDL
MODEL 2
REMARK VINA RESULT:      -6.9      3.701      6.660
REMARK  6 active torsions:
REMARK  status: ('A' for Active; 'I' for Inactive)
REMARK    1  A    between atoms: O1_2  and  S1_3 
REMARK    2  A    between atoms: S1_3  and  C2_4 
REMARK    3  A    between atoms: C5_9  and  C6_10 
REMARK    4  A    between atoms: C6_10  and  N3_11 
REMARK    5  A    between atoms: N3_11  and  C7_12 
REMARK    6  A    between atoms: C9_14  and  C10_15 
ROOT
HETATM    1  N3  UNL     1      25.949   2.625  51.224  1.00  0.00     0.094 N 
HETATM    2  H8  UNL     1      26.136   2.888  50.241  1.00  0.00     0.316 HD
ENDROOT
BRANCH   1   3
HETATM    3  C6  UNL     1      26.501   1.366  51.615  1.00  0.00     0.330 C 
BRANCH   3   4
HETATM    4  C5  UNL     1      27.483   1.447  52.719  1.00  0.00     0.084 A 
HETATM    5  C2  UNL     1      27.388   0.344  53.563  1.00  0.00     0.072 A 
HETATM    6  C3  UNL     1      28.230   0.223  54.672  1.00  0.00     0.140 A 
HETATM    7  N1  UNL     1      29.124   1.230  54.865  1.00  0.00    -0.253 NA
HETATM    8  C4  UNL     1      29.194   2.276  54.041  1.00  0.00     0.232 A 
HETATM    9  N2  UNL     1      28.400   2.395  52.988  1.00  0.00    -0.243 NA
BRANCH   5  10
HETATM   10  S1  UNL     1      26.229  -1.017  53.362  1.00  0.00     0.031 SA
BRANCH  10  11
HETATM   11  O1  UNL     1      26.905  -2.275  52.416  1.00  0.00    -0.320 OA
HETATM   12  C1  UNL     1      28.145  -2.688  52.897  1.00  0.00     0.220 C 
ENDBRANCH  10  11
ENDBRANCH   5  10
ENDBRANCH   3   4
ENDBRANCH   1   3
BRANCH   1  13
HETATM   13  C7  UNL     1      24.604   2.847  51.674  1.00  0.00     0.229 A 
HETATM   14  C8  UNL     1      24.437   3.138  53.132  1.00  0.00     0.046 A 
HETATM   15  C9  UNL     1      24.013   1.790  52.522  1.00  0.00     0.044 A 
BRANCH  15  16
HETATM   16  C10 UNL     1      22.565   1.556  52.574  1.00  0.00    -0.011 C 
HETATM   17  C11 UNL     1      21.887   0.598  53.186  1.00  0.00    -0.034 C 
HETATM   18  C12 UNL     1      22.607  -0.417  53.944  1.00  0.00     0.006 C 
HETATM   19  C15 UNL     1      20.434   0.592  53.081  1.00  0.00     0.308 C 
HETATM   20  C13 UNL     1      21.816  -1.392  54.393  1.00  0.00     0.003 C 
HETATM   21  C14 UNL     1      20.366  -1.540  54.211  1.00  0.00     0.297 C 
HETATM   22  N4  UNL     1      19.821  -0.697  53.185  1.00  0.00     0.090 N 
HETATM   23  H18 UNL     1      19.932  -1.218  52.266  1.00  0.00     0.316 HD
ENDBRANCH  15  16
ENDBRANCH   1  13
TORSDOF 6
ENDMDL
MODEL 3
REMARK VINA RESULT:      -6.9      2.191      2.871
REMARK  6 active torsions:
REMARK  status: ('A' for Active; 'I' for Inactive)
REMARK    1  A    between atoms: O1_2  and  S1_3 
REMARK    2  A    between atoms: S1_3  and  C2_4 
REMARK    3  A    between atoms: C5_9  and  C6_10 
REMARK    4  A    between atoms: C6_10  and  N3_11 
REMARK    5  A    between atoms: N3_11  and  C7_12 
REMARK    6  A    between atoms: C9_14  and  C10_15 
ROOT
HETATM    1  N3  UNL     1      24.151   1.816  51.233  1.00  0.00     0.094 N 
HETATM    2  H8  UNL     1      23.333   1.474  51.767  1.00  0.00     0.316 HD
ENDROOT
BRANCH   1   3
HETATM    3  C6  UNL     1      25.410   1.587  51.870  1.00  0.00     0.330 C 
BRANCH   3   4
HETATM    4  C5  UNL     1      25.342   0.710  53.060  1.00  0.00     0.084 A 
HETATM    5  C2  UNL     1      26.428   0.921  53.907  1.00  0.00     0.072 A 
HETATM    6  C3  UNL     1      26.555   0.193  55.093  1.00  0.00     0.140 A 
HETATM    7  N1  UNL     1      25.574  -0.711  55.356  1.00  0.00    -0.253 NA
HETATM    8  C4  UNL     1      24.545  -0.894  54.528  1.00  0.00     0.232 A 
HETATM    9  N2  UNL     1      24.418  -0.206  53.403  1.00  0.00    -0.243 NA
BRANCH   5  10
HETATM   10  S1  UNL     1      27.755   2.099  53.615  1.00  0.00     0.031 SA
BRANCH  10  11
HETATM   11  O1  UNL     1      29.135   1.330  52.952  1.00  0.00    -0.320 OA
HETATM   12  C1  UNL     1      29.579   0.272  53.742  1.00  0.00     0.220 C 
ENDBRANCH  10  11
ENDBRANCH   5  10
ENDBRANCH   3   4
ENDBRANCH   1   3
BRANCH   1  13
HETATM   13  C7  UNL     1      24.009   3.123  50.659  1.00  0.00     0.229 A 
HETATM   14  C8  UNL     1      23.755   3.171  49.184  1.00  0.00     0.046 A 
HETATM   15  C9  UNL     1      25.112   3.582  49.787  1.00  0.00     0.044 A 
BRANCH  15  16
HETATM   16  C10 UNL     1      25.421   5.006  49.611  1.00  0.00    -0.011 C 
HETATM   17  C11 UNL     1      26.507   5.577  49.117  1.00  0.00    -0.034 C 
HETATM   18  C12 UNL     1      27.609   4.743  48.655  1.00  0.00     0.006 C 
HETATM   19  C15 UNL     1      26.564   7.032  49.050  1.00  0.00     0.308 C 
HETATM   20  C13 UNL     1      28.687   5.447  48.310  1.00  0.00     0.003 C 
HETATM   21  C14 UNL     1      28.870   6.903  48.345  1.00  0.00     0.297 C 
HETATM   22  N4  UNL     1      27.878   7.593  49.121  1.00  0.00     0.090 N 
HETATM   23  H18 UNL     1      28.214   7.585  50.129  1.00  0.00     0.316 HD
ENDBRANCH  15  16
ENDBRANCH   1  13
TORSDOF 6
ENDMDL
MODEL 4
REMARK VINA RESULT:      -6.8      3.134      7.275
REMARK  6 active torsions:
REMARK  status: ('A' for Active; 'I' for Inactive)
REMARK    1  A    between atoms: O1_2  and  S1_3 
REMARK    2  A    between atoms: S1_3  and  C2_4 
REMARK    3  A    between atoms: C5_9  and  C6_10 
REMARK    4  A    between atoms: C6_10  and  N3_11 
REMARK    5  A    between atoms: N3_11  and  C7_12 
REMARK    6  A    between atoms: C9_14  and  C10_15 
ROOT
HETATM    1  N3  UNL     1      26.519   4.193  50.326  1.00  0.00     0.094 N 
HETATM    2  H8  UNL     1      26.046   4.856  50.965  1.00  0.00     0.316 HD
ENDROOT
BRANCH   1   3
HETATM    3  C6  UNL     1      26.572   4.620  48.963  1.00  0.00     0.330 C 
BRANCH   3   4
HETATM    4  C5  UNL     1      27.773   5.412  48.618  1.00  0.00     0.084 A 
HETATM    5  C2  UNL     1      27.494   6.776  48.603  1.00  0.00     0.072 A 
HETATM    6  C3  UNL     1      28.494   7.703  48.300  1.00  0.00     0.140 A 
HETATM    7  N1  UNL     1      29.726   7.196  48.026  1.00  0.00    -0.253 NA
HETATM    8  C4  UNL     1      29.967   5.884  48.047  1.00  0.00     0.232 A 
HETATM    9  N2  UNL     1      29.023   5.002  48.335  1.00  0.00    -0.243 NA
BRANCH   5  10
HETATM   10  S1  UNL     1      25.889   7.508  48.955  1.00  0.00     0.031 SA
BRANCH  10  11
HETATM   11  O1  UNL     1      25.435   7.256  50.588  1.00  0.00    -0.320 OA
HETATM   12  C1  UNL     1      24.096   7.563  50.816  1.00  0.00     0.220 C 
ENDBRANCH  10  11
ENDBRANCH   5  10
ENDBRANCH   3   4
ENDBRANCH   1   3
BRANCH   1  13
HETATM   13  C7  UNL     1      26.166   2.813  50.500  1.00  0.00     0.229 A 
HETATM   14  C8  UNL     1      24.801   2.547  51.054  1.00  0.00     0.046 A 
HETATM   15  C9  UNL     1      26.073   2.329  51.894  1.00  0.00     0.044 A 
BRANCH  15  16
HETATM   16  C10 UNL     1      26.307   0.923  52.244  1.00  0.00    -0.011 C 
HETATM   17  C11 UNL     1      27.337   0.369  52.864  1.00  0.00    -0.034 C 
HETATM   18  C12 UNL     1      28.448   1.206  53.297  1.00  0.00     0.006 C 
HETATM   19  C15 UNL     1      27.324  -1.070  53.094  1.00  0.00     0.308 C 
HETATM   20  C13 UNL     1      29.472   0.504  53.782  1.00  0.00     0.003 C 
HETATM   21  C14 UNL     1      29.590  -0.953  53.918  1.00  0.00     0.297 C 
HETATM   22  N4  UNL     1      28.613  -1.687  53.165  1.00  0.00     0.090 N 
HETATM   23  H18 UNL     1      29.004  -1.805  52.184  1.00  0.00     0.316 HD
ENDBRANCH  15  16
ENDBRANCH   1  13
TORSDOF 6
ENDMDL
MODEL 5
REMARK VINA RESULT:      -6.8      2.207      4.527
REMARK  6 active torsions:
REMARK  status: ('A' for Active; 'I' for Inactive)
REMARK    1  A    between atoms: O1_2  and  S1_3 
REMARK    2  A    between atoms: S1_3  and  C2_4 
REMARK    3  A    between atoms: C5_9  and  C6_10 
REMARK    4  A    between atoms: C6_10  and  N3_11 
REMARK    5  A    between atoms: N3_11  and  C7_12 
REMARK    6  A    between atoms: C9_14  and  C10_15 
ROOT
HETATM    1  N3  UNL     1      26.959   3.256  50.879  1.00  0.00     0.094 N 
HETATM    2  H8  UNL     1      27.959   3.477  50.734  1.00  0.00     0.316 HD
ENDROOT
BRANCH   1   3
HETATM    3  C6  UNL     1      26.718   2.015  51.547  1.00  0.00     0.330 C 
BRANCH   3   4
HETATM    4  C5  UNL     1      27.565   1.789  52.739  1.00  0.00     0.084 A 
HETATM    5  C2  UNL     1      27.131   0.684  53.466  1.00  0.00     0.072 A 
HETATM    6  C3  UNL     1      27.796   0.294  54.632  1.00  0.00     0.140 A 
HETATM    7  N1  UNL     1      28.866   1.049  54.998  1.00  0.00    -0.253 NA
HETATM    8  C4  UNL     1      29.261   2.104  54.284  1.00  0.00     0.232 A 
HETATM    9  N2  UNL     1      28.636   2.476  53.178  1.00  0.00    -0.243 NA
BRANCH   5  10
HETATM   10  S1  UNL     1      25.725  -0.352  53.034  1.00  0.00     0.031 SA
BRANCH  10  11
HETATM   11  O1  UNL     1      24.243   0.445  53.357  1.00  0.00    -0.320 OA
HETATM   12  C1  UNL     1      23.193  -0.450  53.547  1.00  0.00     0.220 C 
ENDBRANCH  10  11
ENDBRANCH   5  10
ENDBRANCH   3   4
ENDBRANCH   1   3
BRANCH   1  13
HETATM   13  C7  UNL     1      26.106   3.494  49.749  1.00  0.00     0.229 A 
HETATM   14  C8  UNL     1      25.957   4.922  49.326  1.00  0.00     0.046 A 
HETATM   15  C9  UNL     1      24.817   4.163  50.029  1.00  0.00     0.044 A 
BRANCH  15  16
HETATM   16  C10 UNL     1      23.638   3.962  49.178  1.00  0.00    -0.011 C 
HETATM   17  C11 UNL     1      22.651   3.089  49.298  1.00  0.00    -0.034 C 
HETATM   18  C12 UNL     1      22.657   2.149  50.411  1.00  0.00     0.006 C 
HETATM   19  C15 UNL     1      21.585   3.097  48.305  1.00  0.00     0.308 C 
HETATM   20  C13 UNL     1      21.683   1.243  50.335  1.00  0.00     0.003 C 
HETATM   21  C14 UNL     1      20.655   1.102  49.296  1.00  0.00     0.297 C 
HETATM   22  N4  UNL     1      20.937   1.838  48.097  1.00  0.00     0.090 N 
HETATM   23  H18 UNL     1      21.553   1.219  47.491  1.00  0.00     0.316 HD
ENDBRANCH  15  16
ENDBRANCH   1  13
TORSDOF 6
ENDMDL
MODEL 6
REMARK VINA RESULT:      -6.7      2.741      7.578
REMARK  6 active torsions:
REMARK  status: ('A' for Active; 'I' for Inactive)
REMARK    1  A    between atoms: O1_2  and  S1_3 
REMARK    2  A    between atoms: S1_3  and  C2_4 
REMARK    3  A    between atoms: C5_9  and  C6_10 
REMARK    4  A    between atoms: C6_10  and  N3_11 
REMARK    5  A    between atoms: N3_11  and  C7_12 
REMARK    6  A    between atoms: C9_14  and  C10_15 
ROOT
HETATM    1  N3  UNL     1      26.866   2.453  52.006  1.00  0.00     0.094 N 
HETATM    2  H8  UNL     1      27.121   3.335  52.482  1.00  0.00     0.316 HD
ENDROOT
BRANCH   1   3
HETATM    3  C6  UNL     1      26.022   2.620  50.865  1.00  0.00     0.330 C 
BRANCH   3   4
HETATM    4  C5  UNL     1      26.358   3.790  50.023  1.00  0.00     0.084 A 
HETATM    5  C2  UNL     1      25.350   4.750  50.067  1.00  0.00     0.072 A 
HETATM    6  C3  UNL     1      25.469   5.938  49.341  1.00  0.00     0.140 A 
HETATM    7  N1  UNL     1      26.605   6.087  48.607  1.00  0.00    -0.253 NA
HETATM    8  C4  UNL     1      27.554   5.151  48.582  1.00  0.00     0.232 A 
HETATM    9  N2  UNL     1      27.447   4.025  49.270  1.00  0.00    -0.243 NA
BRANCH   5  10
HETATM   10  S1  UNL     1      23.828   4.612  51.016  1.00  0.00     0.031 SA
BRANCH  10  11
HETATM   11  O1  UNL     1      22.496   4.247  50.003  1.00  0.00    -0.320 OA
HETATM   12  C1  UNL     1      22.807   3.279  49.050  1.00  0.00     0.220 C 
ENDBRANCH  10  11
ENDBRANCH   5  10
ENDBRANCH   3   4
ENDBRANCH   1   3
BRANCH   1  13
HETATM   13  C7  UNL     1      26.482   1.375  52.873  1.00  0.00     0.229 A 
HETATM   14  C8  UNL     1      26.676  -0.007  52.331  1.00  0.00     0.046 A 
HETATM   15  C9  UNL     1      25.275   0.615  52.481  1.00  0.00     0.044 A 
BRANCH  15  16
HETATM   16  C10 UNL     1      24.436  -0.071  53.470  1.00  0.00    -0.011 C 
HETATM   17  C11 UNL     1      23.127  -0.269  53.471  1.00  0.00    -0.034 C 
HETATM   18  C12 UNL     1      22.324   0.235  52.365  1.00  0.00     0.006 C 
HETATM   19  C15 UNL     1      22.530  -0.992  54.587  1.00  0.00     0.308 C 
HETATM   20  C13 UNL     1      21.014   0.086  52.560  1.00  0.00     0.003 C 
HETATM   21  C14 UNL     1      20.331  -0.506  53.717  1.00  0.00     0.297 C 
HETATM   22  N4  UNL     1      21.170  -0.653  54.873  1.00  0.00     0.090 N 
HETATM   23  H18 UNL     1      21.136   0.270  55.398  1.00  0.00     0.316 HD
ENDBRANCH  15  16
ENDBRANCH   1  13
TORSDOF 6
ENDMDL
MODEL 7
REMARK VINA RESULT:      -6.6      4.217      6.470
REMARK  6 active torsions:
REMARK  status: ('A' for Active; 'I' for Inactive)
REMARK    1  A    between atoms: O1_2  and  S1_3 
REMARK    2  A    between atoms: S1_3  and  C2_4 
REMARK    3  A    between atoms: C5_9  and  C6_10 
REMARK    4  A    between atoms: C6_10  and  N3_11 
REMARK    5  A    between atoms: N3_11  and  C7_12 
REMARK    6  A    between atoms: C9_14  and  C10_15 
ROOT
HETATM    1  N3  UNL     1      22.644   2.461  52.360  1.00  0.00     0.094 N 
HETATM    2  H8  UNL     1      22.208   2.626  53.283  1.00  0.00     0.316 HD
ENDROOT
BRANCH   1   3
HETATM    3  C6  UNL     1      22.443   1.146  51.837  1.00  0.00     0.330 C 
BRANCH   3   4
HETATM    4  C5  UNL     1      22.040   0.143  52.848  1.00  0.00     0.084 A 
HETATM    5  C2  UNL     1      20.654   0.045  52.940  1.00  0.00     0.072 A 
HETATM    6  C3  UNL     1      20.063  -0.849  53.837  1.00  0.00     0.140 A 
HETATM    7  N1  UNL     1      20.910  -1.594  54.595  1.00  0.00    -0.253 NA
HETATM    8  C4  UNL     1      22.235  -1.481  54.488  1.00  0.00     0.232 A 
HETATM    9  N2  UNL     1      22.800  -0.637  53.638  1.00  0.00    -0.243 NA
BRANCH   5  10
HETATM   10  S1  UNL     1      19.482   1.002  51.967  1.00  0.00     0.031 SA
BRANCH  10  11
HETATM   11  O1  UNL     1      19.490   2.651  52.431  1.00  0.00    -0.320 OA
HETATM   12  C1  UNL     1      19.060   3.489  51.406  1.00  0.00     0.220 C 
ENDBRANCH  10  11
ENDBRANCH   5  10
ENDBRANCH   3   4
ENDBRANCH   1   3
BRANCH   1  13
HETATM   13  C7  UNL     1      23.984   2.956  52.214  1.00  0.00     0.229 A 
HETATM   14  C8  UNL     1      24.675   2.619  50.931  1.00  0.00     0.046 A 
HETATM   15  C9  UNL     1      25.065   1.948  52.261  1.00  0.00     0.044 A 
BRANCH  15  16
HETATM   16  C10 UNL     1      26.421   2.286  52.709  1.00  0.00    -0.011 C 
HETATM   17  C11 UNL     1      27.450   1.490  52.953  1.00  0.00    -0.034 C 
HETATM   18  C12 UNL     1      27.302   0.052  52.778  1.00  0.00     0.006 C 
HETATM   19  C15 UNL     1      28.706   2.086  53.392  1.00  0.00     0.308 C 
HETATM   20  C13 UNL     1      28.367  -0.637  53.187  1.00  0.00     0.003 C 
HETATM   21  C14 UNL     1      29.613  -0.120  53.767  1.00  0.00     0.297 C 
HETATM   22  N4  UNL     1      29.526   1.244  54.208  1.00  0.00     0.090 N 
HETATM   23  H18 UNL     1      29.141   1.224  55.198  1.00  0.00     0.316 HD
ENDBRANCH  15  16
ENDBRANCH   1  13
TORSDOF 6
ENDMDL
MODEL 8
REMARK VINA RESULT:      -6.5      1.670      1.821
REMARK  6 active torsions:
REMARK  status: ('A' for Active; 'I' for Inactive)
REMARK    1  A    between atoms: O1_2  and  S1_3 
REMARK    2  A    between atoms: S1_3  and  C2_4 
REMARK    3  A    between atoms: C5_9  and  C6_10 
REMARK    4  A    between atoms: C6_10  and  N3_11 
REMARK    5  A    between atoms: N3_11  and  C7_12 
REMARK    6  A    between atoms: C9_14  and  C10_15 
ROOT
HETATM    1  N3  UNL     1      24.833   3.253  51.922  1.00  0.00     0.094 N 
HETATM    2  H8  UNL     1      25.679   3.397  52.500  1.00  0.00     0.316 HD
ENDROOT
BRANCH   1   3
HETATM    3  C6  UNL     1      24.620   1.900  51.513  1.00  0.00     0.330 C 
BRANCH   3   4
HETATM    4  C5  UNL     1      25.427   0.904  52.253  1.00  0.00     0.084 A 
HETATM    5  C2  UNL     1      24.644   0.189  53.156  1.00  0.00     0.072 A 
HETATM    6  C3  UNL     1      25.213  -0.804  53.957  1.00  0.00     0.140 A 
HETATM    7  N1  UNL     1      26.547  -1.019  53.799  1.00  0.00    -0.253 NA
HETATM    8  C4  UNL     1      27.273  -0.319  52.926  1.00  0.00     0.232 A 
HETATM    9  N2  UNL     1      26.739   0.622  52.164  1.00  0.00    -0.243 NA
BRANCH   5  10
HETATM   10  S1  UNL     1      22.880   0.426  53.411  1.00  0.00     0.031 SA
BRANCH  10  11
HETATM   11  O1  UNL     1      22.295  -0.574  54.674  1.00  0.00    -0.320 OA
HETATM   12  C1  UNL     1      21.604  -1.683  54.191  1.00  0.00     0.220 C 
ENDBRANCH  10  11
ENDBRANCH   5  10
ENDBRANCH   3   4
ENDBRANCH   1   3
BRANCH   1  13
HETATM   13  C7  UNL     1      24.623   4.224  50.887  1.00  0.00     0.229 A 
HETATM   14  C8  UNL     1      24.312   3.681  49.527  1.00  0.00     0.046 A 
HETATM   15  C9  UNL     1      25.675   4.319  49.852  1.00  0.00     0.044 A 
BRANCH  15  16
HETATM   16  C10 UNL     1      25.927   5.563  49.114  1.00  0.00    -0.011 C 
HETATM   17  C11 UNL     1      27.032   5.976  48.513  1.00  0.00    -0.034 C 
HETATM   18  C12 UNL     1      28.220   5.134  48.539  1.00  0.00     0.006 C 
HETATM   19  C15 UNL     1      27.020   7.269  47.840  1.00  0.00     0.308 C 
HETATM   20  C13 UNL     1      29.293   5.729  48.016  1.00  0.00     0.003 C 
HETATM   21  C14 UNL     1      29.393   7.078  47.444  1.00  0.00     0.297 C 
HETATM   22  N4  UNL     1      28.286   7.931  47.771  1.00  0.00     0.090 N 
HETATM   23  H18 UNL     1      28.506   8.375  48.711  1.00  0.00     0.316 HD
ENDBRANCH  15  16
ENDBRANCH   1  13
TORSDOF 6
ENDMDL
MODEL 9
REMARK VINA RESULT:      -6.4      2.555      3.528
REMARK  6 active torsions:
REMARK  status: ('A' for Active; 'I' for Inactive)
REMARK    1  A    between atoms: O1_2  and  S1_3 
REMARK    2  A    between atoms: S1_3  and  C2_4 
REMARK    3  A    between atoms: C5_9  and  C6_10 
REMARK    4  A    between atoms: C6_10  and  N3_11 
REMARK    5  A    between atoms: N3_11  and  C7_12 
REMARK    6  A    between atoms: C9_14  and  C10_15 
ROOT
HETATM    1  N3  UNL     1      26.861   3.323  51.097  1.00  0.00     0.094 N 
HETATM    2  H8  UNL     1      27.835   3.656  51.209  1.00  0.00     0.316 HD
ENDROOT
BRANCH   1   3
HETATM    3  C6  UNL     1      26.649   1.969  51.501  1.00  0.00     0.330 C 
BRANCH   3   4
HETATM    4  C5  UNL     1      27.399   1.568  52.712  1.00  0.00     0.084 A 
HETATM    5  C2  UNL     1      26.639   0.728  53.523  1.00  0.00     0.072 A 
HETATM    6  C3  UNL     1      27.163   0.232  54.720  1.00  0.00     0.140 A 
HETATM    7  N1  UNL     1      28.430   0.617  55.031  1.00  0.00    -0.253 NA
HETATM    8  C4  UNL     1      29.136   1.423  54.237  1.00  0.00     0.232 A 
HETATM    9  N2  UNL     1      28.645   1.895  53.101  1.00  0.00    -0.243 NA
BRANCH   5  10
HETATM   10  S1  UNL     1      24.962   0.185  53.167  1.00  0.00     0.031 SA
BRANCH  10  11
HETATM   11  O1  UNL     1      24.340  -0.782  54.437  1.00  0.00    -0.320 OA
HETATM   12  C1  UNL     1      22.949  -0.859  54.409  1.00  0.00     0.220 C 
ENDBRANCH  10  11
ENDBRANCH   5  10
ENDBRANCH   3   4
ENDBRANCH   1   3
BRANCH   1  13
HETATM   13  C7  UNL     1      26.229   3.676  49.858  1.00  0.00     0.229 A 
HETATM   14  C8  UNL     1      26.988   4.617  48.976  1.00  0.00     0.046 A 
HETATM   15  C9  UNL     1      25.732   5.065  49.746  1.00  0.00     0.044 A 
BRANCH  15  16
HETATM   16  C10 UNL     1      24.607   5.418  48.872  1.00  0.00    -0.011 C 
HETATM   17  C11 UNL     1      23.569   6.202  49.112  1.00  0.00    -0.034 C 
HETATM   18  C12 UNL     1      23.445   6.852  50.409  1.00  0.00     0.006 C 
HETATM   19  C15 UNL     1      22.577   6.392  48.060  1.00  0.00     0.308 C 
HETATM   20  C13 UNL     1      22.290   7.500  50.561  1.00  0.00     0.003 C 
HETATM   21  C14 UNL     1      21.185   7.621  49.602  1.00  0.00     0.297 C 
HETATM   22  N4  UNL     1      21.254   6.683  48.517  1.00  0.00     0.090 N 
HETATM   23  H18 UNL     1      20.789   5.789  48.852  1.00  0.00     0.316 HD
ENDBRANCH  15  16
ENDBRANCH   1  13
TORSDOF 6
ENDMDL
