MODEL 1
REMARK VINA RESULT:      -8.9      0.000      0.000
REMARK  6 active torsions:
REMARK  status: ('A' for Active; 'I' for Inactive)
REMARK    1  A    between atoms: C6_7  and  O1_8 
REMARK    2  A    between atoms: C12_15  and  C13_16 
REMARK    3  A    between atoms: C13_16  and  C14_17 
REMARK    4  A    between atoms: C13_16  and  C15_19 
REMARK    5  A    between atoms: C14_17  and  O2_18 
REMARK    6  A    between atoms: C15_19  and  C16_20 
ROOT
HETATM    1  C1  UNL     1      16.840   0.606  50.638  1.00  0.00     0.057 C 
HETATM    2  C2  UNL     1      17.837   0.052  51.576  1.00  0.00    -0.014 C 
HETATM    3  C3  UNL     1      18.231  -0.732  52.518  1.00  0.00    -0.010 C 
HETATM    4  C4  UNL     1      18.995  -1.463  53.547  1.00  0.00     0.048 C 
HETATM    5  C5  UNL     1      20.394  -0.906  53.555  1.00  0.00     0.125 C 
HETATM    6  N1  UNL     1      21.273  -1.526  54.520  1.00  0.00    -0.371 N 
HETATM    7  C6  UNL     1      22.672  -1.306  54.840  1.00  0.00     0.133 C 
HETATM    8  C7  UNL     1      23.440  -0.579  54.003  1.00  0.00     0.048 C 
HETATM    9  C8  UNL     1      23.748   0.215  52.832  1.00  0.00     0.153 C 
HETATM   10  N2  UNL     1      24.253   1.559  53.093  1.00  0.00    -0.392 N 
HETATM   11  C9  UNL     1      25.612   1.391  53.633  1.00  0.00     0.148 C 
HETATM   12  C10 UNL     1      24.060   3.001  53.091  1.00  0.00     0.088 C 
HETATM   13  C11 UNL     1      23.819   3.813  52.071  1.00  0.00     0.102 A 
HETATM   14  C12 UNL     1      24.140   3.443  50.836  1.00  0.00     0.077 A 
HETATM   15  N4  UNL     1      23.060   2.646  51.256  1.00  0.00    -0.245 NA
HETATM   16  C21 UNL     1      22.017   2.651  50.465  1.00  0.00     0.168 C 
HETATM   17  N5  UNL     1      20.940   1.868  50.878  1.00  0.00    -0.290 N 
HETATM   18  C22 UNL     1      19.719   2.042  50.405  1.00  0.00     0.165 A 
HETATM   19  S1  UNL     1      19.473   0.709  51.527  1.00  0.00    -0.049 SA
HETATM   20  H9  UNL     1      20.767  -2.263  55.065  1.00  0.00     0.161 HD
ENDROOT
BRANCH  14  21
HETATM   21  C13 UNL     1      25.321   4.315  50.377  1.00  0.00     0.041 C 
BRANCH  21  22
HETATM   22  C14 UNL     1      26.473   3.320  50.234  1.00  0.00     0.171 C 
BRANCH  22  23
HETATM   23  O2  UNL     1      27.342   3.202  51.240  1.00  0.00    -0.400 OA
HETATM   24  H21 UNL     1      27.884   4.000  51.462  1.00  0.00     0.209 HD
ENDBRANCH  22  23
ENDBRANCH  21  22
BRANCH  21  25
HETATM   25  C15 UNL     1      24.927   4.942  49.105  1.00  0.00     0.045 C 
BRANCH  25  26
HETATM   26  C16 UNL     1      25.693   6.051  48.563  1.00  0.00    -0.060 C 
HETATM   27  C17 UNL     1      26.941   6.450  48.417  1.00  0.00     0.007 C 
HETATM   28  C18 UNL     1      27.400   7.691  47.784  1.00  0.00     0.034 C 
HETATM   29  C19 UNL     1      26.474   8.080  46.917  1.00  0.00     0.079 C 
HETATM   30  N3  UNL     1      25.279   8.111  47.307  1.00  0.00    -0.283 NA
HETATM   31  C20 UNL     1      24.679   7.028  48.010  1.00  0.00     0.183 C 
ENDBRANCH  25  26
ENDBRANCH  21  25
ENDBRANCH  14  21
BRANCH   7  32
HETATM   32  O1  UNL     1      23.057  -1.912  56.041  1.00  0.00    -0.346 OA
HETATM   33  H10 UNL     1      22.656  -1.703  56.934  1.00  0.00     0.219 HD
ENDBRANCH   7  32
TORSDOF 6
ENDMDL
MODEL 2
REMARK VINA RESULT:      -8.4      3.125      5.240
REMARK  6 active torsions:
REMARK  status: ('A' for Active; 'I' for Inactive)
REMARK    1  A    between atoms: C6_7  and  O1_8 
REMARK    2  A    between atoms: C12_15  and  C13_16 
REMARK    3  A    between atoms: C13_16  and  C14_17 
REMARK    4  A    between atoms: C13_16  and  C15_19 
REMARK    5  A    between atoms: C14_17  and  O2_18 
REMARK    6  A    between atoms: C15_19  and  C16_20 
ROOT
HETATM    1  C1  UNL     1      26.776  -0.547  52.610  1.00  0.00     0.057 C 
HETATM    2  C2  UNL     1      25.413   0.019  52.668  1.00  0.00    -0.014 C 
HETATM    3  C3  UNL     1      24.166   0.006  52.990  1.00  0.00    -0.010 C 
HETATM    4  C4  UNL     1      22.738   0.311  53.196  1.00  0.00     0.048 C 
HETATM    5  C5  UNL     1      22.462   1.648  52.559  1.00  0.00     0.125 C 
HETATM    6  N1  UNL     1      21.092   2.091  52.678  1.00  0.00    -0.371 N 
HETATM    7  C6  UNL     1      20.419   3.296  52.231  1.00  0.00     0.133 C 
HETATM    8  C7  UNL     1      21.150   4.353  51.819  1.00  0.00     0.048 C 
HETATM    9  C8  UNL     1      22.351   5.102  51.516  1.00  0.00     0.153 C 
HETATM   10  N2  UNL     1      22.479   5.562  50.137  1.00  0.00    -0.392 N 
HETATM   11  C9  UNL     1      21.481   6.629  49.964  1.00  0.00     0.148 C 
HETATM   12  C10 UNL     1      23.114   5.469  48.831  1.00  0.00     0.088 C 
HETATM   13  C11 UNL     1      24.385   5.653  48.502  1.00  0.00     0.102 A 
HETATM   14  C12 UNL     1      25.180   6.367  49.290  1.00  0.00     0.077 A 
HETATM   15  N4  UNL     1      24.885   5.162  49.955  1.00  0.00    -0.245 NA
HETATM   16  C21 UNL     1      25.924   4.469  50.346  1.00  0.00     0.168 C 
HETATM   17  N5  UNL     1      25.640   3.271  51.000  1.00  0.00    -0.290 N 
HETATM   18  C22 UNL     1      26.536   2.309  51.130  1.00  0.00     0.165 A 
HETATM   19  S1  UNL     1      25.143   1.602  51.941  1.00  0.00    -0.049 SA
HETATM   20  H9  UNL     1      20.515   1.381  53.189  1.00  0.00     0.161 HD
ENDROOT
BRANCH  14  21
HETATM   21  C13 UNL     1      25.501   7.685  48.563  1.00  0.00     0.041 C 
BRANCH  21  22
HETATM   22  C14 UNL     1      26.141   8.551  49.649  1.00  0.00     0.171 C 
BRANCH  22  23
HETATM   23  O2  UNL     1      26.501   7.973  50.796  1.00  0.00    -0.400 OA
HETATM   24  H21 UNL     1      25.854   8.016  51.544  1.00  0.00     0.209 HD
ENDBRANCH  22  23
ENDBRANCH  21  22
BRANCH  21  25
HETATM   25  C15 UNL     1      26.418   7.356  47.459  1.00  0.00     0.045 C 
BRANCH  25  26
HETATM   26  C16 UNL     1      27.786   6.952  47.735  1.00  0.00    -0.060 C 
HETATM   27  C17 UNL     1      28.464   5.957  48.271  1.00  0.00     0.007 C 
HETATM   28  C18 UNL     1      29.921   5.851  48.394  1.00  0.00     0.034 C 
HETATM   29  C19 UNL     1      30.473   6.590  47.441  1.00  0.00     0.079 C 
HETATM   30  N3  UNL     1      30.052   7.766  47.291  1.00  0.00    -0.283 NA
HETATM   31  C20 UNL     1      28.663   8.075  47.227  1.00  0.00     0.183 C 
ENDBRANCH  25  26
ENDBRANCH  21  25
ENDBRANCH  14  21
BRANCH   7  32
HETATM   32  O1  UNL     1      19.025   3.195  52.289  1.00  0.00    -0.346 OA
HETATM   33  H10 UNL     1      18.461   3.563  53.029  1.00  0.00     0.219 HD
ENDBRANCH   7  32
TORSDOF 6
ENDMDL
MODEL 3
REMARK VINA RESULT:      -8.4      2.017      2.667
REMARK  6 active torsions:
REMARK  status: ('A' for Active; 'I' for Inactive)
REMARK    1  A    between atoms: C6_7  and  O1_8 
REMARK    2  A    between atoms: C12_15  and  C13_16 
REMARK    3  A    between atoms: C13_16  and  C14_17 
REMARK    4  A    between atoms: C13_16  and  C15_19 
REMARK    5  A    between atoms: C14_17  and  O2_18 
REMARK    6  A    between atoms: C15_19  and  C16_20 
ROOT
HETATM    1  C1  UNL     1      18.232  -0.897  53.028  1.00  0.00     0.057 C 
HETATM    2  C2  UNL     1      19.644  -0.969  53.456  1.00  0.00    -0.014 C 
HETATM    3  C3  UNL     1      20.614  -1.411  54.178  1.00  0.00    -0.010 C 
HETATM    4  C4  UNL     1      21.919  -1.690  54.806  1.00  0.00     0.048 C 
HETATM    5  C5  UNL     1      22.943  -0.809  54.139  1.00  0.00     0.125 C 
HETATM    6  N1  UNL     1      24.285  -0.968  54.649  1.00  0.00    -0.371 N 
HETATM    7  C6  UNL     1      25.543  -0.340  54.286  1.00  0.00     0.133 C 
HETATM    8  C7  UNL     1      25.627   0.364  53.137  1.00  0.00     0.048 C 
HETATM    9  C8  UNL     1      25.162   0.944  51.895  1.00  0.00     0.153 C 
HETATM   10  N2  UNL     1      25.271   2.396  51.794  1.00  0.00    -0.392 N 
HETATM   11  C9  UNL     1      26.706   2.695  51.675  1.00  0.00     0.148 C 
HETATM   12  C10 UNL     1      24.643   3.707  51.765  1.00  0.00     0.088 C 
HETATM   13  C11 UNL     1      23.762   4.197  50.904  1.00  0.00     0.102 A 
HETATM   14  C12 UNL     1      23.654   3.668  49.690  1.00  0.00     0.077 A 
HETATM   15  N4  UNL     1      23.155   2.731  50.613  1.00  0.00    -0.245 NA
HETATM   16  C21 UNL     1      21.940   2.306  50.380  1.00  0.00     0.168 C 
HETATM   17  N5  UNL     1      21.436   1.382  51.294  1.00  0.00    -0.290 N 
HETATM   18  C22 UNL     1      20.143   1.137  51.410  1.00  0.00     0.165 A 
HETATM   19  S1  UNL     1      20.814   0.054  52.623  1.00  0.00    -0.049 SA
HETATM   20  H9  UNL     1      24.309  -1.677  55.419  1.00  0.00     0.161 HD
ENDROOT
BRANCH  14  21
HETATM   21  C13 UNL     1      24.201   4.693  48.681  1.00  0.00     0.041 C 
BRANCH  21  22
HETATM   22  C14 UNL     1      22.947   5.405  48.173  1.00  0.00     0.171 C 
BRANCH  22  23
HETATM   23  O2  UNL     1      23.063   6.233  47.133  1.00  0.00    -0.400 OA
HETATM   24  H21 UNL     1      23.980   6.464  46.841  1.00  0.00     0.209 HD
ENDBRANCH  22  23
ENDBRANCH  21  22
BRANCH  21  25
HETATM   25  C15 UNL     1      25.119   5.577  49.418  1.00  0.00     0.045 C 
BRANCH  25  26
HETATM   26  C16 UNL     1      26.502   5.718  48.995  1.00  0.00    -0.060 C 
HETATM   27  C17 UNL     1      27.533   4.984  48.628  1.00  0.00     0.007 C 
HETATM   28  C18 UNL     1      28.862   5.466  48.237  1.00  0.00     0.034 C 
HETATM   29  C19 UNL     1      28.736   6.706  47.783  1.00  0.00     0.079 C 
HETATM   30  N3  UNL     1      28.073   7.522  48.474  1.00  0.00    -0.283 NA
HETATM   31  C20 UNL     1      26.792   7.203  49.008  1.00  0.00     0.183 C 
ENDBRANCH  25  26
ENDBRANCH  21  25
ENDBRANCH  14  21
BRANCH   7  32
HETATM   32  O1  UNL     1      26.553  -0.561  55.227  1.00  0.00    -0.346 OA
HETATM   33  H10 UNL     1      27.522  -0.666  55.002  1.00  0.00     0.219 HD
ENDBRANCH   7  32
TORSDOF 6
ENDMDL
MODEL 4
REMARK VINA RESULT:      -8.2      2.691      4.488
REMARK  6 active torsions:
REMARK  status: ('A' for Active; 'I' for Inactive)
REMARK    1  A    between atoms: C6_7  and  O1_8 
REMARK    2  A    between atoms: C12_15  and  C13_16 
REMARK    3  A    between atoms: C13_16  and  C14_17 
REMARK    4  A    between atoms: C13_16  and  C15_19 
REMARK    5  A    between atoms: C14_17  and  O2_18 
REMARK    6  A    between atoms: C15_19  and  C16_20 
ROOT
HETATM    1  C1  UNL     1      22.836  -1.133  55.269  1.00  0.00     0.057 C 
HETATM    2  C2  UNL     1      21.807  -0.732  54.289  1.00  0.00    -0.014 C 
HETATM    3  C3  UNL     1      20.660  -0.823  53.712  1.00  0.00    -0.010 C 
HETATM    4  C4  UNL     1      19.470  -0.652  52.857  1.00  0.00     0.048 C 
HETATM    5  C5  UNL     1      19.756   0.476  51.901  1.00  0.00     0.125 C 
HETATM    6  N1  UNL     1      18.674   0.769  50.989  1.00  0.00    -0.371 N 
HETATM    7  C6  UNL     1      18.529   1.763  49.941  1.00  0.00     0.133 C 
HETATM    8  C7  UNL     1      19.406   2.786  49.870  1.00  0.00     0.048 C 
HETATM    9  C8  UNL     1      20.547   3.590  50.255  1.00  0.00     0.153 C 
HETATM   10  N2  UNL     1      21.578   3.757  49.236  1.00  0.00    -0.392 N 
HETATM   11  C9  UNL     1      21.002   4.637  48.207  1.00  0.00     0.148 C 
HETATM   12  C10 UNL     1      22.910   3.463  48.731  1.00  0.00     0.088 C 
HETATM   13  C11 UNL     1      24.090   3.721  49.277  1.00  0.00     0.102 A 
HETATM   14  C12 UNL     1      24.204   4.676  50.194  1.00  0.00     0.077 A 
HETATM   15  N4  UNL     1      23.480   3.615  50.767  1.00  0.00    -0.245 NA
HETATM   16  C21 UNL     1      23.962   3.148  51.891  1.00  0.00     0.168 C 
HETATM   17  N5  UNL     1      23.254   2.093  52.461  1.00  0.00    -0.290 N 
HETATM   18  C22 UNL     1      23.787   1.293  53.367  1.00  0.00     0.165 A 
HETATM   19  S1  UNL     1      22.170   0.616  53.213  1.00  0.00    -0.049 SA
HETATM   20  H9  UNL     1      17.866   0.122  51.150  1.00  0.00     0.161 HD
ENDROOT
BRANCH  14  21
HETATM   21  C13 UNL     1      24.995   5.836  49.566  1.00  0.00     0.041 C 
BRANCH  21  22
HETATM   22  C14 UNL     1      25.047   6.884  50.678  1.00  0.00     0.171 C 
BRANCH  22  23
HETATM   23  O2  UNL     1      24.436   6.617  51.834  1.00  0.00    -0.400 OA
HETATM   24  H21 UNL     1      24.159   7.391  52.386  1.00  0.00     0.209 HD
ENDBRANCH  22  23
ENDBRANCH  21  22
BRANCH  21  25
HETATM   25  C15 UNL     1      26.319   5.307  49.197  1.00  0.00     0.045 C 
BRANCH  25  26
HETATM   26  C16 UNL     1      27.233   6.104  48.397  1.00  0.00    -0.060 C 
HETATM   27  C17 UNL     1      27.260   7.215  47.688  1.00  0.00     0.007 C 
HETATM   28  C18 UNL     1      28.411   7.771  46.970  1.00  0.00     0.034 C 
HETATM   29  C19 UNL     1      29.517   7.332  47.554  1.00  0.00     0.079 C 
HETATM   30  N3  UNL     1      29.606   6.100  47.795  1.00  0.00    -0.283 NA
HETATM   31  C20 UNL     1      28.555   5.369  48.418  1.00  0.00     0.183 C 
ENDBRANCH  25  26
ENDBRANCH  21  25
ENDBRANCH  14  21
BRANCH   7  32
HETATM   32  O1  UNL     1      17.441   1.512  49.099  1.00  0.00    -0.346 OA
HETATM   33  H10 UNL     1      16.483   1.619  49.367  1.00  0.00     0.219 HD
ENDBRANCH   7  32
TORSDOF 6
ENDMDL
MODEL 5
REMARK VINA RESULT:      -8.1      2.624      5.137
REMARK  6 active torsions:
REMARK  status: ('A' for Active; 'I' for Inactive)
REMARK    1  A    between atoms: C6_7  and  O1_8 
REMARK    2  A    between atoms: C12_15  and  C13_16 
REMARK    3  A    between atoms: C13_16  and  C14_17 
REMARK    4  A    between atoms: C13_16  and  C15_19 
REMARK    5  A    between atoms: C14_17  and  O2_18 
REMARK    6  A    between atoms: C15_19  and  C16_20 
ROOT
HETATM    1  C1  UNL     1      28.848   1.062  53.526  1.00  0.00     0.057 C 
HETATM    2  C2  UNL     1      27.502   0.553  53.859  1.00  0.00    -0.014 C 
HETATM    3  C3  UNL     1      26.670  -0.172  54.523  1.00  0.00    -0.010 C 
HETATM    4  C4  UNL     1      25.476  -0.846  55.066  1.00  0.00     0.048 C 
HETATM    5  C5  UNL     1      24.284  -0.366  54.279  1.00  0.00     0.125 C 
HETATM    6  N1  UNL     1      23.026  -0.941  54.696  1.00  0.00    -0.371 N 
HETATM    7  C6  UNL     1      21.667  -0.746  54.227  1.00  0.00     0.133 C 
HETATM    8  C7  UNL     1      21.386   0.296  53.417  1.00  0.00     0.048 C 
HETATM    9  C8  UNL     1      21.656   1.484  52.636  1.00  0.00     0.153 C 
HETATM   10  N2  UNL     1      21.335   1.394  51.215  1.00  0.00    -0.392 N 
HETATM   11  C9  UNL     1      19.866   1.377  51.124  1.00  0.00     0.148 C 
HETATM   12  C10 UNL     1      21.765   1.299  49.829  1.00  0.00     0.088 C 
HETATM   13  C11 UNL     1      22.491   2.150  49.116  1.00  0.00     0.102 A 
HETATM   14  C12 UNL     1      22.569   3.425  49.480  1.00  0.00     0.077 A 
HETATM   15  N4  UNL     1      23.272   2.663  50.431  1.00  0.00    -0.245 NA
HETATM   16  C21 UNL     1      24.512   3.030  50.638  1.00  0.00     0.168 C 
HETATM   17  N5  UNL     1      25.217   2.276  51.574  1.00  0.00    -0.290 N 
HETATM   18  C22 UNL     1      26.537   2.279  51.632  1.00  0.00     0.165 A 
HETATM   19  S1  UNL     1      26.132   1.169  52.936  1.00  0.00    -0.049 SA
HETATM   20  H9  UNL     1      23.169  -1.616  55.484  1.00  0.00     0.161 HD
ENDROOT
BRANCH  14  21
HETATM   21  C13 UNL     1      21.798   4.257  48.440  1.00  0.00     0.041 C 
BRANCH  21  22
HETATM   22  C14 UNL     1      20.633   4.845  49.237  1.00  0.00     0.171 C 
BRANCH  22  23
HETATM   23  O2  UNL     1      20.639   4.714  50.565  1.00  0.00    -0.400 OA
HETATM   24  H21 UNL     1      20.201   5.431  51.090  1.00  0.00     0.209 HD
ENDBRANCH  22  23
ENDBRANCH  21  22
BRANCH  21  25
HETATM   25  C15 UNL     1      22.730   5.276  47.927  1.00  0.00     0.045 C 
BRANCH  25  26
HETATM   26  C16 UNL     1      23.411   6.177  48.840  1.00  0.00    -0.060 C 
HETATM   27  C17 UNL     1      23.147   7.055  49.787  1.00  0.00     0.007 C 
HETATM   28  C18 UNL     1      24.121   7.833  50.560  1.00  0.00     0.034 C 
HETATM   29  C19 UNL     1      25.267   7.165  50.576  1.00  0.00     0.079 C 
HETATM   30  N3  UNL     1      25.708   6.727  49.483  1.00  0.00    -0.283 NA
HETATM   31  C20 UNL     1      24.889   6.013  48.563  1.00  0.00     0.183 C 
ENDBRANCH  25  26
ENDBRANCH  21  25
ENDBRANCH  14  21
BRANCH   7  32
HETATM   32  O1  UNL     1      20.782  -1.718  54.705  1.00  0.00    -0.346 OA
HETATM   33  H10 UNL     1      21.045  -2.481  55.295  1.00  0.00     0.219 HD
ENDBRANCH   7  32
TORSDOF 6
ENDMDL
MODEL 6
REMARK VINA RESULT:      -8.0      3.799      6.624
REMARK  6 active torsions:
REMARK  status: ('A' for Active; 'I' for Inactive)
REMARK    1  A    between atoms: C6_7  and  O1_8 
REMARK    2  A    between atoms: C12_15  and  C13_16 
REMARK    3  A    between atoms: C13_16  and  C14_17 
REMARK    4  A    between atoms: C13_16  and  C15_19 
REMARK    5  A    between atoms: C14_17  and  O2_18 
REMARK    6  A    between atoms: C15_19  and  C16_20 
ROOT
HETATM    1  C1  UNL     1      14.902  -0.884  51.226  1.00  0.00     0.057 C 
HETATM    2  C2  UNL     1      15.618   0.374  50.936  1.00  0.00    -0.014 C 
HETATM    3  C3  UNL     1      15.728   1.555  50.434  1.00  0.00    -0.010 C 
HETATM    4  C4  UNL     1      16.184   2.889  50.001  1.00  0.00     0.048 C 
HETATM    5  C5  UNL     1      17.605   3.059  50.471  1.00  0.00     0.125 C 
HETATM    6  N1  UNL     1      18.198   4.329  50.120  1.00  0.00    -0.371 N 
HETATM    7  C6  UNL     1      19.508   4.895  50.385  1.00  0.00     0.133 C 
HETATM    8  C7  UNL     1      20.312   4.312  51.298  1.00  0.00     0.048 C 
HETATM    9  C8  UNL     1      20.706   3.341  52.297  1.00  0.00     0.153 C 
HETATM   10  N2  UNL     1      21.920   2.586  52.002  1.00  0.00    -0.392 N 
HETATM   11  C9  UNL     1      23.038   3.533  52.136  1.00  0.00     0.148 C 
HETATM   12  C10 UNL     1      22.569   1.340  51.624  1.00  0.00     0.088 C 
HETATM   13  C11 UNL     1      22.574   0.173  52.254  1.00  0.00     0.102 A 
HETATM   14  C12 UNL     1      22.314   0.118  53.555  1.00  0.00     0.077 A 
HETATM   15  N4  UNL     1      21.120   0.453  52.892  1.00  0.00    -0.245 NA
HETATM   16  C21 UNL     1      20.099  -0.325  53.147  1.00  0.00     0.168 C 
HETATM   17  N5  UNL     1      18.913  -0.003  52.490  1.00  0.00    -0.290 N 
HETATM   18  C22 UNL     1      17.924  -0.868  52.354  1.00  0.00     0.165 A 
HETATM   19  S1  UNL     1      17.267   0.545  51.536  1.00  0.00    -0.049 SA
HETATM   20  H9  UNL     1      17.523   4.919  49.578  1.00  0.00     0.161 HD
ENDROOT
BRANCH  14  21
HETATM   21  C13 UNL     1      23.622  -0.248  54.279  1.00  0.00     0.041 C 
BRANCH  21  22
HETATM   22  C14 UNL     1      23.191  -1.313  55.289  1.00  0.00     0.171 C 
BRANCH  22  23
HETATM   23  O2  UNL     1      21.995  -1.884  55.141  1.00  0.00    -0.400 OA
HETATM   24  H21 UNL     1      21.458  -1.607  54.356  1.00  0.00     0.209 HD
ENDBRANCH  22  23
ENDBRANCH  21  22
BRANCH  21  25
HETATM   25  C15 UNL     1      24.555  -0.752  53.258  1.00  0.00     0.045 C 
BRANCH  25  26
HETATM   26  C16 UNL     1      25.990  -0.640  53.454  1.00  0.00    -0.060 C 
HETATM   27  C17 UNL     1      27.120  -1.156  53.012  1.00  0.00     0.007 C 
HETATM   28  C18 UNL     1      28.476  -0.797  53.438  1.00  0.00     0.034 C 
HETATM   29  C19 UNL     1      28.451   0.447  53.898  1.00  0.00     0.079 C 
HETATM   30  N3  UNL     1      27.553   0.751  54.725  1.00  0.00    -0.283 NA
HETATM   31  C20 UNL     1      26.184   0.416  54.520  1.00  0.00     0.183 C 
ENDBRANCH  25  26
ENDBRANCH  21  25
ENDBRANCH  14  21
BRANCH   7  32
HETATM   32  O1  UNL     1      19.776   6.031  49.615  1.00  0.00    -0.346 OA
HETATM   33  H10 UNL     1      20.398   6.766  49.887  1.00  0.00     0.219 HD
ENDBRANCH   7  32
TORSDOF 6
ENDMDL
MODEL 7
REMARK VINA RESULT:      -8.0      3.103      6.544
REMARK  6 active torsions:
REMARK  status: ('A' for Active; 'I' for Inactive)
REMARK    1  A    between atoms: C6_7  and  O1_8 
REMARK    2  A    between atoms: C12_15  and  C13_16 
REMARK    3  A    between atoms: C13_16  and  C14_17 
REMARK    4  A    between atoms: C13_16  and  C15_19 
REMARK    5  A    between atoms: C14_17  and  O2_18 
REMARK    6  A    between atoms: C15_19  and  C16_20 
ROOT
HETATM    1  C1  UNL     1      16.001  -0.425  51.983  1.00  0.00     0.057 C 
HETATM    2  C2  UNL     1      16.426   0.891  51.465  1.00  0.00    -0.014 C 
HETATM    3  C3  UNL     1      16.228   2.035  50.907  1.00  0.00    -0.010 C 
HETATM    4  C4  UNL     1      16.356   3.381  50.318  1.00  0.00     0.048 C 
HETATM    5  C5  UNL     1      17.809   3.770  50.384  1.00  0.00     0.125 C 
HETATM    6  N1  UNL     1      18.098   5.077  49.840  1.00  0.00    -0.371 N 
HETATM    7  C6  UNL     1      19.335   5.828  49.723  1.00  0.00     0.133 C 
HETATM    8  C7  UNL     1      20.425   5.426  50.409  1.00  0.00     0.048 C 
HETATM    9  C8  UNL     1      21.202   4.593  51.302  1.00  0.00     0.153 C 
HETATM   10  N2  UNL     1      22.395   3.983  50.722  1.00  0.00    -0.392 N 
HETATM   11  C9  UNL     1      23.358   5.076  50.516  1.00  0.00     0.148 C 
HETATM   12  C10 UNL     1      23.098   2.808  50.232  1.00  0.00     0.088 C 
HETATM   13  C11 UNL     1      23.437   1.703  50.880  1.00  0.00     0.102 A 
HETATM   14  C12 UNL     1      23.535   1.712  52.205  1.00  0.00     0.077 A 
HETATM   15  N4  UNL     1      22.174   1.837  51.874  1.00  0.00    -0.245 NA
HETATM   16  C21 UNL     1      21.379   0.953  52.422  1.00  0.00     0.168 C 
HETATM   17  N5  UNL     1      20.030   1.066  52.093  1.00  0.00    -0.290 N 
HETATM   18  C22 UNL     1      19.177   0.071  52.260  1.00  0.00     0.165 A 
HETATM   19  S1  UNL     1      18.131   1.320  51.595  1.00  0.00    -0.049 SA
HETATM   20  H9  UNL     1      17.227   5.530  49.476  1.00  0.00     0.161 HD
ENDROOT
BRANCH  14  21
HETATM   21  C13 UNL     1      25.025   1.576  52.566  1.00  0.00     0.041 C 
BRANCH  21  22
HETATM   22  C14 UNL     1      25.309   2.821  53.407  1.00  0.00     0.171 C 
BRANCH  22  23
HETATM   23  O2  UNL     1      24.355   3.747  53.517  1.00  0.00    -0.400 OA
HETATM   24  H21 UNL     1      23.449   3.432  53.762  1.00  0.00     0.209 HD
ENDBRANCH  22  23
ENDBRANCH  21  22
BRANCH  21  25
HETATM   25  C15 UNL     1      25.174   0.317  53.315  1.00  0.00     0.045 C 
BRANCH  25  26
HETATM   26  C16 UNL     1      26.472  -0.328  53.418  1.00  0.00    -0.060 C 
HETATM   27  C17 UNL     1      27.234  -1.189  52.773  1.00  0.00     0.007 C 
HETATM   28  C18 UNL     1      28.570  -1.647  53.167  1.00  0.00     0.034 C 
HETATM   29  C19 UNL     1      29.124  -0.710  53.924  1.00  0.00     0.079 C 
HETATM   30  N3  UNL     1      28.442  -0.237  54.870  1.00  0.00    -0.283 NA
HETATM   31  C20 UNL     1      27.095   0.191  54.696  1.00  0.00     0.183 C 
ENDBRANCH  25  26
ENDBRANCH  21  25
ENDBRANCH  14  21
BRANCH   7  32
HETATM   32  O1  UNL     1      19.224   6.928  48.867  1.00  0.00    -0.346 OA
HETATM   33  H10 UNL     1      18.523   7.638  48.944  1.00  0.00     0.219 HD
ENDBRANCH   7  32
TORSDOF 6
ENDMDL
MODEL 8
REMARK VINA RESULT:      -7.9      1.973      2.316
REMARK  6 active torsions:
REMARK  status: ('A' for Active; 'I' for Inactive)
REMARK    1  A    between atoms: C6_7  and  O1_8 
REMARK    2  A    between atoms: C12_15  and  C13_16 
REMARK    3  A    between atoms: C13_16  and  C14_17 
REMARK    4  A    between atoms: C13_16  and  C15_19 
REMARK    5  A    between atoms: C14_17  and  O2_18 
REMARK    6  A    between atoms: C15_19  and  C16_20 
ROOT
HETATM    1  C1  UNL     1      16.032   1.831  50.186  1.00  0.00     0.057 C 
HETATM    2  C2  UNL     1      17.124   1.193  50.947  1.00  0.00    -0.014 C 
HETATM    3  C3  UNL     1      17.624   0.294  51.721  1.00  0.00    -0.010 C 
HETATM    4  C4  UNL     1      18.499  -0.546  52.562  1.00  0.00     0.048 C 
HETATM    5  C5  UNL     1      19.871   0.074  52.552  1.00  0.00     0.125 C 
HETATM    6  N1  UNL     1      20.851  -0.640  53.338  1.00  0.00    -0.371 N 
HETATM    7  C6  UNL     1      22.262  -0.401  53.581  1.00  0.00     0.133 C 
HETATM    8  C7  UNL     1      22.928   0.485  52.812  1.00  0.00     0.048 C 
HETATM    9  C8  UNL     1      23.108   1.464  51.761  1.00  0.00     0.153 C 
HETATM   10  N2  UNL     1      23.580   2.776  52.191  1.00  0.00    -0.392 N 
HETATM   11  C9  UNL     1      24.984   2.598  52.593  1.00  0.00     0.148 C 
HETATM   12  C10 UNL     1      23.332   4.190  52.430  1.00  0.00     0.088 C 
HETATM   13  C11 UNL     1      22.974   5.135  51.571  1.00  0.00     0.102 A 
HETATM   14  C12 UNL     1      23.206   4.976  50.273  1.00  0.00     0.077 A 
HETATM   15  N4  UNL     1      22.197   4.069  50.643  1.00  0.00    -0.245 NA
HETATM   16  C21 UNL     1      21.092   4.142  49.944  1.00  0.00     0.168 C 
HETATM   17  N5  UNL     1      20.085   3.251  50.309  1.00  0.00    -0.290 N 
HETATM   18  C22 UNL     1      18.823   3.432  49.963  1.00  0.00     0.165 A 
HETATM   19  S1  UNL     1      18.723   1.932  50.877  1.00  0.00    -0.049 SA
HETATM   20  H9  UNL     1      20.421  -1.477  53.797  1.00  0.00     0.161 HD
ENDROOT
BRANCH  14  21
HETATM   21  C13 UNL     1      24.311   5.968  49.869  1.00  0.00     0.041 C 
BRANCH  21  22
HETATM   22  C14 UNL     1      24.398   6.920  51.062  1.00  0.00     0.171 C 
BRANCH  22  23
HETATM   23  O2  UNL     1      24.750   8.188  50.841  1.00  0.00    -0.400 OA
HETATM   24  H21 UNL     1      25.597   8.341  50.351  1.00  0.00     0.209 HD
ENDBRANCH  22  23
ENDBRANCH  21  22
BRANCH  21  25
HETATM   25  C15 UNL     1      25.539   5.183  49.654  1.00  0.00     0.045 C 
BRANCH  25  26
HETATM   26  C16 UNL     1      26.649   5.746  48.905  1.00  0.00    -0.060 C 
HETATM   27  C17 UNL     1      27.014   6.866  48.315  1.00  0.00     0.007 C 
HETATM   28  C18 UNL     1      28.277   7.120  47.613  1.00  0.00     0.034 C 
HETATM   29  C19 UNL     1      29.196   6.301  48.105  1.00  0.00     0.079 C 
HETATM   30  N3  UNL     1      28.902   5.083  48.214  1.00  0.00    -0.283 NA
HETATM   31  C20 UNL     1      27.681   4.644  48.799  1.00  0.00     0.183 C 
ENDBRANCH  25  26
ENDBRANCH  21  25
ENDBRANCH  14  21
BRANCH   7  32
HETATM   32  O1  UNL     1      22.768  -1.163  54.639  1.00  0.00    -0.346 OA
HETATM   33  H10 UNL     1      23.552  -1.780  54.567  1.00  0.00     0.219 HD
ENDBRANCH   7  32
TORSDOF 6
ENDMDL
MODEL 9
REMARK VINA RESULT:      -7.8      2.845      5.124
REMARK  6 active torsions:
REMARK  status: ('A' for Active; 'I' for Inactive)
REMARK    1  A    between atoms: C6_7  and  O1_8 
REMARK    2  A    between atoms: C12_15  and  C13_16 
REMARK    3  A    between atoms: C13_16  and  C14_17 
REMARK    4  A    between atoms: C13_16  and  C15_19 
REMARK    5  A    between atoms: C14_17  and  O2_18 
REMARK    6  A    between atoms: C15_19  and  C16_20 
ROOT
HETATM    1  C1  UNL     1      17.650   5.298  48.368  1.00  0.00     0.057 C 
HETATM    2  C2  UNL     1      17.659   4.126  49.267  1.00  0.00    -0.014 C 
HETATM    3  C3  UNL     1      17.104   3.198  49.965  1.00  0.00    -0.010 C 
HETATM    4  C4  UNL     1      16.808   2.048  50.840  1.00  0.00     0.048 C 
HETATM    5  C5  UNL     1      18.122   1.498  51.329  1.00  0.00     0.125 C 
HETATM    6  N1  UNL     1      17.998   0.357  52.206  1.00  0.00    -0.371 N 
HETATM    7  C6  UNL     1      18.989  -0.468  52.873  1.00  0.00     0.133 C 
HETATM    8  C7  UNL     1      20.284  -0.381  52.502  1.00  0.00     0.048 C 
HETATM    9  C8  UNL     1      21.422   0.097  51.747  1.00  0.00     0.153 C 
HETATM   10  N2  UNL     1      22.493   0.703  52.532  1.00  0.00    -0.392 N 
HETATM   11  C9  UNL     1      23.139  -0.395  53.266  1.00  0.00     0.148 C 
HETATM   12  C10 UNL     1      23.234   1.882  52.955  1.00  0.00     0.088 C 
HETATM   13  C11 UNL     1      23.941   2.734  52.226  1.00  0.00     0.102 A 
HETATM   14  C12 UNL     1      24.407   2.366  51.038  1.00  0.00     0.077 A 
HETATM   15  N4  UNL     1      23.009   2.482  50.934  1.00  0.00    -0.245 NA
HETATM   16  C21 UNL     1      22.580   3.273  49.983  1.00  0.00     0.168 C 
HETATM   17  N5  UNL     1      21.196   3.398  49.878  1.00  0.00    -0.290 N 
HETATM   18  C22 UNL     1      20.625   4.401  49.236  1.00  0.00     0.165 A 
HETATM   19  S1  UNL     1      19.221   3.494  49.786  1.00  0.00    -0.049 SA
HETATM   20  H9  UNL     1      16.991   0.114  52.361  1.00  0.00     0.161 HD
ENDROOT
BRANCH  14  21
HETATM   21  C13 UNL     1      25.936   2.238  51.152  1.00  0.00     0.041 C 
BRANCH  21  22
HETATM   22  C14 UNL     1      26.462   3.256  50.138  1.00  0.00     0.171 C 
BRANCH  22  23
HETATM   23  O2  UNL     1      26.226   4.551  50.355  1.00  0.00    -0.400 OA
HETATM   24  H21 UNL     1      26.372   4.887  51.275  1.00  0.00     0.209 HD
ENDBRANCH  22  23
ENDBRANCH  21  22
BRANCH  21  25
HETATM   25  C15 UNL     1      26.294   2.559  52.543  1.00  0.00     0.045 C 
BRANCH  25  26
HETATM   26  C16 UNL     1      27.337   1.813  53.225  1.00  0.00    -0.060 C 
HETATM   27  C17 UNL     1      28.565   1.966  53.679  1.00  0.00     0.007 C 
HETATM   28  C18 UNL     1      29.381   0.957  54.363  1.00  0.00     0.034 C 
HETATM   29  C19 UNL     1      28.566   0.085  54.939  1.00  0.00     0.079 C 
HETATM   30  N3  UNL     1      27.630  -0.393  54.247  1.00  0.00    -0.283 NA
HETATM   31  C20 UNL     1      26.777   0.426  53.453  1.00  0.00     0.183 C 
ENDBRANCH  25  26
ENDBRANCH  21  25
ENDBRANCH  14  21
BRANCH   7  32
HETATM   32  O1  UNL     1      18.439  -1.285  53.865  1.00  0.00    -0.346 OA
HETATM   33  H10 UNL     1      17.663  -1.900  53.725  1.00  0.00     0.219 HD
ENDBRANCH   7  32
TORSDOF 6
ENDMDL
