MODEL 1
REMARK VINA RESULT:      -8.7      0.000      0.000
REMARK  1 active torsions:
REMARK  status: ('A' for Active; 'I' for Inactive)
REMARK    1  A    between atoms: C9_9  and  C10_10 
ROOT
HETATM    1  C1  UNL     1      25.660   2.298  53.567  1.00  0.00     0.062 C 
HETATM    2  C2  UNL     1      25.296   1.413  52.623  1.00  0.00     0.041 C 
HETATM    3  C3  UNL     1      23.944   0.749  52.811  1.00  0.00     0.096 C 
HETATM    4  C4  UNL     1      23.071   1.099  51.658  1.00  0.00    -0.033 A 
HETATM    5  C5  UNL     1      23.453   1.986  50.761  1.00  0.00     0.040 A 
HETATM    6  C6  UNL     1      22.721   2.402  49.616  1.00  0.00     0.054 A 
HETATM    7  C7  UNL     1      23.436   3.320  48.920  1.00  0.00     0.017 C 
HETATM    8  C8  UNL     1      24.712   3.548  49.600  1.00  0.00     0.076 C 
HETATM    9  C9  UNL     1      25.854   4.147  49.668  1.00  0.00     0.048 C 
HETATM   10  N1  UNL     1      26.502   3.632  50.857  1.00  0.00    -0.263 N 
HETATM   11  N2  UNL     1      27.015   2.400  51.231  1.00  0.00    -0.068 NA
HETATM   12  N3  UNL     1      26.462   1.595  51.931  1.00  0.00    -0.141 NA
HETATM   13  N4  UNL     1      21.629   1.553  49.905  1.00  0.00    -0.261 NA
HETATM   14  C16 UNL     1      21.823   0.884  50.964  1.00  0.00     0.124 A 
HETATM   15  H13 UNL     1      26.533   4.471  51.505  1.00  0.00     0.190 HD
ENDROOT
BRANCH   9  16
HETATM   16  C10 UNL     1      26.701   5.142  48.961  1.00  0.00    -0.011 A 
HETATM   17  C11 UNL     1      28.010   4.957  48.628  1.00  0.00     0.013 A 
HETATM   18  C12 UNL     1      28.650   5.954  47.980  1.00  0.00     0.001 A 
HETATM   19  C13 UNL     1      28.072   7.151  47.629  1.00  0.00     0.000 A 
HETATM   20  C14 UNL     1      26.730   7.368  47.958  1.00  0.00     0.001 A 
HETATM   21  C15 UNL     1      26.078   6.349  48.620  1.00  0.00     0.013 A 
ENDBRANCH   9  16
TORSDOF 1
ENDMDL
MODEL 2
REMARK VINA RESULT:      -8.7      4.186      6.008
REMARK  1 active torsions:
REMARK  status: ('A' for Active; 'I' for Inactive)
REMARK    1  A    between atoms: C9_9  and  C10_10 
ROOT
HETATM    1  C1  UNL     1      22.873   1.758  50.644  1.00  0.00     0.062 C 
HETATM    2  C2  UNL     1      22.449   1.921  51.909  1.00  0.00     0.041 C 
HETATM    3  C3  UNL     1      21.080   1.354  52.237  1.00  0.00     0.096 C 
HETATM    4  C4  UNL     1      21.230   0.312  53.289  1.00  0.00    -0.033 A 
HETATM    5  C5  UNL     1      22.422  -0.093  53.679  1.00  0.00     0.040 A 
HETATM    6  C6  UNL     1      22.701  -1.070  54.673  1.00  0.00     0.054 A 
HETATM    7  C7  UNL     1      24.042  -1.216  54.812  1.00  0.00     0.017 C 
HETATM    8  C8  UNL     1      24.721  -0.306  53.888  1.00  0.00     0.076 C 
HETATM    9  C9  UNL     1      25.809   0.180  53.391  1.00  0.00     0.048 C 
HETATM   10  N1  UNL     1      25.394   1.163  52.412  1.00  0.00    -0.263 N 
HETATM   11  N2  UNL     1      24.757   2.393  52.475  1.00  0.00    -0.068 NA
HETATM   12  N3  UNL     1      23.591   2.589  52.260  1.00  0.00    -0.141 NA
HETATM   13  N4  UNL     1      21.334  -1.309  54.938  1.00  0.00    -0.261 NA
HETATM   14  C16 UNL     1      20.583  -0.587  54.216  1.00  0.00     0.124 A 
HETATM   15  H13 UNL     1      25.697   0.738  51.489  1.00  0.00     0.190 HD
ENDROOT
BRANCH   9  16
HETATM   16  C10 UNL     1      27.288   0.082  53.487  1.00  0.00    -0.011 A 
HETATM   17  C11 UNL     1      28.115   1.101  53.859  1.00  0.00     0.013 A 
HETATM   18  C12 UNL     1      29.443   0.859  53.904  1.00  0.00     0.001 A 
HETATM   19  C13 UNL     1      30.026  -0.348  53.600  1.00  0.00     0.000 A 
HETATM   20  C14 UNL     1      29.201  -1.411  53.215  1.00  0.00     0.001 A 
HETATM   21  C15 UNL     1      27.845  -1.162  53.169  1.00  0.00     0.013 A 
ENDBRANCH   9  16
TORSDOF 1
ENDMDL
MODEL 3
REMARK VINA RESULT:      -8.2      1.872      3.621
REMARK  1 active torsions:
REMARK  status: ('A' for Active; 'I' for Inactive)
REMARK    1  A    between atoms: C9_9  and  C10_10 
ROOT
HETATM    1  C1  UNL     1      21.791   0.529  51.231  1.00  0.00     0.062 C 
HETATM    2  C2  UNL     1      22.222   0.832  52.468  1.00  0.00     0.041 C 
HETATM    3  C3  UNL     1      22.455  -0.339  53.404  1.00  0.00     0.096 C 
HETATM    4  C4  UNL     1      23.890  -0.364  53.797  1.00  0.00    -0.033 A 
HETATM    5  C5  UNL     1      24.763   0.445  53.230  1.00  0.00     0.040 A 
HETATM    6  C6  UNL     1      26.153   0.525  53.518  1.00  0.00     0.054 A 
HETATM    7  C7  UNL     1      26.728   1.481  52.747  1.00  0.00     0.017 C 
HETATM    8  C8  UNL     1      25.705   2.089  51.896  1.00  0.00     0.076 C 
HETATM    9  C9  UNL     1      25.365   2.942  50.988  1.00  0.00     0.048 C 
HETATM   10  N1  UNL     1      23.939   2.772  50.797  1.00  0.00    -0.263 N 
HETATM   11  N2  UNL     1      22.816   3.005  51.577  1.00  0.00    -0.068 NA
HETATM   12  N3  UNL     1      22.210   2.173  52.197  1.00  0.00    -0.141 NA
HETATM   13  N4  UNL     1      26.093  -0.491  54.498  1.00  0.00    -0.261 NA
HETATM   14  C16 UNL     1      24.916  -0.943  54.633  1.00  0.00     0.124 A 
HETATM   15  H13 UNL     1      23.865   2.379  49.815  1.00  0.00     0.190 HD
ENDROOT
BRANCH   9  16
HETATM   16  C10 UNL     1      25.919   4.006  50.112  1.00  0.00    -0.011 A 
HETATM   17  C11 UNL     1      27.030   3.876  49.332  1.00  0.00     0.013 A 
HETATM   18  C12 UNL     1      27.411   4.934  48.583  1.00  0.00     0.001 A 
HETATM   19  C13 UNL     1      26.753   6.141  48.550  1.00  0.00     0.000 A 
HETATM   20  C14 UNL     1      25.610   6.302  49.340  1.00  0.00     0.001 A 
HETATM   21  C15 UNL     1      25.223   5.221  50.104  1.00  0.00     0.013 A 
ENDBRANCH   9  16
TORSDOF 1
ENDMDL
MODEL 4
REMARK VINA RESULT:      -8.0      3.732      7.721
REMARK  1 active torsions:
REMARK  status: ('A' for Active; 'I' for Inactive)
REMARK    1  A    between atoms: C9_9  and  C10_10 
ROOT
HETATM    1  C1  UNL     1      24.060   3.462  51.969  1.00  0.00     0.062 C 
HETATM    2  C2  UNL     1      24.700   2.290  51.807  1.00  0.00     0.041 C 
HETATM    3  C3  UNL     1      25.945   2.082  52.649  1.00  0.00     0.096 C 
HETATM    4  C4  UNL     1      25.734   0.909  53.539  1.00  0.00    -0.033 A 
HETATM    5  C5  UNL     1      24.557   0.322  53.623  1.00  0.00     0.040 A 
HETATM    6  C6  UNL     1      24.227  -0.804  54.425  1.00  0.00     0.054 A 
HETATM    7  C7  UNL     1      22.925  -1.134  54.242  1.00  0.00     0.017 C 
HETATM    8  C8  UNL     1      22.327  -0.210  53.278  1.00  0.00     0.076 C 
HETATM    9  C9  UNL     1      21.309   0.192  52.593  1.00  0.00     0.048 C 
HETATM   10  N1  UNL     1      21.773   1.322  51.816  1.00  0.00    -0.263 N 
HETATM   11  N2  UNL     1      22.666   1.484  50.767  1.00  0.00    -0.068 NA
HETATM   12  N3  UNL     1      23.799   1.871  50.866  1.00  0.00    -0.141 NA
HETATM   13  N4  UNL     1      25.533  -0.913  54.953  1.00  0.00    -0.261 NA
HETATM   14  C16 UNL     1      26.304  -0.021  54.487  1.00  0.00     0.124 A 
HETATM   15  H13 UNL     1      21.246   2.142  52.232  1.00  0.00     0.190 HD
ENDROOT
BRANCH   9  16
HETATM   16  C10 UNL     1      19.877  -0.109  52.336  1.00  0.00    -0.011 A 
HETATM   17  C11 UNL     1      19.177   0.306  51.241  1.00  0.00     0.013 A 
HETATM   18  C12 UNL     1      17.878  -0.050  51.143  1.00  0.00     0.001 A 
HETATM   19  C13 UNL     1      17.205  -0.806  52.074  1.00  0.00     0.000 A 
HETATM   20  C14 UNL     1      17.899  -1.245  53.206  1.00  0.00     0.001 A 
HETATM   21  C15 UNL     1      19.225  -0.880  53.305  1.00  0.00     0.013 A 
ENDBRANCH   9  16
TORSDOF 1
ENDMDL
MODEL 5
REMARK VINA RESULT:      -7.7      2.528      4.754
REMARK  1 active torsions:
REMARK  status: ('A' for Active; 'I' for Inactive)
REMARK    1  A    between atoms: C9_9  and  C10_10 
ROOT
HETATM    1  C1  UNL     1      19.336   0.709  50.661  1.00  0.00     0.062 C 
HETATM    2  C2  UNL     1      19.591   0.922  51.963  1.00  0.00     0.041 C 
HETATM    3  C3  UNL     1      19.372  -0.258  52.892  1.00  0.00     0.096 C 
HETATM    4  C4  UNL     1      20.665  -0.609  53.538  1.00  0.00    -0.033 A 
HETATM    5  C5  UNL     1      21.791  -0.033  53.163  1.00  0.00     0.040 A 
HETATM    6  C6  UNL     1      23.085  -0.273  53.701  1.00  0.00     0.054 A 
HETATM    7  C7  UNL     1      23.996   0.512  53.075  1.00  0.00     0.017 C 
HETATM    8  C8  UNL     1      23.314   1.329  52.070  1.00  0.00     0.076 C 
HETATM    9  C9  UNL     1      23.352   2.224  51.141  1.00  0.00     0.048 C 
HETATM   10  N1  UNL     1      21.986   2.387  50.689  1.00  0.00    -0.263 N 
HETATM   11  N2  UNL     1      20.823   2.885  51.258  1.00  0.00    -0.068 NA
HETATM   12  N3  UNL     1      19.939   2.225  51.734  1.00  0.00    -0.141 NA
HETATM   13  N4  UNL     1      22.613  -1.233  54.624  1.00  0.00    -0.261 NA
HETATM   14  C16 UNL     1      21.359  -1.398  54.529  1.00  0.00     0.124 A 
HETATM   15  H13 UNL     1      22.005   2.008  49.699  1.00  0.00     0.190 HD
ENDROOT
BRANCH   9  16
HETATM   16  C10 UNL     1      24.288   3.119  50.411  1.00  0.00    -0.011 A 
HETATM   17  C11 UNL     1      23.921   4.236  49.721  1.00  0.00     0.013 A 
HETATM   18  C12 UNL     1      24.888   4.954  49.109  1.00  0.00     0.001 A 
HETATM   19  C13 UNL     1      26.225   4.637  49.133  1.00  0.00     0.000 A 
HETATM   20  C14 UNL     1      26.630   3.496  49.834  1.00  0.00     0.001 A 
HETATM   21  C15 UNL     1      25.641   2.764  50.458  1.00  0.00     0.013 A 
ENDBRANCH   9  16
TORSDOF 1
ENDMDL
MODEL 6
REMARK VINA RESULT:      -7.7      2.064      6.586
REMARK  1 active torsions:
REMARK  status: ('A' for Active; 'I' for Inactive)
REMARK    1  A    between atoms: C9_9  and  C10_10 
ROOT
HETATM    1  C1  UNL     1      22.962   6.595  50.838  1.00  0.00     0.062 C 
HETATM    2  C2  UNL     1      23.425   6.011  49.719  1.00  0.00     0.041 C 
HETATM    3  C3  UNL     1      24.567   6.719  49.014  1.00  0.00     0.096 C 
HETATM    4  C4  UNL     1      25.752   5.819  48.994  1.00  0.00    -0.033 A 
HETATM    5  C5  UNL     1      25.752   4.681  49.659  1.00  0.00     0.040 A 
HETATM    6  C6  UNL     1      26.811   3.734  49.716  1.00  0.00     0.054 A 
HETATM    7  C7  UNL     1      26.445   2.680  50.486  1.00  0.00     0.017 C 
HETATM    8  C8  UNL     1      25.085   2.898  50.980  1.00  0.00     0.076 C 
HETATM    9  C9  UNL     1      24.066   2.503  51.669  1.00  0.00     0.048 C 
HETATM   10  N1  UNL     1      23.062   3.536  51.520  1.00  0.00    -0.263 N 
HETATM   11  N2  UNL     1      22.293   4.004  50.466  1.00  0.00    -0.068 NA
HETATM   12  N3  UNL     1      22.519   4.989  49.817  1.00  0.00    -0.141 NA
HETATM   13  N4  UNL     1      27.652   4.501  48.879  1.00  0.00    -0.261 NA
HETATM   14  C16 UNL     1      27.092   5.578  48.512  1.00  0.00     0.124 A 
HETATM   15  H13 UNL     1      22.988   3.951  52.493  1.00  0.00     0.190 HD
ENDROOT
BRANCH   9  16
HETATM   16  C10 UNL     1      23.590   1.384  52.522  1.00  0.00    -0.011 A 
HETATM   17  C11 UNL     1      24.388   0.416  53.058  1.00  0.00     0.013 A 
HETATM   18  C12 UNL     1      23.809  -0.537  53.820  1.00  0.00     0.001 A 
HETATM   19  C13 UNL     1      22.464  -0.602  54.096  1.00  0.00     0.000 A 
HETATM   20  C14 UNL     1      21.622   0.377  53.559  1.00  0.00     0.001 A 
HETATM   21  C15 UNL     1      22.214   1.350  52.782  1.00  0.00     0.013 A 
ENDBRANCH   9  16
TORSDOF 1
ENDMDL
MODEL 7
REMARK VINA RESULT:      -7.6      3.523      5.430
REMARK  1 active torsions:
REMARK  status: ('A' for Active; 'I' for Inactive)
REMARK    1  A    between atoms: C9_9  and  C10_10 
ROOT
HETATM    1  C1  UNL     1      23.144   4.686  51.099  1.00  0.00     0.062 C 
HETATM    2  C2  UNL     1      22.440   4.260  52.161  1.00  0.00     0.041 C 
HETATM    3  C3  UNL     1      20.983   3.917  51.908  1.00  0.00     0.096 C 
HETATM    4  C4  UNL     1      20.766   2.478  52.219  1.00  0.00    -0.033 A 
HETATM    5  C5  UNL     1      21.779   1.683  52.498  1.00  0.00     0.040 A 
HETATM    6  C6  UNL     1      21.707   0.299  52.817  1.00  0.00     0.054 A 
HETATM    7  C7  UNL     1      22.951  -0.184  53.057  1.00  0.00     0.017 C 
HETATM    8  C8  UNL     1      23.923   0.900  52.904  1.00  0.00     0.076 C 
HETATM    9  C9  UNL     1      25.142   1.323  52.931  1.00  0.00     0.048 C 
HETATM   10  N1  UNL     1      25.080   2.733  52.607  1.00  0.00    -0.263 N 
HETATM   11  N2  UNL     1      24.572   3.858  53.239  1.00  0.00    -0.068 NA
HETATM   12  N3  UNL     1      23.520   4.384  52.992  1.00  0.00    -0.141 NA
HETATM   13  N4  UNL     1      20.300   0.261  52.694  1.00  0.00    -0.261 NA
HETATM   14  C16 UNL     1      19.825   1.395  52.384  1.00  0.00     0.124 A 
HETATM   15  H13 UNL     1      25.558   2.792  51.663  1.00  0.00     0.190 HD
ENDROOT
BRANCH   9  16
HETATM   16  C10 UNL     1      26.535   0.872  53.184  1.00  0.00    -0.011 A 
HETATM   17  C11 UNL     1      27.559   1.683  53.576  1.00  0.00     0.013 A 
HETATM   18  C12 UNL     1      28.774   1.126  53.770  1.00  0.00     0.001 A 
HETATM   19  C13 UNL     1      29.054  -0.210  53.601  1.00  0.00     0.000 A 
HETATM   20  C14 UNL     1      28.023  -1.064  53.199  1.00  0.00     0.001 A 
HETATM   21  C15 UNL     1      26.783  -0.494  53.000  1.00  0.00     0.013 A 
ENDBRANCH   9  16
TORSDOF 1
ENDMDL
MODEL 8
REMARK VINA RESULT:      -7.3      2.620      6.404
REMARK  1 active torsions:
REMARK  status: ('A' for Active; 'I' for Inactive)
REMARK    1  A    between atoms: C9_9  and  C10_10 
ROOT
HETATM    1  C1  UNL     1      25.188   4.813  50.350  1.00  0.00     0.062 C 
HETATM    2  C2  UNL     1      23.886   4.979  50.064  1.00  0.00     0.041 C 
HETATM    3  C3  UNL     1      23.545   5.242  48.608  1.00  0.00     0.096 C 
HETATM    4  C4  UNL     1      22.673   4.143  48.112  1.00  0.00    -0.033 A 
HETATM    5  C5  UNL     1      22.435   3.077  48.851  1.00  0.00     0.040 A 
HETATM    6  C6  UNL     1      21.619   1.968  48.498  1.00  0.00     0.054 A 
HETATM    7  C7  UNL     1      21.601   1.069  49.514  1.00  0.00     0.017 C 
HETATM    8  C8  UNL     1      22.428   1.571  50.612  1.00  0.00     0.076 C 
HETATM    9  C9  UNL     1      22.926   1.429  51.794  1.00  0.00     0.048 C 
HETATM   10  N1  UNL     1      23.717   2.618  52.038  1.00  0.00    -0.263 N 
HETATM   11  N2  UNL     1      23.427   3.962  52.214  1.00  0.00    -0.068 NA
HETATM   12  N3  UNL     1      23.525   4.815  51.373  1.00  0.00    -0.141 NA
HETATM   13  N4  UNL     1      21.292   2.505  47.234  1.00  0.00    -0.261 NA
HETATM   14  C16 UNL     1      21.844   3.631  47.045  1.00  0.00     0.124 A 
HETATM   15  H13 UNL     1      24.712   2.252  52.067  1.00  0.00     0.190 HD
ENDROOT
BRANCH   9  16
HETATM   16  C10 UNL     1      22.954   0.497  52.952  1.00  0.00    -0.011 A 
HETATM   17  C11 UNL     1      24.060  -0.168  53.392  1.00  0.00     0.013 A 
HETATM   18  C12 UNL     1      23.930  -0.981  54.463  1.00  0.00     0.001 A 
HETATM   19  C13 UNL     1      22.755  -1.186  55.146  1.00  0.00     0.000 A 
HETATM   20  C14 UNL     1      21.605  -0.516  54.717  1.00  0.00     0.001 A 
HETATM   21  C15 UNL     1      21.739   0.313  53.623  1.00  0.00     0.013 A 
ENDBRANCH   9  16
TORSDOF 1
ENDMDL
MODEL 9
REMARK VINA RESULT:      -7.1      2.445      7.149
REMARK  1 active torsions:
REMARK  status: ('A' for Active; 'I' for Inactive)
REMARK    1  A    between atoms: C9_9  and  C10_10 
ROOT
HETATM    1  C1  UNL     1      20.362   3.134  48.390  1.00  0.00     0.062 C 
HETATM    2  C2  UNL     1      21.664   3.000  48.080  1.00  0.00     0.041 C 
HETATM    3  C3  UNL     1      22.379   4.258  47.624  1.00  0.00     0.096 C 
HETATM    4  C4  UNL     1      23.480   4.558  48.579  1.00  0.00    -0.033 A 
HETATM    5  C5  UNL     1      23.616   3.874  49.698  1.00  0.00     0.040 A 
HETATM    6  C6  UNL     1      24.622   4.055  50.685  1.00  0.00     0.054 A 
HETATM    7  C7  UNL     1      24.449   3.160  51.689  1.00  0.00     0.017 C 
HETATM    8  C8  UNL     1      23.286   2.324  51.389  1.00  0.00     0.076 C 
HETATM    9  C9  UNL     1      22.486   1.363  51.708  1.00  0.00     0.048 C 
HETATM   10  N1  UNL     1      21.526   1.270  50.628  1.00  0.00    -0.263 N 
HETATM   11  N2  UNL     1      21.593   0.904  49.292  1.00  0.00    -0.068 NA
HETATM   12  N3  UNL     1      21.644   1.661  48.361  1.00  0.00    -0.141 NA
HETATM   13  N4  UNL     1      25.238   5.114  49.980  1.00  0.00    -0.261 NA
HETATM   14  C16 UNL     1      24.637   5.365  48.892  1.00  0.00     0.124 A 
HETATM   15  H13 UNL     1      20.615   1.572  51.079  1.00  0.00     0.190 HD
ENDROOT
BRANCH   9  16
HETATM   16  C10 UNL     1      22.232   0.349  52.765  1.00  0.00    -0.011 A 
HETATM   17  C11 UNL     1      23.177  -0.148  53.613  1.00  0.00     0.013 A 
HETATM   18  C12 UNL     1      22.793  -1.064  54.528  1.00  0.00     0.001 A 
HETATM   19  C13 UNL     1      21.509  -1.536  54.666  1.00  0.00     0.000 A 
HETATM   20  C14 UNL     1      20.519  -1.043  53.809  1.00  0.00     0.001 A 
HETATM   21  C15 UNL     1      20.913  -0.107  52.876  1.00  0.00     0.013 A 
ENDBRANCH   9  16
TORSDOF 1
ENDMDL
