MODEL 1
REMARK VINA RESULT:      -7.7      0.000      0.000
REMARK  7 active torsions:
REMARK  status: ('A' for Active; 'I' for Inactive)
REMARK    1  A    between atoms: C2_2  and  O1_3 
REMARK    2  A    between atoms: O1_3  and  C3_4 
REMARK    3  A    between atoms: C7_8  and  C8_9 
REMARK    4  A    between atoms: C8_9  and  N1_10 
REMARK    5  A    between atoms: N1_10  and  S1_11 
REMARK    6  A    between atoms: N1_10  and  C9_12 
REMARK    7  A    between atoms: C9_12  and  C10_13 
ROOT
HETATM    1  C3  UNL     1      26.797   0.636  54.586  1.00  0.00     0.047 C 
HETATM    2  C4  UNL     1      26.513   1.723  53.882  1.00  0.00     0.010 C 
HETATM    3  C5  UNL     1      25.562   2.544  53.148  1.00  0.00     0.065 C 
HETATM    4  C6  UNL     1      24.185   2.013  53.036  1.00  0.00    -0.059 C 
HETATM    5  C7  UNL     1      23.389   2.961  52.515  1.00  0.00    -0.007 C 
HETATM    6  C17 UNL     1      23.403   0.778  53.311  1.00  0.00     0.182 C 
HETATM    7  N2  UNL     1      24.194  -0.403  53.048  1.00  0.00    -0.301 NA
HETATM    8  C18 UNL     1      25.180  -0.897  53.699  1.00  0.00     0.090 C 
HETATM    9  C19 UNL     1      25.851  -0.435  54.942  1.00  0.00     0.110 C 
ENDROOT
BRANCH   5  10
HETATM   10  C8  UNL     1      23.495   4.345  52.037  1.00  0.00     0.130 C 
BRANCH  10  11
HETATM   11  N1  UNL     1      22.859   4.464  50.745  1.00  0.00    -0.253 NA
BRANCH  11  12
HETATM   12  S1  UNL     1      21.172   3.956  50.788  1.00  0.00    -0.095 SA
HETATM   13  H12 UNL     1      20.682   3.990  52.115  1.00  0.00     0.119 HD
ENDBRANCH  11  12
BRANCH  11  14
HETATM   14  C9  UNL     1      23.604   3.679  49.786  1.00  0.00     0.141 C 
BRANCH  14  15
HETATM   15  C10 UNL     1      24.826   4.428  49.349  1.00  0.00    -0.044 A 
HETATM   16  C11 UNL     1      26.002   3.671  49.413  1.00  0.00     0.009 A 
HETATM   17  C12 UNL     1      27.237   4.158  49.062  1.00  0.00     0.007 A 
HETATM   18  C13 UNL     1      27.316   5.485  48.618  1.00  0.00    -0.062 A 
HETATM   19  C14 UNL     1      28.629   6.041  48.237  1.00  0.00     0.048 C 
HETATM   20  C15 UNL     1      26.164   6.224  48.556  1.00  0.00     0.007 A 
HETATM   21  C16 UNL     1      24.929   5.729  48.910  1.00  0.00     0.009 A 
ENDBRANCH  14  15
ENDBRANCH  11  14
ENDBRANCH  10  11
ENDBRANCH   5  10
BRANCH   1  22
HETATM   22  O1  UNL     1      28.159   0.673  54.939  1.00  0.00    -0.356 OA
BRANCH  22  23
HETATM   23  C2  UNL     1      29.210   0.627  54.011  1.00  0.00     0.170 C 
HETATM   24  C1  UNL     1      29.542  -0.808  53.627  1.00  0.00     0.034 C 
ENDBRANCH  22  23
ENDBRANCH   1  22
TORSDOF 7
ENDMDL
MODEL 2
REMARK VINA RESULT:      -7.3      1.146      1.750
REMARK  7 active torsions:
REMARK  status: ('A' for Active; 'I' for Inactive)
REMARK    1  A    between atoms: C2_2  and  O1_3 
REMARK    2  A    between atoms: O1_3  and  C3_4 
REMARK    3  A    between atoms: C7_8  and  C8_9 
REMARK    4  A    between atoms: C8_9  and  N1_10 
REMARK    5  A    between atoms: N1_10  and  S1_11 
REMARK    6  A    between atoms: N1_10  and  C9_12 
REMARK    7  A    between atoms: C9_12  and  C10_13 
ROOT
HETATM    1  C3  UNL     1      24.854  -0.254  53.944  1.00  0.00     0.047 C 
HETATM    2  C4  UNL     1      25.003   0.930  53.365  1.00  0.00     0.010 C 
HETATM    3  C5  UNL     1      24.434   2.128  52.768  1.00  0.00     0.065 C 
HETATM    4  C6  UNL     1      22.957   2.183  52.685  1.00  0.00    -0.059 C 
HETATM    5  C7  UNL     1      22.584   3.416  52.303  1.00  0.00    -0.007 C 
HETATM    6  C17 UNL     1      21.762   1.322  52.885  1.00  0.00     0.182 C 
HETATM    7  N2  UNL     1      22.028  -0.036  52.466  1.00  0.00    -0.301 NA
HETATM    8  C18 UNL     1      22.754  -0.940  53.010  1.00  0.00     0.090 C 
HETATM    9  C19 UNL     1      23.573  -0.911  54.250  1.00  0.00     0.110 C 
ENDROOT
BRANCH   5  10
HETATM   10  C8  UNL     1      23.211   4.696  51.954  1.00  0.00     0.130 C 
BRANCH  10  11
HETATM   11  N1  UNL     1      22.878   5.046  50.593  1.00  0.00    -0.253 NA
BRANCH  11  12
HETATM   12  S1  UNL     1      21.137   5.157  50.344  1.00  0.00    -0.095 SA
HETATM   13  H12 UNL     1      20.528   5.836  51.427  1.00  0.00     0.119 HD
ENDBRANCH  11  12
BRANCH  11  14
HETATM   14  C9  UNL     1      23.459   4.064  49.705  1.00  0.00     0.141 C 
BRANCH  14  15
HETATM   15  C10 UNL     1      24.860   4.459  49.350  1.00  0.00    -0.044 A 
HETATM   16  C11 UNL     1      24.971   5.775  48.885  1.00  0.00     0.009 A 
HETATM   17  C12 UNL     1      26.160   6.346  48.502  1.00  0.00     0.007 A 
HETATM   18  C13 UNL     1      27.319   5.563  48.585  1.00  0.00    -0.062 A 
HETATM   19  C14 UNL     1      28.613   6.144  48.177  1.00  0.00     0.048 C 
HETATM   20  C15 UNL     1      27.208   4.275  49.040  1.00  0.00     0.007 A 
HETATM   21  C16 UNL     1      26.012   3.709  49.422  1.00  0.00     0.009 A 
ENDBRANCH  14  15
ENDBRANCH  11  14
ENDBRANCH  10  11
ENDBRANCH   5  10
BRANCH   1  22
HETATM   22  O1  UNL     1      26.129  -0.782  54.221  1.00  0.00    -0.356 OA
BRANCH  22  23
HETATM   23  C2  UNL     1      27.261   0.004  54.489  1.00  0.00     0.170 C 
HETATM   24  C1  UNL     1      28.459  -0.462  53.676  1.00  0.00     0.034 C 
ENDBRANCH  22  23
ENDBRANCH   1  22
TORSDOF 7
ENDMDL
MODEL 3
REMARK VINA RESULT:      -7.2      2.423      6.706
REMARK  7 active torsions:
REMARK  status: ('A' for Active; 'I' for Inactive)
REMARK    1  A    between atoms: C2_2  and  O1_3 
REMARK    2  A    between atoms: O1_3  and  C3_4 
REMARK    3  A    between atoms: C7_8  and  C8_9 
REMARK    4  A    between atoms: C8_9  and  N1_10 
REMARK    5  A    between atoms: N1_10  and  S1_11 
REMARK    6  A    between atoms: N1_10  and  C9_12 
REMARK    7  A    between atoms: C9_12  and  C10_13 
ROOT
HETATM    1  C3  UNL     1      28.277   5.582  48.265  1.00  0.00     0.047 C 
HETATM    2  C4  UNL     1      27.577   4.625  48.859  1.00  0.00     0.010 C 
HETATM    3  C5  UNL     1      26.334   4.138  49.436  1.00  0.00     0.065 C 
HETATM    4  C6  UNL     1      25.199   5.087  49.449  1.00  0.00    -0.059 C 
HETATM    5  C7  UNL     1      24.085   4.435  49.821  1.00  0.00    -0.007 C 
HETATM    6  C17 UNL     1      24.894   6.518  49.186  1.00  0.00     0.182 C 
HETATM    7  N2  UNL     1      25.988   7.365  49.608  1.00  0.00    -0.301 NA
HETATM    8  C18 UNL     1      27.149   7.530  49.093  1.00  0.00     0.090 C 
HETATM    9  C19 UNL     1      27.775   6.916  47.894  1.00  0.00     0.110 C 
ENDROOT
BRANCH   5  10
HETATM   10  C8  UNL     1      23.682   3.078  50.209  1.00  0.00     0.130 C 
BRANCH  10  11
HETATM   11  N1  UNL     1      23.202   3.083  51.571  1.00  0.00    -0.253 NA
BRANCH  11  12
HETATM   12  S1  UNL     1      22.158   4.463  51.900  1.00  0.00    -0.095 SA
HETATM   13  H12 UNL     1      22.109   5.322  50.777  1.00  0.00     0.119 HD
ENDBRANCH  11  12
BRANCH  11  14
HETATM   14  C9  UNL     1      24.339   3.078  52.465  1.00  0.00     0.141 C 
BRANCH  14  15
HETATM   15  C10 UNL     1      24.893   1.691  52.582  1.00  0.00    -0.044 A 
HETATM   16  C11 UNL     1      26.176   1.551  52.040  1.00  0.00     0.009 A 
HETATM   17  C12 UNL     1      26.873   0.368  52.036  1.00  0.00     0.007 A 
HETATM   18  C13 UNL     1      26.260  -0.754  52.609  1.00  0.00    -0.062 A 
HETATM   19  C14 UNL     1      26.979  -2.043  52.618  1.00  0.00     0.048 C 
HETATM   20  C15 UNL     1      25.004  -0.616  53.139  1.00  0.00     0.007 A 
HETATM   21  C16 UNL     1      24.311   0.575  53.138  1.00  0.00     0.009 A 
ENDBRANCH  14  15
ENDBRANCH  11  14
ENDBRANCH  10  11
ENDBRANCH   5  10
BRANCH   1  22
HETATM   22  O1  UNL     1      29.585   5.112  48.045  1.00  0.00    -0.356 OA
BRANCH  22  23
HETATM   23  C2  UNL     1      30.739   5.762  48.510  1.00  0.00     0.170 C 
HETATM   24  C1  UNL     1      31.499   6.418  47.367  1.00  0.00     0.034 C 
ENDBRANCH  22  23
ENDBRANCH   1  22
TORSDOF 7
ENDMDL
MODEL 4
REMARK VINA RESULT:      -6.9      2.104      3.750
REMARK  7 active torsions:
REMARK  status: ('A' for Active; 'I' for Inactive)
REMARK    1  A    between atoms: C2_2  and  O1_3 
REMARK    2  A    between atoms: O1_3  and  C3_4 
REMARK    3  A    between atoms: C7_8  and  C8_9 
REMARK    4  A    between atoms: C8_9  and  N1_10 
REMARK    5  A    between atoms: N1_10  and  S1_11 
REMARK    6  A    between atoms: N1_10  and  C9_12 
REMARK    7  A    between atoms: C9_12  and  C10_13 
ROOT
HETATM    1  C3  UNL     1      24.323  -0.274  53.789  1.00  0.00     0.047 C 
HETATM    2  C4  UNL     1      23.924   0.718  53.005  1.00  0.00     0.010 C 
HETATM    3  C5  UNL     1      24.226   1.852  52.144  1.00  0.00     0.065 C 
HETATM    4  C6  UNL     1      25.657   2.193  51.985  1.00  0.00    -0.059 C 
HETATM    5  C7  UNL     1      25.784   3.116  51.018  1.00  0.00    -0.007 C 
HETATM    6  C17 UNL     1      26.990   1.847  52.545  1.00  0.00     0.182 C 
HETATM    7  N2  UNL     1      26.905   1.602  53.967  1.00  0.00    -0.301 NA
HETATM    8  C18 UNL     1      26.396   0.615  54.605  1.00  0.00     0.090 C 
HETATM    9  C19 UNL     1      25.719  -0.613  54.112  1.00  0.00     0.110 C 
ENDROOT
BRANCH   5  10
HETATM   10  C8  UNL     1      24.924   3.866  50.093  1.00  0.00     0.130 C 
BRANCH  10  11
HETATM   11  N1  UNL     1      25.207   5.278  50.202  1.00  0.00    -0.253 NA
BRANCH  11  12
HETATM   12  S1  UNL     1      23.946   6.142  51.077  1.00  0.00    -0.095 SA
HETATM   13  H12 UNL     1      22.978   5.233  51.568  1.00  0.00     0.119 HD
ENDBRANCH  11  12
BRANCH  11  14
HETATM   14  C9  UNL     1      25.371   5.823  48.872  1.00  0.00     0.141 C 
BRANCH  14  15
HETATM   15  C10 UNL     1      26.829   5.958  48.550  1.00  0.00    -0.044 A 
HETATM   16  C11 UNL     1      27.211   7.262  48.214  1.00  0.00     0.009 A 
HETATM   17  C12 UNL     1      28.496   7.614  47.882  1.00  0.00     0.007 A 
HETATM   18  C13 UNL     1      29.471   6.608  47.883  1.00  0.00    -0.062 A 
HETATM   19  C14 UNL     1      30.862   6.950  47.527  1.00  0.00     0.048 C 
HETATM   20  C15 UNL     1      29.095   5.332  48.212  1.00  0.00     0.007 A 
HETATM   21  C16 UNL     1      27.804   4.987  48.544  1.00  0.00     0.009 A 
ENDBRANCH  14  15
ENDBRANCH  11  14
ENDBRANCH  10  11
ENDBRANCH   5  10
BRANCH   1  22
HETATM   22  O1  UNL     1      23.186  -0.955  54.265  1.00  0.00    -0.356 OA
BRANCH  22  23
HETATM   23  C2  UNL     1      21.968  -0.328  54.568  1.00  0.00     0.170 C 
HETATM   24  C1  UNL     1      20.801  -1.049  53.910  1.00  0.00     0.034 C 
ENDBRANCH  22  23
ENDBRANCH   1  22
TORSDOF 7
ENDMDL
MODEL 5
REMARK VINA RESULT:      -6.9      2.087      2.867
REMARK  7 active torsions:
REMARK  status: ('A' for Active; 'I' for Inactive)
REMARK    1  A    between atoms: C2_2  and  O1_3 
REMARK    2  A    between atoms: O1_3  and  C3_4 
REMARK    3  A    between atoms: C7_8  and  C8_9 
REMARK    4  A    between atoms: C8_9  and  N1_10 
REMARK    5  A    between atoms: N1_10  and  S1_11 
REMARK    6  A    between atoms: N1_10  and  C9_12 
REMARK    7  A    between atoms: C9_12  and  C10_13 
ROOT
HETATM    1  C3  UNL     1      23.080   0.516  53.272  1.00  0.00     0.047 C 
HETATM    2  C4  UNL     1      23.653   1.579  52.725  1.00  0.00     0.010 C 
HETATM    3  C5  UNL     1      23.570   2.935  52.203  1.00  0.00     0.065 C 
HETATM    4  C6  UNL     1      22.228   3.560  52.210  1.00  0.00    -0.059 C 
HETATM    5  C7  UNL     1      22.347   4.860  51.893  1.00  0.00    -0.007 C 
HETATM    6  C17 UNL     1      20.802   3.218  52.453  1.00  0.00     0.182 C 
HETATM    7  N2  UNL     1      20.501   1.888  51.973  1.00  0.00    -0.301 NA
HETATM    8  C18 UNL     1      20.842   0.746  52.442  1.00  0.00     0.090 C 
HETATM    9  C19 UNL     1      21.658   0.390  53.632  1.00  0.00     0.110 C 
ENDROOT
BRANCH   5  10
HETATM   10  C8  UNL     1      23.408   5.816  51.549  1.00  0.00     0.130 C 
BRANCH  10  11
HETATM   11  N1  UNL     1      23.193   6.322  50.214  1.00  0.00    -0.253 NA
BRANCH  11  12
HETATM   12  S1  UNL     1      21.505   6.740  49.928  1.00  0.00    -0.095 SA
HETATM   13  H12 UNL     1      21.290   7.000  48.553  1.00  0.00     0.119 HD
ENDBRANCH  11  12
BRANCH  11  14
HETATM   14  C9  UNL     1      23.642   5.330  49.262  1.00  0.00     0.141 C 
BRANCH  14  15
HETATM   15  C10 UNL     1      25.089   5.546  48.941  1.00  0.00    -0.044 A 
HETATM   16  C11 UNL     1      25.891   4.424  49.181  1.00  0.00     0.009 A 
HETATM   17  C12 UNL     1      27.246   4.399  48.960  1.00  0.00     0.007 A 
HETATM   18  C13 UNL     1      27.850   5.563  48.466  1.00  0.00    -0.062 A 
HETATM   19  C14 UNL     1      29.306   5.571  48.220  1.00  0.00     0.048 C 
HETATM   20  C15 UNL     1      27.064   6.660  48.232  1.00  0.00     0.007 A 
HETATM   21  C16 UNL     1      25.705   6.678  48.457  1.00  0.00     0.009 A 
ENDBRANCH  14  15
ENDBRANCH  11  14
ENDBRANCH  10  11
ENDBRANCH   5  10
BRANCH   1  22
HETATM   22  O1  UNL     1      24.060  -0.478  53.455  1.00  0.00    -0.356 OA
BRANCH  22  23
HETATM   23  C2  UNL     1      25.407  -0.206  53.743  1.00  0.00     0.170 C 
HETATM   24  C1  UNL     1      26.334  -1.021  52.854  1.00  0.00     0.034 C 
ENDBRANCH  22  23
ENDBRANCH   1  22
TORSDOF 7
ENDMDL
MODEL 6
REMARK VINA RESULT:      -6.9      2.845      7.245
REMARK  7 active torsions:
REMARK  status: ('A' for Active; 'I' for Inactive)
REMARK    1  A    between atoms: C2_2  and  O1_3 
REMARK    2  A    between atoms: O1_3  and  C3_4 
REMARK    3  A    between atoms: C7_8  and  C8_9 
REMARK    4  A    between atoms: C8_9  and  N1_10 
REMARK    5  A    between atoms: N1_10  and  S1_11 
REMARK    6  A    between atoms: N1_10  and  C9_12 
REMARK    7  A    between atoms: C9_12  and  C10_13 
ROOT
HETATM    1  C3  UNL     1      28.435   5.597  48.291  1.00  0.00     0.047 C 
HETATM    2  C4  UNL     1      27.617   4.694  48.813  1.00  0.00     0.010 C 
HETATM    3  C5  UNL     1      26.283   4.280  49.222  1.00  0.00     0.065 C 
HETATM    4  C6  UNL     1      25.201   5.271  49.034  1.00  0.00    -0.059 C 
HETATM    5  C7  UNL     1      24.017   4.679  49.265  1.00  0.00    -0.007 C 
HETATM    6  C17 UNL     1      25.000   6.700  48.675  1.00  0.00     0.182 C 
HETATM    7  N2  UNL     1      26.057   7.522  49.219  1.00  0.00    -0.301 NA
HETATM    8  C18 UNL     1      27.286   7.621  48.872  1.00  0.00     0.090 C 
HETATM    9  C19 UNL     1      28.051   6.931  47.801  1.00  0.00     0.110 C 
ENDROOT
BRANCH   5  10
HETATM   10  C8  UNL     1      23.504   3.355  49.641  1.00  0.00     0.130 C 
BRANCH  10  11
HETATM   11  N1  UNL     1      22.885   3.426  50.944  1.00  0.00    -0.253 NA
BRANCH  11  12
HETATM   12  S1  UNL     1      22.251   5.033  51.290  1.00  0.00    -0.095 SA
HETATM   13  H12 UNL     1      22.862   5.564  52.451  1.00  0.00     0.119 HD
ENDBRANCH  11  12
BRANCH  11  14
HETATM   14  C9  UNL     1      23.856   3.035  51.943  1.00  0.00     0.141 C 
BRANCH  14  15
HETATM   15  C10 UNL     1      23.440   1.745  52.583  1.00  0.00    -0.044 A 
HETATM   16  C11 UNL     1      22.055   1.623  52.750  1.00  0.00     0.009 A 
HETATM   17  C12 UNL     1      21.454   0.525  53.317  1.00  0.00     0.007 A 
HETATM   18  C13 UNL     1      22.278  -0.523  53.746  1.00  0.00    -0.062 A 
HETATM   19  C14 UNL     1      21.666  -1.716  54.364  1.00  0.00     0.048 C 
HETATM   20  C15 UNL     1      23.633  -0.401  53.582  1.00  0.00     0.007 A 
HETATM   21  C16 UNL     1      24.229   0.703  53.013  1.00  0.00     0.009 A 
ENDBRANCH  14  15
ENDBRANCH  11  14
ENDBRANCH  10  11
ENDBRANCH   5  10
BRANCH   1  22
HETATM   22  O1  UNL     1      29.740   5.069  48.282  1.00  0.00    -0.356 OA
BRANCH  22  23
HETATM   23  C2  UNL     1      30.865   5.770  47.820  1.00  0.00     0.170 C 
HETATM   24  C1  UNL     1      31.940   4.817  47.321  1.00  0.00     0.034 C 
ENDBRANCH  22  23
ENDBRANCH   1  22
TORSDOF 7
ENDMDL
MODEL 7
REMARK VINA RESULT:      -6.8      2.419      3.350
REMARK  7 active torsions:
REMARK  status: ('A' for Active; 'I' for Inactive)
REMARK    1  A    between atoms: C2_2  and  O1_3 
REMARK    2  A    between atoms: O1_3  and  C3_4 
REMARK    3  A    between atoms: C7_8  and  C8_9 
REMARK    4  A    between atoms: C8_9  and  N1_10 
REMARK    5  A    between atoms: N1_10  and  S1_11 
REMARK    6  A    between atoms: N1_10  and  C9_12 
REMARK    7  A    between atoms: C9_12  and  C10_13 
ROOT
HETATM    1  C3  UNL     1      24.596  -0.790  54.269  1.00  0.00     0.047 C 
HETATM    2  C4  UNL     1      23.979  -0.313  53.196  1.00  0.00     0.010 C 
HETATM    3  C5  UNL     1      22.781   0.191  52.544  1.00  0.00     0.065 C 
HETATM    4  C6  UNL     1      21.553   0.236  53.369  1.00  0.00    -0.059 C 
HETATM    5  C7  UNL     1      20.597   0.903  52.700  1.00  0.00    -0.007 C 
HETATM    6  C17 UNL     1      21.037  -0.216  54.688  1.00  0.00     0.182 C 
HETATM    7  N2  UNL     1      21.577  -1.511  55.037  1.00  0.00    -0.301 NA
HETATM    8  C18 UNL     1      22.760  -1.841  55.401  1.00  0.00     0.090 C 
HETATM    9  C19 UNL     1      23.983  -1.016  55.588  1.00  0.00     0.110 C 
ENDROOT
BRANCH   5  10
HETATM   10  C8  UNL     1      20.430   1.587  51.412  1.00  0.00     0.130 C 
BRANCH  10  11
HETATM   11  N1  UNL     1      20.249   3.002  51.632  1.00  0.00    -0.253 NA
BRANCH  11  12
HETATM   12  S1  UNL     1      18.558   3.481  51.515  1.00  0.00    -0.095 SA
HETATM   13  H12 UNL     1      18.230   3.804  50.177  1.00  0.00     0.119 HD
ENDBRANCH  11  12
BRANCH  11  14
HETATM   14  C9  UNL     1      21.053   3.729  50.674  1.00  0.00     0.141 C 
BRANCH  14  15
HETATM   15  C10 UNL     1      22.509   3.515  50.959  1.00  0.00    -0.044 A 
HETATM   16  C11 UNL     1      23.256   3.165  49.828  1.00  0.00     0.009 A 
HETATM   17  C12 UNL     1      24.607   2.921  49.858  1.00  0.00     0.007 A 
HETATM   18  C13 UNL     1      25.265   3.029  51.090  1.00  0.00    -0.062 A 
HETATM   19  C14 UNL     1      26.716   2.768  51.159  1.00  0.00     0.048 C 
HETATM   20  C15 UNL     1      24.531   3.371  52.196  1.00  0.00     0.007 A 
HETATM   21  C16 UNL     1      23.176   3.615  52.158  1.00  0.00     0.009 A 
ENDBRANCH  14  15
ENDBRANCH  11  14
ENDBRANCH  10  11
ENDBRANCH   5  10
BRANCH   1  22
HETATM   22  O1  UNL     1      25.940  -1.044  53.939  1.00  0.00    -0.356 OA
BRANCH  22  23
HETATM   23  C2  UNL     1      26.847  -0.054  53.531  1.00  0.00     0.170 C 
HETATM   24  C1  UNL     1      27.800   0.316  54.658  1.00  0.00     0.034 C 
ENDBRANCH  22  23
ENDBRANCH   1  22
TORSDOF 7
ENDMDL
MODEL 8
REMARK VINA RESULT:      -6.8      4.699      7.356
REMARK  7 active torsions:
REMARK  status: ('A' for Active; 'I' for Inactive)
REMARK    1  A    between atoms: C2_2  and  O1_3 
REMARK    2  A    between atoms: O1_3  and  C3_4 
REMARK    3  A    between atoms: C7_8  and  C8_9 
REMARK    4  A    between atoms: C8_9  and  N1_10 
REMARK    5  A    between atoms: N1_10  and  S1_11 
REMARK    6  A    between atoms: N1_10  and  C9_12 
REMARK    7  A    between atoms: C9_12  and  C10_13 
ROOT
HETATM    1  C3  UNL     1      17.991  -1.514  53.239  1.00  0.00     0.047 C 
HETATM    2  C4  UNL     1      19.291  -1.421  53.480  1.00  0.00     0.010 C 
HETATM    3  C5  UNL     1      20.557  -0.717  53.345  1.00  0.00     0.065 C 
HETATM    4  C6  UNL     1      20.533   0.532  52.551  1.00  0.00    -0.059 C 
HETATM    5  C7  UNL     1      21.711   1.162  52.686  1.00  0.00    -0.007 C 
HETATM    6  C17 UNL     1      19.633   1.309  51.659  1.00  0.00     0.182 C 
HETATM    7  N2  UNL     1      18.829   0.429  50.842  1.00  0.00    -0.301 NA
HETATM    8  C18 UNL     1      17.842  -0.322  51.163  1.00  0.00     0.090 C 
HETATM    9  C19 UNL     1      17.182  -0.549  52.475  1.00  0.00     0.110 C 
ENDROOT
BRANCH   5  10
HETATM   10  C8  UNL     1      22.989   0.967  53.384  1.00  0.00     0.130 C 
BRANCH  10  11
HETATM   11  N1  UNL     1      23.962   1.911  52.887  1.00  0.00    -0.253 NA
BRANCH  11  12
HETATM   12  S1  UNL     1      23.210   3.389  52.293  1.00  0.00    -0.095 SA
HETATM   13  H12 UNL     1      22.857   3.247  50.930  1.00  0.00     0.119 HD
ENDBRANCH  11  12
BRANCH  11  14
HETATM   14  C9  UNL     1      24.736   1.276  51.843  1.00  0.00     0.141 C 
BRANCH  14  15
HETATM   15  C10 UNL     1      26.085   0.888  52.368  1.00  0.00    -0.044 A 
HETATM   16  C11 UNL     1      26.265  -0.495  52.484  1.00  0.00     0.009 A 
HETATM   17  C12 UNL     1      27.423  -1.072  52.945  1.00  0.00     0.007 A 
HETATM   18  C13 UNL     1      28.475  -0.224  53.316  1.00  0.00    -0.062 A 
HETATM   19  C14 UNL     1      29.732  -0.811  53.820  1.00  0.00     0.048 C 
HETATM   20  C15 UNL     1      28.296   1.130  53.202  1.00  0.00     0.007 A 
HETATM   21  C16 UNL     1      27.132   1.701  52.739  1.00  0.00     0.009 A 
ENDBRANCH  14  15
ENDBRANCH  11  14
ENDBRANCH  10  11
ENDBRANCH   5  10
BRANCH   1  22
HETATM   22  O1  UNL     1      17.506  -2.693  53.836  1.00  0.00    -0.356 OA
BRANCH  22  23
HETATM   23  C2  UNL     1      16.551  -3.535  53.244  1.00  0.00     0.170 C 
HETATM   24  C1  UNL     1      16.634  -4.944  53.812  1.00  0.00     0.034 C 
ENDBRANCH  22  23
ENDBRANCH   1  22
TORSDOF 7
ENDMDL
MODEL 9
REMARK VINA RESULT:      -6.7      2.741      5.262
REMARK  7 active torsions:
REMARK  status: ('A' for Active; 'I' for Inactive)
REMARK    1  A    between atoms: C2_2  and  O1_3 
REMARK    2  A    between atoms: O1_3  and  C3_4 
REMARK    3  A    between atoms: C7_8  and  C8_9 
REMARK    4  A    between atoms: C8_9  and  N1_10 
REMARK    5  A    between atoms: N1_10  and  S1_11 
REMARK    6  A    between atoms: N1_10  and  C9_12 
REMARK    7  A    between atoms: C9_12  and  C10_13 
ROOT
HETATM    1  C3  UNL     1      24.923   0.334  52.880  1.00  0.00     0.047 C 
HETATM    2  C4  UNL     1      24.221   1.446  52.712  1.00  0.00     0.010 C 
HETATM    3  C5  UNL     1      24.051   2.756  52.100  1.00  0.00     0.065 C 
HETATM    4  C6  UNL     1      25.138   3.209  51.205  1.00  0.00    -0.059 C 
HETATM    5  C7  UNL     1      24.747   4.327  50.570  1.00  0.00    -0.007 C 
HETATM    6  C17 UNL     1      26.513   2.832  50.784  1.00  0.00     0.182 C 
HETATM    7  N2  UNL     1      27.259   2.280  51.893  1.00  0.00    -0.301 NA
HETATM    8  C18 UNL     1      27.143   1.149  52.483  1.00  0.00     0.090 C 
HETATM    9  C19 UNL     1      26.210   0.019  52.239  1.00  0.00     0.110 C 
ENDROOT
BRANCH   5  10
HETATM   10  C8  UNL     1      23.572   5.205  50.512  1.00  0.00     0.130 C 
BRANCH  10  11
HETATM   11  N1  UNL     1      22.721   4.806  49.416  1.00  0.00    -0.253 NA
BRANCH  11  12
HETATM   12  S1  UNL     1      23.051   5.727  47.950  1.00  0.00    -0.095 SA
HETATM   13  H12 UNL     1      22.480   7.019  48.042  1.00  0.00     0.119 HD
ENDBRANCH  11  12
BRANCH  11  14
HETATM   14  C9  UNL     1      21.340   4.964  49.817  1.00  0.00     0.141 C 
BRANCH  14  15
HETATM   15  C10 UNL     1      20.885   3.753  50.573  1.00  0.00    -0.044 A 
HETATM   16  C11 UNL     1      20.962   2.567  49.832  1.00  0.00     0.009 A 
HETATM   17  C12 UNL     1      20.595   1.339  50.326  1.00  0.00     0.007 A 
HETATM   18  C13 UNL     1      20.119   1.279  51.642  1.00  0.00    -0.062 A 
HETATM   19  C14 UNL     1      19.711  -0.024  52.203  1.00  0.00     0.048 C 
HETATM   20  C15 UNL     1      20.044   2.440  52.366  1.00  0.00     0.007 A 
HETATM   21  C16 UNL     1      20.414   3.668  51.863  1.00  0.00     0.009 A 
ENDBRANCH  14  15
ENDBRANCH  11  14
ENDBRANCH  10  11
ENDBRANCH   5  10
BRANCH   1  22
HETATM   22  O1  UNL     1      24.231  -0.502  53.777  1.00  0.00    -0.356 OA
BRANCH  22  23
HETATM   23  C2  UNL     1      22.906  -0.924  53.590  1.00  0.00     0.170 C 
HETATM   24  C1  UNL     1      22.136  -0.917  54.902  1.00  0.00     0.034 C 
ENDBRANCH  22  23
ENDBRANCH   1  22
TORSDOF 7
ENDMDL
