MODEL 1
REMARK VINA RESULT:      -8.3      0.000      0.000
REMARK  5 active torsions:
REMARK  status: ('A' for Active; 'I' for Inactive)
REMARK    1  A    between atoms: C2_2  and  O1_3 
REMARK    2  A    between atoms: O1_3  and  C3_4 
REMARK    3  A    between atoms: C4_5  and  C5_6 
REMARK    4  A    between atoms: C10_13  and  C11_14 
REMARK    5  A    between atoms: C11_14  and  O2_16 
ROOT
HETATM    1  C5  UNL     1      20.297  -0.642  53.751  1.00  0.00     0.052 C 
HETATM    2  C6  UNL     1      21.652  -0.503  53.940  1.00  0.00     0.125 C 
HETATM    3  N1  UNL     1      22.908  -0.711  54.497  1.00  0.00    -0.225 NA
HETATM    4  C7  UNL     1      23.254  -1.571  55.439  1.00  0.00     0.234 C 
HETATM    5  N2  UNL     1      24.668  -1.346  55.625  1.00  0.00    -0.254 NA
HETATM    6  C8  UNL     1      25.332  -0.600  54.817  1.00  0.00     0.118 C 
HETATM    7  C9  UNL     1      26.610  -0.025  54.470  1.00  0.00     0.030 C 
HETATM    8  C10 UNL     1      27.274   0.739  53.656  1.00  0.00    -0.014 C 
HETATM    9  P1  UNL     1      26.310   1.401  52.463  1.00  0.00    -0.025 P 
HETATM   10 CL1  UNL     1      25.586   2.624  53.694  1.00  0.00    -0.097 Cl
HETATM   11  C13 UNL     1      26.806   2.750  51.429  1.00  0.00     0.014 C 
HETATM   12  C14 UNL     1      25.670   2.999  50.688  1.00  0.00    -0.021 C 
HETATM   13  C15 UNL     1      24.254   2.549  50.640  1.00  0.00     0.063 C 
HETATM   14  C16 UNL     1      23.845   1.482  51.558  1.00  0.00    -0.058 C 
HETATM   15  C17 UNL     1      24.853   0.699  51.929  1.00  0.00     0.022 C 
HETATM   16  C18 UNL     1      22.394   1.466  51.887  1.00  0.00     0.155 C 
HETATM   17  N3  UNL     1      22.026   0.488  52.906  1.00  0.00    -0.371 N 
HETATM   18  H17 UNL     1      27.022   0.677  51.630  1.00  0.00     0.076 HD
HETATM   19  H25 UNL     1      21.734  -0.182  52.115  1.00  0.00     0.161 HD
ENDROOT
BRANCH   1  20
HETATM   20  C4  UNL     1      19.382  -0.012  52.800  1.00  0.00     0.028 C 
HETATM   21  C3  UNL     1      18.394  -0.860  52.840  1.00  0.00     0.134 C 
BRANCH  21  22
HETATM   22  O1  UNL     1      18.477  -1.960  53.655  1.00  0.00    -0.363 OA
BRANCH  22  23
HETATM   23  C2  UNL     1      17.643  -3.072  53.673  1.00  0.00     0.170 C 
HETATM   24  C1  UNL     1      16.396  -2.724  52.869  1.00  0.00     0.034 C 
ENDBRANCH  22  23
ENDBRANCH  21  22
ENDBRANCH   1  20
BRANCH   8  25
HETATM   25  C11 UNL     1      28.700   0.917  53.893  1.00  0.00     0.148 C 
HETATM   26  C12 UNL     1      29.536  -0.314  53.611  1.00  0.00     0.044 C 
BRANCH  25  27
HETATM   27  O2  UNL     1      28.924   1.256  55.221  1.00  0.00    -0.391 OA
HETATM   28  H16 UNL     1      28.140   1.439  55.756  1.00  0.00     0.210 HD
ENDBRANCH  25  27
ENDBRANCH   8  25
TORSDOF 5
ENDMDL
MODEL 2
REMARK VINA RESULT:      -7.7      3.576      5.840
REMARK  5 active torsions:
REMARK  status: ('A' for Active; 'I' for Inactive)
REMARK    1  A    between atoms: C2_2  and  O1_3 
REMARK    2  A    between atoms: O1_3  and  C3_4 
REMARK    3  A    between atoms: C4_5  and  C5_6 
REMARK    4  A    between atoms: C10_13  and  C11_14 
REMARK    5  A    between atoms: C11_14  and  O2_16 
ROOT
HETATM    1  C5  UNL     1      22.579   3.244  48.653  1.00  0.00     0.052 C 
HETATM    2  C6  UNL     1      23.614   2.910  49.495  1.00  0.00     0.125 C 
HETATM    3  N1  UNL     1      24.896   2.907  50.030  1.00  0.00    -0.225 NA
HETATM    4  C7  UNL     1      25.933   3.644  49.674  1.00  0.00     0.234 C 
HETATM    5  N2  UNL     1      26.994   3.216  50.557  1.00  0.00    -0.254 NA
HETATM    6  C8  UNL     1      26.754   2.447  51.556  1.00  0.00     0.118 C 
HETATM    7  C9  UNL     1      27.286   1.729  52.691  1.00  0.00     0.030 C 
HETATM    8  C10 UNL     1      27.040   0.942  53.693  1.00  0.00    -0.014 C 
HETATM    9  P1  UNL     1      25.430   0.502  53.785  1.00  0.00    -0.025 P 
HETATM   10 CL1  UNL     1      25.651  -0.696  52.353  1.00  0.00    -0.097 Cl
HETATM   11  C13 UNL     1      24.826  -0.826  54.789  1.00  0.00     0.014 C 
HETATM   12  C14 UNL     1      23.487  -0.866  54.466  1.00  0.00    -0.021 C 
HETATM   13  C15 UNL     1      22.557  -0.227  53.498  1.00  0.00     0.063 C 
HETATM   14  C16 UNL     1      23.096   0.818  52.623  1.00  0.00    -0.058 C 
HETATM   15  C17 UNL     1      24.159   1.430  53.135  1.00  0.00     0.022 C 
HETATM   16  C18 UNL     1      22.352   1.007  51.348  1.00  0.00     0.155 C 
HETATM   17  N3  UNL     1      22.978   1.953  50.429  1.00  0.00    -0.371 N 
HETATM   18  H17 UNL     1      25.416   1.180  54.910  1.00  0.00     0.076 HD
HETATM   19  H25 UNL     1      22.307   2.709  50.797  1.00  0.00     0.161 HD
ENDROOT
BRANCH   1  20
HETATM   20  C4  UNL     1      21.182   2.812  48.615  1.00  0.00     0.028 C 
HETATM   21  C3  UNL     1      20.931   2.968  47.347  1.00  0.00     0.134 C 
BRANCH  21  22
HETATM   22  O1  UNL     1      21.915   3.431  46.512  1.00  0.00    -0.363 OA
BRANCH  22  23
HETATM   23  C2  UNL     1      21.780   3.891  45.207  1.00  0.00     0.170 C 
HETATM   24  C1  UNL     1      22.011   5.397  45.223  1.00  0.00     0.034 C 
ENDBRANCH  22  23
ENDBRANCH  21  22
ENDBRANCH   1  20
BRANCH   8  25
HETATM   25  C11 UNL     1      28.150   0.556  54.552  1.00  0.00     0.148 C 
HETATM   26  C12 UNL     1      29.401   1.390  54.364  1.00  0.00     0.044 C 
BRANCH  25  27
HETATM   27  O2  UNL     1      28.510  -0.762  54.303  1.00  0.00    -0.391 OA
HETATM   28  H16 UNL     1      27.785  -1.393  54.199  1.00  0.00     0.210 HD
ENDBRANCH  25  27
ENDBRANCH   8  25
TORSDOF 5
ENDMDL
MODEL 3
REMARK VINA RESULT:      -7.6      2.144      7.269
REMARK  5 active torsions:
REMARK  status: ('A' for Active; 'I' for Inactive)
REMARK    1  A    between atoms: C2_2  and  O1_3 
REMARK    2  A    between atoms: O1_3  and  C3_4 
REMARK    3  A    between atoms: C4_5  and  C5_6 
REMARK    4  A    between atoms: C10_13  and  C11_14 
REMARK    5  A    between atoms: C11_14  and  O2_16 
ROOT
HETATM    1  C5  UNL     1      26.831   0.624  54.127  1.00  0.00     0.052 C 
HETATM    2  C6  UNL     1      25.505   0.258  54.086  1.00  0.00     0.125 C 
HETATM    3  N1  UNL     1      24.342  -0.425  54.420  1.00  0.00    -0.225 NA
HETATM    4  C7  UNL     1      24.159  -1.309  55.384  1.00  0.00     0.234 C 
HETATM    5  N2  UNL     1      22.771  -1.689  55.260  1.00  0.00    -0.254 NA
HETATM    6  C8  UNL     1      21.976  -1.048  54.482  1.00  0.00     0.118 C 
HETATM    7  C9  UNL     1      20.638  -0.920  53.951  1.00  0.00     0.030 C 
HETATM    8  C10 UNL     1      19.842  -0.275  53.155  1.00  0.00    -0.014 C 
HETATM    9  P1  UNL     1      20.615   0.954  52.327  1.00  0.00    -0.025 P 
HETATM   10 CL1  UNL     1      21.432  -0.297  51.185  1.00  0.00    -0.097 Cl
HETATM   11  C13 UNL     1      19.929   1.777  50.917  1.00  0.00     0.014 C 
HETATM   12  C14 UNL     1      20.948   2.622  50.533  1.00  0.00    -0.021 C 
HETATM   13  C15 UNL     1      22.365   2.889  50.892  1.00  0.00     0.063 C 
HETATM   14  C16 UNL     1      22.938   2.140  52.016  1.00  0.00    -0.058 C 
HETATM   15  C17 UNL     1      22.023   1.730  52.888  1.00  0.00     0.022 C 
HETATM   16  C18 UNL     1      24.418   1.994  51.978  1.00  0.00     0.155 C 
HETATM   17  N3  UNL     1      24.958   1.133  53.025  1.00  0.00    -0.371 N 
HETATM   18  H17 UNL     1      19.836   1.763  53.009  1.00  0.00     0.076 HD
HETATM   19  H25 UNL     1      25.176   2.017  53.599  1.00  0.00     0.161 HD
ENDROOT
BRANCH   1  20
HETATM   20  C4  UNL     1      27.587   1.611  53.357  1.00  0.00     0.028 C 
HETATM   21  C3  UNL     1      28.783   1.103  53.449  1.00  0.00     0.134 C 
BRANCH  21  22
HETATM   22  O1  UNL     1      28.973  -0.062  54.149  1.00  0.00    -0.363 OA
BRANCH  22  23
HETATM   23  C2  UNL     1      29.852  -1.098  53.856  1.00  0.00     0.170 C 
HETATM   24  C1  UNL     1      29.061  -2.183  53.136  1.00  0.00     0.034 C 
ENDBRANCH  22  23
ENDBRANCH  21  22
ENDBRANCH   1  20
BRANCH   8  25
HETATM   25  C11 UNL     1      18.451  -0.701  53.083  1.00  0.00     0.148 C 
HETATM   26  C12 UNL     1      18.191  -2.075  53.666  1.00  0.00     0.044 C 
BRANCH  25  27
HETATM   27  O2  UNL     1      18.034  -0.744  51.760  1.00  0.00    -0.391 OA
HETATM   28  H16 UNL     1      18.215   0.041  51.225  1.00  0.00     0.210 HD
ENDBRANCH  25  27
ENDBRANCH   8  25
TORSDOF 5
ENDMDL
MODEL 4
REMARK VINA RESULT:      -7.5      3.463      5.408
REMARK  5 active torsions:
REMARK  status: ('A' for Active; 'I' for Inactive)
REMARK    1  A    between atoms: C2_2  and  O1_3 
REMARK    2  A    between atoms: O1_3  and  C3_4 
REMARK    3  A    between atoms: C4_5  and  C5_6 
REMARK    4  A    between atoms: C10_13  and  C11_14 
REMARK    5  A    between atoms: C11_14  and  O2_16 
ROOT
HETATM    1  C5  UNL     1      22.155   3.198  49.079  1.00  0.00     0.052 C 
HETATM    2  C6  UNL     1      23.334   2.940  49.738  1.00  0.00     0.125 C 
HETATM    3  N1  UNL     1      24.683   3.033  50.061  1.00  0.00    -0.225 NA
HETATM    4  C7  UNL     1      25.590   3.852  49.559  1.00  0.00     0.234 C 
HETATM    5  N2  UNL     1      26.808   3.502  50.252  1.00  0.00    -0.254 NA
HETATM    6  C8  UNL     1      26.791   2.708  51.261  1.00  0.00     0.118 C 
HETATM    7  C9  UNL     1      27.552   2.026  52.281  1.00  0.00     0.030 C 
HETATM    8  C10 UNL     1      27.531   1.214  53.294  1.00  0.00    -0.014 C 
HETATM    9  P1  UNL     1      25.995   0.648  53.633  1.00  0.00    -0.025 P 
HETATM   10 CL1  UNL     1      26.074  -0.518  52.159  1.00  0.00    -0.097 Cl
HETATM   11  C13 UNL     1      25.664  -0.732  54.693  1.00  0.00     0.014 C 
HETATM   12  C14 UNL     1      24.297  -0.874  54.587  1.00  0.00    -0.021 C 
HETATM   13  C15 UNL     1      23.178  -0.303  53.794  1.00  0.00     0.063 C 
HETATM   14  C16 UNL     1      23.487   0.789  52.865  1.00  0.00    -0.058 C 
HETATM   15  C17 UNL     1      24.569   1.478  53.213  1.00  0.00     0.022 C 
HETATM   16  C18 UNL     1      22.536   0.929  51.729  1.00  0.00     0.155 C 
HETATM   17  N3  UNL     1      22.932   1.928  50.742  1.00  0.00    -0.371 N 
HETATM   18  H17 UNL     1      26.111   1.313  54.759  1.00  0.00     0.076 HD
HETATM   19  H25 UNL     1      22.273   2.626  51.227  1.00  0.00     0.161 HD
ENDROOT
BRANCH   1  20
HETATM   20  C4  UNL     1      20.808   2.657  49.256  1.00  0.00     0.028 C 
HETATM   21  C3  UNL     1      20.144   3.762  49.444  1.00  0.00     0.134 C 
BRANCH  21  22
HETATM   22  O1  UNL     1      20.805   4.963  49.424  1.00  0.00    -0.363 OA
BRANCH  22  23
HETATM   23  C2  UNL     1      20.406   6.165  49.998  1.00  0.00     0.170 C 
HETATM   24  C1  UNL     1      21.608   6.745  50.732  1.00  0.00     0.034 C 
ENDBRANCH  22  23
ENDBRANCH  21  22
ENDBRANCH   1  20
BRANCH   8  25
HETATM   25  C11 UNL     1      28.792   0.910  53.956  1.00  0.00     0.148 C 
HETATM   26  C12 UNL     1      29.336  -0.471  53.653  1.00  0.00     0.044 C 
BRANCH  25  27
HETATM   27  O2  UNL     1      28.636   0.983  55.333  1.00  0.00    -0.391 OA
HETATM   28  H16 UNL     1      29.448   1.011  55.857  1.00  0.00     0.210 HD
ENDBRANCH  25  27
ENDBRANCH   8  25
TORSDOF 5
ENDMDL
MODEL 5
REMARK VINA RESULT:      -7.5      3.685      8.168
REMARK  5 active torsions:
REMARK  status: ('A' for Active; 'I' for Inactive)
REMARK    1  A    between atoms: C2_2  and  O1_3 
REMARK    2  A    between atoms: O1_3  and  C3_4 
REMARK    3  A    between atoms: C4_5  and  C5_6 
REMARK    4  A    between atoms: C10_13  and  C11_14 
REMARK    5  A    between atoms: C11_14  and  O2_16 
ROOT
HETATM    1  C5  UNL     1      26.951   4.340  49.437  1.00  0.00     0.052 C 
HETATM    2  C6  UNL     1      26.210   3.479  50.212  1.00  0.00     0.125 C 
HETATM    3  N1  UNL     1      25.931   2.397  51.039  1.00  0.00    -0.225 NA
HETATM    4  C7  UNL     1      26.776   1.527  51.561  1.00  0.00     0.234 C 
HETATM    5  N2  UNL     1      25.939   0.627  52.319  1.00  0.00    -0.254 NA
HETATM    6  C8  UNL     1      24.698   0.890  52.522  1.00  0.00     0.118 C 
HETATM    7  C9  UNL     1      23.450   0.471  53.116  1.00  0.00     0.030 C 
HETATM    8  C10 UNL     1      22.194   0.736  53.308  1.00  0.00    -0.014 C 
HETATM    9  P1  UNL     1      21.716   2.159  52.572  1.00  0.00    -0.025 P 
HETATM   10 CL1  UNL     1      21.717   1.316  50.891  1.00  0.00    -0.097 Cl
HETATM   11  C13 UNL     1      20.025   2.623  52.327  1.00  0.00     0.014 C 
HETATM   12  C14 UNL     1      20.133   3.796  51.611  1.00  0.00    -0.021 C 
HETATM   13  C15 UNL     1      21.194   4.607  50.959  1.00  0.00     0.063 C 
HETATM   14  C16 UNL     1      22.583   4.162  51.111  1.00  0.00    -0.058 C 
HETATM   15  C17 UNL     1      22.781   3.436  52.206  1.00  0.00     0.022 C 
HETATM   16  C18 UNL     1      23.503   4.613  50.031  1.00  0.00     0.155 C 
HETATM   17  N3  UNL     1      24.847   4.051  50.122  1.00  0.00    -0.371 N 
HETATM   18  H17 UNL     1      21.521   2.604  53.792  1.00  0.00     0.076 HD
HETATM   19  H25 UNL     1      25.161   4.958  50.609  1.00  0.00     0.161 HD
ENDROOT
BRANCH   1  20
HETATM   20  C4  UNL     1      26.573   5.534  48.683  1.00  0.00     0.028 C 
HETATM   21  C3  UNL     1      27.744   5.917  48.262  1.00  0.00     0.134 C 
BRANCH  21  22
HETATM   22  O1  UNL     1      28.857   5.189  48.598  1.00  0.00    -0.363 OA
BRANCH  22  23
HETATM   23  C2  UNL     1      30.172   5.414  48.207  1.00  0.00     0.170 C 
HETATM   24  C1  UNL     1      30.205   6.727  47.436  1.00  0.00     0.034 C 
ENDBRANCH  22  23
ENDBRANCH  21  22
ENDBRANCH   1  20
BRANCH   8  25
HETATM   25  C11 UNL     1      21.406  -0.206  54.090  1.00  0.00     0.148 C 
HETATM   26  C12 UNL     1      22.211  -1.335  54.700  1.00  0.00     0.044 C 
BRANCH  25  27
HETATM   27  O2  UNL     1      20.436  -0.795  53.290  1.00  0.00    -0.391 OA
HETATM   28  H16 UNL     1      19.518  -0.673  53.566  1.00  0.00     0.210 HD
ENDBRANCH  25  27
ENDBRANCH   8  25
TORSDOF 5
ENDMDL
MODEL 6
REMARK VINA RESULT:      -7.4      2.582      7.352
REMARK  5 active torsions:
REMARK  status: ('A' for Active; 'I' for Inactive)
REMARK    1  A    between atoms: C2_2  and  O1_3 
REMARK    2  A    between atoms: O1_3  and  C3_4 
REMARK    3  A    between atoms: C4_5  and  C5_6 
REMARK    4  A    between atoms: C10_13  and  C11_14 
REMARK    5  A    between atoms: C11_14  and  O2_16 
ROOT
HETATM    1  C5  UNL     1      26.732   1.089  53.754  1.00  0.00     0.052 C 
HETATM    2  C6  UNL     1      25.424   0.888  53.379  1.00  0.00     0.125 C 
HETATM    3  N1  UNL     1      24.175   0.283  53.319  1.00  0.00    -0.225 NA
HETATM    4  C7  UNL     1      23.737  -0.761  54.000  1.00  0.00     0.234 C 
HETATM    5  N2  UNL     1      22.384  -0.951  53.531  1.00  0.00    -0.254 NA
HETATM    6  C8  UNL     1      21.813  -0.075  52.786  1.00  0.00     0.118 C 
HETATM    7  C9  UNL     1      20.627   0.310  52.057  1.00  0.00     0.030 C 
HETATM    8  C10 UNL     1      20.058   1.193  51.294  1.00  0.00    -0.014 C 
HETATM    9  P1  UNL     1      21.066   2.478  50.935  1.00  0.00    -0.025 P 
HETATM   10 CL1  UNL     1      22.021   1.417  49.711  1.00  0.00    -0.097 Cl
HETATM   11  C13 UNL     1      20.745   3.654  49.650  1.00  0.00     0.014 C 
HETATM   12  C14 UNL     1      21.874   4.443  49.672  1.00  0.00    -0.021 C 
HETATM   13  C15 UNL     1      23.200   4.469  50.344  1.00  0.00     0.063 C 
HETATM   14  C16 UNL     1      23.474   3.440  51.352  1.00  0.00    -0.058 C 
HETATM   15  C17 UNL     1      22.372   2.957  51.916  1.00  0.00     0.022 C 
HETATM   16  C18 UNL     1      24.917   3.143  51.562  1.00  0.00     0.155 C 
HETATM   17  N3  UNL     1      25.169   2.024  52.465  1.00  0.00    -0.371 N 
HETATM   18  H17 UNL     1      20.216   3.204  51.625  1.00  0.00     0.076 HD
HETATM   19  H25 UNL     1      25.319   2.736  53.258  1.00  0.00     0.161 HD
ENDROOT
BRANCH   1  20
HETATM   20  C4  UNL     1      27.695   2.128  53.390  1.00  0.00     0.028 C 
HETATM   21  C3  UNL     1      28.810   1.491  53.610  1.00  0.00     0.134 C 
BRANCH  21  22
HETATM   22  O1  UNL     1      28.774   0.196  54.060  1.00  0.00    -0.363 OA
BRANCH  22  23
HETATM   23  C2  UNL     1      29.729  -0.797  53.877  1.00  0.00     0.170 C 
HETATM   24  C1  UNL     1      29.058  -1.951  53.143  1.00  0.00     0.034 C 
ENDBRANCH  22  23
ENDBRANCH  21  22
ENDBRANCH   1  20
BRANCH   8  25
HETATM   25  C11 UNL     1      18.689   0.948  50.864  1.00  0.00     0.148 C 
HETATM   26  C12 UNL     1      18.063  -0.296  51.460  1.00  0.00     0.044 C 
BRANCH  25  27
HETATM   27  O2  UNL     1      18.643   0.796  49.485  1.00  0.00    -0.391 OA
HETATM   28  H16 UNL     1      17.766   0.691  49.093  1.00  0.00     0.210 HD
ENDBRANCH  25  27
ENDBRANCH   8  25
TORSDOF 5
ENDMDL
MODEL 7
REMARK VINA RESULT:      -7.4      2.801      8.035
REMARK  5 active torsions:
REMARK  status: ('A' for Active; 'I' for Inactive)
REMARK    1  A    between atoms: C2_2  and  O1_3 
REMARK    2  A    between atoms: O1_3  and  C3_4 
REMARK    3  A    between atoms: C4_5  and  C5_6 
REMARK    4  A    between atoms: C10_13  and  C11_14 
REMARK    5  A    between atoms: C11_14  and  O2_16 
ROOT
HETATM    1  C5  UNL     1      26.301   0.984  53.645  1.00  0.00     0.052 C 
HETATM    2  C6  UNL     1      25.220   1.311  52.859  1.00  0.00     0.125 C 
HETATM    3  N1  UNL     1      24.503   1.911  51.832  1.00  0.00    -0.225 NA
HETATM    4  C7  UNL     1      24.958   2.668  50.849  1.00  0.00     0.234 C 
HETATM    5  N2  UNL     1      23.779   3.016  50.092  1.00  0.00    -0.254 NA
HETATM    6  C8  UNL     1      22.651   2.447  50.324  1.00  0.00     0.118 C 
HETATM    7  C9  UNL     1      21.252   2.341  49.981  1.00  0.00     0.030 C 
HETATM    8  C10 UNL     1      20.112   1.771  50.228  1.00  0.00    -0.014 C 
HETATM    9  P1  UNL     1      20.199   0.675  51.487  1.00  0.00    -0.025 P 
HETATM   10 CL1  UNL     1      20.249   2.078  52.737  1.00  0.00    -0.097 Cl
HETATM   11  C13 UNL     1      18.783   0.004  52.311  1.00  0.00     0.014 C 
HETATM   12  C14 UNL     1      19.346  -0.756  53.313  1.00  0.00    -0.021 C 
HETATM   13  C15 UNL     1      20.692  -1.018  53.886  1.00  0.00     0.063 C 
HETATM   14  C16 UNL     1      21.846  -0.391  53.233  1.00  0.00    -0.058 C 
HETATM   15  C17 UNL     1      21.633  -0.118  51.950  1.00  0.00     0.022 C 
HETATM   16  C18 UNL     1      23.029  -0.195  54.114  1.00  0.00     0.155 C 
HETATM   17  N3  UNL     1      24.117   0.551  53.491  1.00  0.00    -0.371 N 
HETATM   18  H17 UNL     1      19.932  -0.234  50.577  1.00  0.00     0.076 HD
HETATM   19  H25 UNL     1      24.590  -0.387  53.261  1.00  0.00     0.161 HD
ENDROOT
BRANCH   1  20
HETATM   20  C4  UNL     1      26.419   0.121  54.820  1.00  0.00     0.028 C 
HETATM   21  C3  UNL     1      27.716   0.022  54.898  1.00  0.00     0.134 C 
BRANCH  21  22
HETATM   22  O1  UNL     1      28.503   0.670  53.981  1.00  0.00    -0.363 OA
BRANCH  22  23
HETATM   23  C2  UNL     1      29.783   0.326  53.562  1.00  0.00     0.170 C 
HETATM   24  C1  UNL     1      29.874  -1.195  53.562  1.00  0.00     0.034 C 
ENDBRANCH  22  23
ENDBRANCH  21  22
ENDBRANCH   1  20
BRANCH   8  25
HETATM   25  C11 UNL     1      18.963   2.158  49.422  1.00  0.00     0.148 C 
HETATM   26  C12 UNL     1      18.050   3.170  50.084  1.00  0.00     0.044 C 
BRANCH  25  27
HETATM   27  O2  UNL     1      18.184   1.045  49.137  1.00  0.00    -0.391 OA
HETATM   28  H16 UNL     1      17.490   1.163  48.475  1.00  0.00     0.210 HD
ENDBRANCH  25  27
ENDBRANCH   8  25
TORSDOF 5
ENDMDL
MODEL 8
REMARK VINA RESULT:      -7.1      4.484      9.393
REMARK  5 active torsions:
REMARK  status: ('A' for Active; 'I' for Inactive)
REMARK    1  A    between atoms: C2_2  and  O1_3 
REMARK    2  A    between atoms: O1_3  and  C3_4 
REMARK    3  A    between atoms: C4_5  and  C5_6 
REMARK    4  A    between atoms: C10_13  and  C11_14 
REMARK    5  A    between atoms: C11_14  and  O2_16 
ROOT
HETATM    1  C5  UNL     1      27.188   5.911  48.441  1.00  0.00     0.052 C 
HETATM    2  C6  UNL     1      26.004   5.572  49.054  1.00  0.00     0.125 C 
HETATM    3  N1  UNL     1      24.663   5.651  49.410  1.00  0.00    -0.225 NA
HETATM    4  C7  UNL     1      23.749   6.499  48.972  1.00  0.00     0.234 C 
HETATM    5  N2  UNL     1      22.548   6.125  49.683  1.00  0.00    -0.254 NA
HETATM    6  C8  UNL     1      22.497   5.044  50.375  1.00  0.00     0.118 C 
HETATM    7  C9  UNL     1      21.709   4.185  51.227  1.00  0.00     0.030 C 
HETATM    8  C10 UNL     1      21.667   3.098  51.935  1.00  0.00    -0.014 C 
HETATM    9  P1  UNL     1      23.119   2.269  51.928  1.00  0.00    -0.025 P 
HETATM   10 CL1  UNL     1      23.865   3.518  53.119  1.00  0.00    -0.097 Cl
HETATM   11  C13 UNL     1      23.517   0.967  53.061  1.00  0.00     0.014 C 
HETATM   12  C14 UNL     1      24.822   0.670  52.735  1.00  0.00    -0.021 C 
HETATM   13  C15 UNL     1      25.897   1.199  51.855  1.00  0.00     0.063 C 
HETATM   14  C16 UNL     1      25.567   2.327  50.979  1.00  0.00    -0.058 C 
HETATM   15  C17 UNL     1      24.273   2.397  50.683  1.00  0.00     0.022 C 
HETATM   16  C18 UNL     1      26.730   3.164  50.577  1.00  0.00     0.155 C 
HETATM   17  N3  UNL     1      26.370   4.359  49.820  1.00  0.00    -0.371 N 
HETATM   18  H17 UNL     1      22.460   1.329  51.289  1.00  0.00     0.076 HD
HETATM   19  H25 UNL     1      26.595   3.819  48.917  1.00  0.00     0.161 HD
ENDROOT
BRANCH   1  20
HETATM   20  C4  UNL     1      28.512   5.292  48.482  1.00  0.00     0.028 C 
HETATM   21  C3  UNL     1      29.253   6.321  48.183  1.00  0.00     0.134 C 
BRANCH  21  22
HETATM   22  O1  UNL     1      28.663   7.536  47.946  1.00  0.00    -0.363 OA
BRANCH  22  23
HETATM   23  C2  UNL     1      29.035   8.777  48.451  1.00  0.00     0.170 C 
HETATM   24  C1  UNL     1      30.400   8.615  49.108  1.00  0.00     0.034 C 
ENDBRANCH  22  23
ENDBRANCH  21  22
ENDBRANCH   1  20
BRANCH   8  25
HETATM   25  C11 UNL     1      20.424   2.772  52.618  1.00  0.00     0.148 C 
HETATM   26  C12 UNL     1      19.938   1.356  52.385  1.00  0.00     0.044 C 
BRANCH  25  27
HETATM   27  O2  UNL     1      19.409   3.616  52.190  1.00  0.00    -0.391 OA
HETATM   28  H16 UNL     1      19.666   4.523  51.975  1.00  0.00     0.210 HD
ENDBRANCH  25  27
ENDBRANCH   8  25
TORSDOF 5
ENDMDL
MODEL 9
REMARK VINA RESULT:      -7.0      3.581      8.419
REMARK  5 active torsions:
REMARK  status: ('A' for Active; 'I' for Inactive)
REMARK    1  A    between atoms: C2_2  and  O1_3 
REMARK    2  A    between atoms: O1_3  and  C3_4 
REMARK    3  A    between atoms: C4_5  and  C5_6 
REMARK    4  A    between atoms: C10_13  and  C11_14 
REMARK    5  A    between atoms: C11_14  and  O2_16 
ROOT
HETATM    1  C5  UNL     1      24.201   3.478  49.389  1.00  0.00     0.052 C 
HETATM    2  C6  UNL     1      23.057   2.831  49.798  1.00  0.00     0.125 C 
HETATM    3  N1  UNL     1      21.730   2.422  49.789  1.00  0.00    -0.225 NA
HETATM    4  C7  UNL     1      20.803   2.670  48.881  1.00  0.00     0.234 C 
HETATM    5  N2  UNL     1      19.622   2.010  49.387  1.00  0.00    -0.254 NA
HETATM    6  C8  UNL     1      19.689   1.213  50.392  1.00  0.00     0.118 C 
HETATM    7  C9  UNL     1      18.979   0.337  51.295  1.00  0.00     0.030 C 
HETATM    8  C10 UNL     1      19.050  -0.459  52.318  1.00  0.00    -0.014 C 
HETATM    9  P1  UNL     1      20.598  -0.573  52.939  1.00  0.00    -0.025 P 
HETATM   10 CL1  UNL     1      20.429   1.123  53.734  1.00  0.00    -0.097 Cl
HETATM   11  C13 UNL     1      20.977  -1.267  54.523  1.00  0.00     0.014 C 
HETATM   12  C14 UNL     1      22.334  -1.056  54.631  1.00  0.00    -0.021 C 
HETATM   13  C15 UNL     1      23.413  -0.354  53.886  1.00  0.00     0.063 C 
HETATM   14  C16 UNL     1      23.061   0.280  52.612  1.00  0.00    -0.058 C 
HETATM   15  C17 UNL     1      22.005  -0.277  52.027  1.00  0.00     0.022 C 
HETATM   16  C18 UNL     1      23.949   1.404  52.209  1.00  0.00     0.155 C 
HETATM   17  N3  UNL     1      23.507   2.112  51.012  1.00  0.00    -0.371 N 
HETATM   18  H17 UNL     1      20.550  -1.827  52.551  1.00  0.00     0.076 HD
HETATM   19  H25 UNL     1      24.197   1.516  50.440  1.00  0.00     0.161 HD
ENDROOT
BRANCH   1  20
HETATM   20  C4  UNL     1      25.551   3.505  49.949  1.00  0.00     0.028 C 
HETATM   21  C3  UNL     1      25.913   4.710  49.610  1.00  0.00     0.134 C 
BRANCH  21  22
HETATM   22  O1  UNL     1      25.041   5.510  48.917  1.00  0.00    -0.363 OA
BRANCH  22  23
HETATM   23  C2  UNL     1      25.321   6.697  48.249  1.00  0.00     0.170 C 
HETATM   24  C1  UNL     1      26.835   6.871  48.237  1.00  0.00     0.034 C 
ENDBRANCH  22  23
ENDBRANCH  21  22
ENDBRANCH   1  20
BRANCH   8  25
HETATM   25  C11 UNL     1      17.826  -1.102  52.773  1.00  0.00     0.148 C 
HETATM   26  C12 UNL     1      16.556  -0.452  52.265  1.00  0.00     0.044 C 
BRANCH  25  27
HETATM   27  O2  UNL     1      17.760  -1.074  54.160  1.00  0.00    -0.391 OA
HETATM   28  H16 UNL     1      17.833  -0.205  54.577  1.00  0.00     0.210 HD
ENDBRANCH  25  27
ENDBRANCH   8  25
TORSDOF 5
ENDMDL
