MODEL 1
REMARK VINA RESULT:      -7.7      0.000      0.000
REMARK  1 active torsions:
REMARK  status: ('A' for Active; 'I' for Inactive)
REMARK    1  A    between atoms: C15_20  and  C16_21 
ROOT
HETATM    1  C1  UNL     1      33.814   8.469  48.339  1.00  0.00     0.180 C 
HETATM    2  N1  UNL     1      32.412   8.193  48.142  1.00  0.00    -0.275 N 
HETATM    3  C2  UNL     1      31.900   7.069  48.501  1.00  0.00     0.124 A 
HETATM    4  C3  UNL     1      32.816   6.105  49.110  1.00  0.00     0.107 C 
HETATM    5  C4  UNL     1      32.917   4.857  48.275  1.00  0.00    -0.019 C 
HETATM    6  C5  UNL     1      32.857   3.589  47.923  1.00  0.00    -0.006 C 
HETATM    7  C6  UNL     1      33.084   2.652  46.834  1.00  0.00    -0.000 C 
HETATM    8  C7  UNL     1      33.468   3.623  46.058  1.00  0.00     0.126 C 
HETATM    9  N2  UNL     1      33.932   4.198  44.872  1.00  0.00    -0.409 N 
HETATM   10  C8  UNL     1      32.843   4.986  44.282  1.00  0.00     0.142 C 
HETATM   11  C9  UNL     1      33.267   5.603  43.013  1.00  0.00    -0.008 C 
HETATM   12  C10 UNL     1      33.410   6.773  42.454  1.00  0.00    -0.001 C 
HETATM   13  C11 UNL     1      33.151   8.083  42.991  1.00  0.00     0.024 C 
HETATM   14  C12 UNL     1      32.770   8.899  43.942  1.00  0.00     0.143 C 
HETATM   15  O1  UNL     1      32.425   9.956  44.760  1.00  0.00    -0.314 OA
HETATM   16  C13 UNL     1      31.181  10.570  44.713  1.00  0.00     0.279 C 
HETATM   17  N3  UNL     1      31.172   9.991  45.851  1.00  0.00    -0.167 NA
HETATM   18  N4  UNL     1      30.108  10.048  46.723  1.00  0.00    -0.307 N 
HETATM   19  C14 UNL     1      29.172   9.056  47.132  1.00  0.00     0.201 C 
HETATM   20  C15 UNL     1      29.744   7.878  47.817  1.00  0.00     0.067 C 
HETATM   21  N6  UNL     1      30.998   7.976  47.918  1.00  0.00    -0.240 N 
HETATM   22  H10 UNL     1      34.857   4.186  44.346  1.00  0.00     0.154 HD
HETATM   23  H18 UNL     1      30.137  11.056  47.046  1.00  0.00     0.182 HD
ENDROOT
BRANCH  20  24
HETATM   24  C16 UNL     1      28.693   6.920  48.188  1.00  0.00     0.008 A 
HETATM   25  C17 UNL     1      28.829   5.537  48.229  1.00  0.00     0.016 A 
HETATM   26  C18 UNL     1      27.745   4.779  48.601  1.00  0.00     0.020 A 
HETATM   27  C19 UNL     1      26.508   5.281  48.945  1.00  0.00     0.116 A 
HETATM   28  N5  UNL     1      26.374   6.639  48.905  1.00  0.00    -0.272 NA
HETATM   29  C20 UNL     1      27.450   7.394  48.536  1.00  0.00     0.129 A 
ENDBRANCH  20  24
TORSDOF 1
ENDMDL
MODEL 2
REMARK VINA RESULT:      -7.3      1.510      1.875
REMARK  1 active torsions:
REMARK  status: ('A' for Active; 'I' for Inactive)
REMARK    1  A    between atoms: C15_20  and  C16_21 
ROOT
HETATM    1  C1  UNL     1      31.698  10.581  47.836  1.00  0.00     0.180 C 
HETATM    2  N1  UNL     1      30.590   9.667  47.695  1.00  0.00    -0.275 N 
HETATM    3  C2  UNL     1      30.551   8.565  48.357  1.00  0.00     0.124 A 
HETATM    4  C3  UNL     1      31.682   8.303  49.248  1.00  0.00     0.107 C 
HETATM    5  C4  UNL     1      32.427   7.067  48.822  1.00  0.00    -0.019 C 
HETATM    6  C5  UNL     1      32.961   5.863  48.861  1.00  0.00    -0.006 C 
HETATM    7  C6  UNL     1      33.726   4.884  48.103  1.00  0.00    -0.000 C 
HETATM    8  C7  UNL     1      33.780   5.692  47.084  1.00  0.00     0.126 C 
HETATM    9  N2  UNL     1      34.135   6.092  45.793  1.00  0.00    -0.409 N 
HETATM   10  C8  UNL     1      32.920   6.129  44.970  1.00  0.00     0.142 C 
HETATM   11  C9  UNL     1      33.235   6.526  43.585  1.00  0.00    -0.008 C 
HETATM   12  C10 UNL     1      32.956   7.451  42.709  1.00  0.00    -0.001 C 
HETATM   13  C11 UNL     1      32.090   8.594  42.828  1.00  0.00     0.024 C 
HETATM   14  C12 UNL     1      31.259   9.365  43.484  1.00  0.00     0.143 C 
HETATM   15  O1  UNL     1      30.380  10.324  43.944  1.00  0.00    -0.314 OA
HETATM   16  C13 UNL     1      29.016  10.281  43.686  1.00  0.00     0.279 C 
HETATM   17  N3  UNL     1      29.077  10.070  44.944  1.00  0.00    -0.167 NA
HETATM   18  N4  UNL     1      27.969   9.864  45.733  1.00  0.00    -0.307 N 
HETATM   19  C14 UNL     1      27.486   8.699  46.394  1.00  0.00     0.201 C 
HETATM   20  C15 UNL     1      28.389   8.119  47.411  1.00  0.00     0.067 C 
HETATM   21  N6  UNL     1      29.452   8.790  47.511  1.00  0.00    -0.240 N 
HETATM   22  H10 UNL     1      35.048   6.361  45.318  1.00  0.00     0.154 HD
HETATM   23  H18 UNL     1      27.520  10.824  45.744  1.00  0.00     0.182 HD
ENDROOT
BRANCH  20  24
HETATM   24  C16 UNL     1      27.796   6.922  48.024  1.00  0.00     0.008 A 
HETATM   25  C17 UNL     1      28.411   5.681  48.150  1.00  0.00     0.016 A 
HETATM   26  C18 UNL     1      27.717   4.660  48.752  1.00  0.00     0.020 A 
HETATM   27  C19 UNL     1      26.437   4.760  49.253  1.00  0.00     0.116 A 
HETATM   28  N5  UNL     1      25.832   5.978  49.129  1.00  0.00    -0.272 NA
HETATM   29  C20 UNL     1      26.520   6.994  48.531  1.00  0.00     0.129 A 
ENDBRANCH  20  24
TORSDOF 1
ENDMDL
MODEL 3
REMARK VINA RESULT:      -7.3      7.751     11.865
REMARK  1 active torsions:
REMARK  status: ('A' for Active; 'I' for Inactive)
REMARK    1  A    between atoms: C15_20  and  C16_21 
ROOT
HETATM    1  C1  UNL     1      22.449   2.494  47.234  1.00  0.00     0.180 C 
HETATM    2  N1  UNL     1      22.641   2.234  48.640  1.00  0.00    -0.275 N 
HETATM    3  C2  UNL     1      21.667   1.837  49.380  1.00  0.00     0.124 A 
HETATM    4  C3  UNL     1      20.375   1.668  48.715  1.00  0.00     0.107 C 
HETATM    5  C4  UNL     1      19.348   2.607  49.288  1.00  0.00    -0.019 C 
HETATM    6  C5  UNL     1      18.251   3.040  49.876  1.00  0.00    -0.006 C 
HETATM    7  C6  UNL     1      17.529   4.229  50.303  1.00  0.00    -0.000 C 
HETATM    8  C7  UNL     1      18.482   4.990  49.848  1.00  0.00     0.126 C 
HETATM    9  N2  UNL     1      19.125   6.200  49.575  1.00  0.00    -0.409 N 
HETATM   10  C8  UNL     1      20.299   6.310  50.451  1.00  0.00     0.142 C 
HETATM   11  C9  UNL     1      21.009   7.581  50.222  1.00  0.00    -0.008 C 
HETATM   12  C10 UNL     1      22.174   8.038  49.854  1.00  0.00    -0.001 C 
HETATM   13  C11 UNL     1      23.365   7.319  49.486  1.00  0.00     0.024 C 
HETATM   14  C12 UNL     1      24.047   6.220  49.277  1.00  0.00     0.143 C 
HETATM   15  O1  UNL     1      24.970   5.233  48.993  1.00  0.00    -0.314 OA
HETATM   16  C13 UNL     1      25.916   4.800  49.911  1.00  0.00     0.279 C 
HETATM   17  N3  UNL     1      25.147   3.787  49.791  1.00  0.00    -0.167 NA
HETATM   18  N4  UNL     1      25.334   2.608  50.475  1.00  0.00    -0.307 N 
HETATM   19  C14 UNL     1      24.597   2.007  51.536  1.00  0.00     0.201 C 
HETATM   20  C15 UNL     1      23.190   1.674  51.230  1.00  0.00     0.067 C 
HETATM   21  N6  UNL     1      22.895   1.990  50.045  1.00  0.00    -0.240 N 
HETATM   22  H10 UNL     1      18.950   7.005  48.902  1.00  0.00     0.154 HD
HETATM   23  H18 UNL     1      26.203   2.216  50.013  1.00  0.00     0.182 HD
ENDROOT
BRANCH  20  24
HETATM   24  C16 UNL     1      22.525   1.067  52.392  1.00  0.00     0.008 A 
HETATM   25  C17 UNL     1      21.241   1.354  52.838  1.00  0.00     0.016 A 
HETATM   26  C18 UNL     1      20.765   0.693  53.945  1.00  0.00     0.020 A 
HETATM   27  C19 UNL     1      21.464  -0.249  54.667  1.00  0.00     0.116 A 
HETATM   28  N5  UNL     1      22.727  -0.531  54.230  1.00  0.00    -0.272 NA
HETATM   29  C20 UNL     1      23.201   0.123  53.130  1.00  0.00     0.129 A 
ENDBRANCH  20  24
TORSDOF 1
ENDMDL
MODEL 4
REMARK VINA RESULT:      -7.2      6.930      9.397
REMARK  1 active torsions:
REMARK  status: ('A' for Active; 'I' for Inactive)
REMARK    1  A    between atoms: C15_20  and  C16_21 
ROOT
HETATM    1  C1  UNL     1      20.518   6.794  49.018  1.00  0.00     0.180 C 
HETATM    2  N1  UNL     1      21.506   5.744  49.076  1.00  0.00    -0.275 N 
HETATM    3  C2  UNL     1      22.515   5.825  49.869  1.00  0.00     0.124 A 
HETATM    4  C3  UNL     1      22.595   7.029  50.695  1.00  0.00     0.107 C 
HETATM    5  C4  UNL     1      23.831   7.824  50.368  1.00  0.00    -0.019 C 
HETATM    6  C5  UNL     1      24.987   8.440  50.512  1.00  0.00    -0.006 C 
HETATM    7  C6  UNL     1      26.008   9.214  49.823  1.00  0.00    -0.000 C 
HETATM    8  C7  UNL     1      25.334   9.143  48.712  1.00  0.00     0.126 C 
HETATM    9  N2  UNL     1      25.082   9.380  47.359  1.00  0.00    -0.409 N 
HETATM   10  C8  UNL     1      25.220   8.111  46.633  1.00  0.00     0.142 C 
HETATM   11  C9  UNL     1      24.985   8.302  45.190  1.00  0.00    -0.008 C 
HETATM   12  C10 UNL     1      24.197   7.901  44.231  1.00  0.00    -0.001 C 
HETATM   13  C11 UNL     1      23.100   6.971  44.276  1.00  0.00     0.024 C 
HETATM   14  C12 UNL     1      22.301   6.137  44.895  1.00  0.00     0.143 C 
HETATM   15  O1  UNL     1      21.344   5.229  45.300  1.00  0.00    -0.314 OA
HETATM   16  C13 UNL     1      21.498   3.857  45.155  1.00  0.00     0.279 C 
HETATM   17  N3  UNL     1      21.544   4.019  46.422  1.00  0.00    -0.167 NA
HETATM   18  N4  UNL     1      21.712   2.985  47.313  1.00  0.00    -0.307 N 
HETATM   19  C14 UNL     1      22.809   2.629  48.147  1.00  0.00     0.201 C 
HETATM   20  C15 UNL     1      23.202   3.636  49.155  1.00  0.00     0.067 C 
HETATM   21  N6  UNL     1      22.463   4.657  49.089  1.00  0.00    -0.240 N 
HETATM   22  H10 UNL     1      24.823  10.237  46.785  1.00  0.00     0.154 HD
HETATM   23  H18 UNL     1      20.786   2.474  47.241  1.00  0.00     0.182 HD
ENDROOT
BRANCH  20  24
HETATM   24  C16 UNL     1      24.344   3.169  49.953  1.00  0.00     0.008 A 
HETATM   25  C17 UNL     1      24.278   2.315  51.048  1.00  0.00     0.016 A 
HETATM   26  C18 UNL     1      25.445   1.972  51.687  1.00  0.00     0.020 A 
HETATM   27  C19 UNL     1      26.702   2.410  51.331  1.00  0.00     0.116 A 
HETATM   28  N5  UNL     1      26.767   3.250  50.256  1.00  0.00    -0.272 NA
HETATM   29  C20 UNL     1      25.610   3.592  49.619  1.00  0.00     0.129 A 
ENDBRANCH  20  24
TORSDOF 1
ENDMDL
MODEL 5
REMARK VINA RESULT:      -7.1      2.315      7.184
REMARK  1 active torsions:
REMARK  status: ('A' for Active; 'I' for Inactive)
REMARK    1  A    between atoms: C15_20  and  C16_21 
ROOT
HETATM    1  C1  UNL     1      34.438   7.298  48.582  1.00  0.00     0.180 C 
HETATM    2  N1  UNL     1      34.180   7.162  47.169  1.00  0.00    -0.275 N 
HETATM    3  C2  UNL     1      34.115   8.193  46.404  1.00  0.00     0.124 A 
HETATM    4  C3  UNL     1      34.317   9.491  47.047  1.00  0.00     0.107 C 
HETATM    5  C4  UNL     1      33.084  10.347  46.931  1.00  0.00    -0.019 C 
HETATM    6  C5  UNL     1      32.297  11.358  46.621  1.00  0.00    -0.006 C 
HETATM    7  C6  UNL     1      30.938  11.868  46.711  1.00  0.00    -0.000 C 
HETATM    8  C7  UNL     1      30.561  10.798  47.346  1.00  0.00     0.126 C 
HETATM    9  N2  UNL     1      29.657   9.957  48.000  1.00  0.00    -0.409 N 
HETATM   10  C8  UNL     1      29.412   8.787  47.148  1.00  0.00     0.142 C 
HETATM   11  C9  UNL     1      28.446   7.869  47.779  1.00  0.00    -0.008 C 
HETATM   12  C10 UNL     1      28.347   6.641  48.207  1.00  0.00    -0.001 C 
HETATM   13  C11 UNL     1      29.328   5.588  48.203  1.00  0.00     0.024 C 
HETATM   14  C12 UNL     1      30.516   5.102  47.946  1.00  0.00     0.143 C 
HETATM   15  O1  UNL     1      31.668   4.359  47.784  1.00  0.00    -0.314 OA
HETATM   16  C13 UNL     1      31.869   3.505  46.709  1.00  0.00     0.279 C 
HETATM   17  N3  UNL     1      32.720   4.434  46.500  1.00  0.00    -0.167 NA
HETATM   18  N4  UNL     1      33.571   4.455  45.419  1.00  0.00    -0.307 N 
HETATM   19  C14 UNL     1      33.610   5.289  44.266  1.00  0.00     0.201 C 
HETATM   20  C15 UNL     1      33.810   6.730  44.523  1.00  0.00     0.067 C 
HETATM   21  N6  UNL     1      33.918   6.960  45.759  1.00  0.00    -0.240 N 
HETATM   22  H10 UNL     1      29.146   9.989  48.933  1.00  0.00     0.154 HD
HETATM   23  H18 UNL     1      34.238   3.663  45.644  1.00  0.00     0.182 HD
ENDROOT
BRANCH  20  24
HETATM   24  C16 UNL     1      33.827   7.495  43.268  1.00  0.00     0.008 A 
HETATM   25  C17 UNL     1      32.901   8.459  42.889  1.00  0.00     0.016 A 
HETATM   26  C18 UNL     1      33.062   9.087  41.677  1.00  0.00     0.020 A 
HETATM   27  C19 UNL     1      34.084   8.838  40.786  1.00  0.00     0.116 A 
HETATM   28  N5  UNL     1      34.994   7.890  41.158  1.00  0.00    -0.272 NA
HETATM   29  C20 UNL     1      34.836   7.266  42.361  1.00  0.00     0.129 A 
ENDBRANCH  20  24
TORSDOF 1
ENDMDL
MODEL 6
REMARK VINA RESULT:      -7.1      3.739      7.140
REMARK  1 active torsions:
REMARK  status: ('A' for Active; 'I' for Inactive)
REMARK    1  A    between atoms: C15_20  and  C16_21 
ROOT
HETATM    1  C1  UNL     1      29.460  10.241  44.423  1.00  0.00     0.180 C 
HETATM    2  N1  UNL     1      29.178   9.443  45.591  1.00  0.00    -0.275 N 
HETATM    3  C2  UNL     1      28.170   8.644  45.622  1.00  0.00     0.124 A 
HETATM    4  C3  UNL     1      27.343   8.597  44.416  1.00  0.00     0.107 C 
HETATM    5  C4  UNL     1      25.941   9.060  44.707  1.00  0.00    -0.019 C 
HETATM    6  C5  UNL     1      24.628   9.055  44.817  1.00  0.00    -0.006 C 
HETATM    7  C6  UNL     1      23.471   9.845  45.209  1.00  0.00    -0.000 C 
HETATM    8  C7  UNL     1      24.241  10.847  45.519  1.00  0.00     0.126 C 
HETATM    9  N2  UNL     1      24.533  12.135  45.975  1.00  0.00    -0.409 N 
HETATM   10  C8  UNL     1      25.196  12.025  47.281  1.00  0.00     0.142 C 
HETATM   11  C9  UNL     1      25.512  13.358  47.825  1.00  0.00    -0.008 C 
HETATM   12  C10 UNL     1      26.528  14.080  48.210  1.00  0.00    -0.001 C 
HETATM   13  C11 UNL     1      27.928  13.750  48.234  1.00  0.00     0.024 C 
HETATM   14  C12 UNL     1      28.941  12.943  48.033  1.00  0.00     0.143 C 
HETATM   15  O1  UNL     1      30.158  12.302  47.917  1.00  0.00    -0.314 OA
HETATM   16  C13 UNL     1      30.773  11.655  48.981  1.00  0.00     0.279 C 
HETATM   17  N3  UNL     1      30.457  10.693  48.203  1.00  0.00    -0.167 NA
HETATM   18  N4  UNL     1      30.725   9.372  48.483  1.00  0.00    -0.307 N 
HETATM   19  C14 UNL     1      29.867   8.289  48.825  1.00  0.00     0.201 C 
HETATM   20  C15 UNL     1      28.855   7.927  47.810  1.00  0.00     0.067 C 
HETATM   21  N6  UNL     1      28.946   8.669  46.793  1.00  0.00    -0.240 N 
HETATM   22  H10 UNL     1      24.386  13.116  45.591  1.00  0.00     0.154 HD
HETATM   23  H18 UNL     1      31.779   9.332  48.383  1.00  0.00     0.182 HD
ENDROOT
BRANCH  20  24
HETATM   24  C16 UNL     1      28.024   6.805  48.268  1.00  0.00     0.008 A 
HETATM   25  C17 UNL     1      26.686   6.880  48.637  1.00  0.00     0.016 A 
HETATM   26  C18 UNL     1      26.049   5.731  49.042  1.00  0.00     0.020 A 
HETATM   27  C19 UNL     1      26.633   4.485  49.116  1.00  0.00     0.116 A 
HETATM   28  N5  UNL     1      27.948   4.412  48.754  1.00  0.00    -0.272 NA
HETATM   29  C20 UNL     1      28.582   5.551  48.351  1.00  0.00     0.129 A 
ENDBRANCH  20  24
TORSDOF 1
ENDMDL
MODEL 7
REMARK VINA RESULT:      -6.9      3.223      6.676
REMARK  1 active torsions:
REMARK  status: ('A' for Active; 'I' for Inactive)
REMARK    1  A    between atoms: C15_20  and  C16_21 
ROOT
HETATM    1  C1  UNL     1      28.866   8.990  44.320  1.00  0.00     0.180 C 
HETATM    2  N1  UNL     1      28.674   8.215  45.522  1.00  0.00    -0.275 N 
HETATM    3  C2  UNL     1      27.504   8.065  46.034  1.00  0.00     0.124 A 
HETATM    4  C3  UNL     1      26.400   8.719  45.332  1.00  0.00     0.107 C 
HETATM    5  C4  UNL     1      25.749   9.760  46.204  1.00  0.00    -0.019 C 
HETATM    6  C5  UNL     1      24.831  10.407  46.892  1.00  0.00    -0.006 C 
HETATM    7  C6  UNL     1      24.582  11.569  47.730  1.00  0.00    -0.000 C 
HETATM    8  C7  UNL     1      25.826  11.934  47.620  1.00  0.00     0.126 C 
HETATM    9  N2  UNL     1      26.939  12.749  47.844  1.00  0.00    -0.409 N 
HETATM   10  C8  UNL     1      27.874  12.027  48.715  1.00  0.00     0.142 C 
HETATM   11  C9  UNL     1      29.064  12.848  49.005  1.00  0.00    -0.008 C 
HETATM   12  C10 UNL     1      30.360  12.837  48.862  1.00  0.00    -0.001 C 
HETATM   13  C11 UNL     1      31.208  11.838  48.268  1.00  0.00     0.024 C 
HETATM   14  C12 UNL     1      31.418  10.693  47.666  1.00  0.00     0.143 C 
HETATM   15  O1  UNL     1      31.902   9.562  47.041  1.00  0.00    -0.314 OA
HETATM   16  C13 UNL     1      32.408   8.474  47.739  1.00  0.00     0.279 C 
HETATM   17  N3  UNL     1      31.333   8.012  47.226  1.00  0.00    -0.167 NA
HETATM   18  N4  UNL     1      30.901   6.718  47.408  1.00  0.00    -0.307 N 
HETATM   19  C14 UNL     1      29.803   6.186  48.143  1.00  0.00     0.201 C 
HETATM   20  C15 UNL     1      28.463   6.633  47.708  1.00  0.00     0.067 C 
HETATM   21  N6  UNL     1      28.545   7.426  46.729  1.00  0.00    -0.240 N 
HETATM   22  H10 UNL     1      27.229  13.723  47.528  1.00  0.00     0.154 HD
HETATM   23  H18 UNL     1      31.609   6.164  46.847  1.00  0.00     0.182 HD
ENDROOT
BRANCH  20  24
HETATM   24  C16 UNL     1      27.409   6.030  48.535  1.00  0.00     0.008 A 
HETATM   25  C17 UNL     1      26.355   6.709  49.135  1.00  0.00     0.016 A 
HETATM   26  C18 UNL     1      25.449   5.994  49.879  1.00  0.00     0.020 A 
HETATM   27  C19 UNL     1      25.494   4.632  50.087  1.00  0.00     0.116 A 
HETATM   28  N5  UNL     1      26.529   3.964  49.499  1.00  0.00    -0.272 NA
HETATM   29  C20 UNL     1      27.431   4.673  48.759  1.00  0.00     0.129 A 
ENDBRANCH  20  24
TORSDOF 1
ENDMDL
MODEL 8
REMARK VINA RESULT:      -6.8      5.666     10.398
REMARK  1 active torsions:
REMARK  status: ('A' for Active; 'I' for Inactive)
REMARK    1  A    between atoms: C15_20  and  C16_21 
ROOT
HETATM    1  C1  UNL     1      20.525   7.425  49.928  1.00  0.00     0.180 C 
HETATM    2  N1  UNL     1      21.945   7.359  49.680  1.00  0.00    -0.275 N 
HETATM    3  C2  UNL     1      22.419   7.519  48.495  1.00  0.00     0.124 A 
HETATM    4  C3  UNL     1      21.444   7.769  47.434  1.00  0.00     0.107 C 
HETATM    5  C4  UNL     1      21.471   6.668  46.408  1.00  0.00    -0.019 C 
HETATM    6  C5  UNL     1      21.594   6.050  45.251  1.00  0.00    -0.006 C 
HETATM    7  C6  UNL     1      21.526   4.758  44.587  1.00  0.00    -0.000 C 
HETATM    8  C7  UNL     1      21.235   4.177  45.715  1.00  0.00     0.126 C 
HETATM    9  N2  UNL     1      20.925   3.101  46.550  1.00  0.00    -0.409 N 
HETATM   10  C8  UNL     1      22.073   2.853  47.432  1.00  0.00     0.142 C 
HETATM   11  C9  UNL     1      21.812   1.711  48.327  1.00  0.00    -0.008 C 
HETATM   12  C10 UNL     1      21.729   1.416  49.594  1.00  0.00    -0.001 C 
HETATM   13  C11 UNL     1      21.897   2.264  50.744  1.00  0.00     0.024 C 
HETATM   14  C12 UNL     1      22.138   3.416  51.319  1.00  0.00     0.143 C 
HETATM   15  O1  UNL     1      22.357   4.490  52.158  1.00  0.00    -0.314 OA
HETATM   16  C13 UNL     1      23.588   4.747  52.746  1.00  0.00     0.279 C 
HETATM   17  N3  UNL     1      23.454   5.717  51.926  1.00  0.00    -0.167 NA
HETATM   18  N4  UNL     1      24.391   6.711  51.766  1.00  0.00    -0.307 N 
HETATM   19  C14 UNL     1      25.279   7.007  50.692  1.00  0.00     0.201 C 
HETATM   20  C15 UNL     1      24.636   7.326  49.400  1.00  0.00     0.067 C 
HETATM   21  N6  UNL     1      23.379   7.281  49.494  1.00  0.00    -0.240 N 
HETATM   22  H10 UNL     1      20.079   2.468  46.672  1.00  0.00     0.154 HD
HETATM   23  H18 UNL     1      24.307   7.247  52.677  1.00  0.00     0.182 HD
ENDROOT
BRANCH  20  24
HETATM   24  C16 UNL     1      25.641   7.608  48.365  1.00  0.00     0.008 A 
HETATM   25  C17 UNL     1      25.399   8.215  47.138  1.00  0.00     0.016 A 
HETATM   26  C18 UNL     1      26.454   8.409  46.280  1.00  0.00     0.020 A 
HETATM   27  C19 UNL     1      27.759   8.046  46.533  1.00  0.00     0.116 A 
HETATM   28  N5  UNL     1      27.997   7.448  47.738  1.00  0.00    -0.272 NA
HETATM   29  C20 UNL     1      26.951   7.255  48.592  1.00  0.00     0.129 A 
ENDBRANCH  20  24
TORSDOF 1
ENDMDL
MODEL 9
REMARK VINA RESULT:      -6.8     16.470     20.066
REMARK  1 active torsions:
REMARK  status: ('A' for Active; 'I' for Inactive)
REMARK    1  A    between atoms: C15_20  and  C16_21 
ROOT
HETATM    1  C1  UNL     1      13.047   1.403  49.171  1.00  0.00     0.180 C 
HETATM    2  N1  UNL     1      13.986   0.770  50.064  1.00  0.00    -0.275 N 
HETATM    3  C2  UNL     1      13.731  -0.373  50.595  1.00  0.00     0.124 A 
HETATM    4  C3  UNL     1      12.448  -0.980  50.240  1.00  0.00     0.107 C 
HETATM    5  C4  UNL     1      11.574  -1.141  51.455  1.00  0.00    -0.019 C 
HETATM    6  C5  UNL     1      10.839  -1.706  52.391  1.00  0.00    -0.006 C 
HETATM    7  C6  UNL     1      10.042  -1.453  53.581  1.00  0.00    -0.000 C 
HETATM    8  C7  UNL     1      10.287  -0.178  53.493  1.00  0.00     0.126 C 
HETATM    9  N2  UNL     1      10.210   1.163  53.879  1.00  0.00    -0.409 N 
HETATM   10  C8  UNL     1      11.525   1.575  54.385  1.00  0.00     0.142 C 
HETATM   11  C9  UNL     1      11.501   2.981  54.827  1.00  0.00    -0.008 C 
HETATM   12  C10 UNL     1      12.068   4.130  54.582  1.00  0.00    -0.001 C 
HETATM   13  C11 UNL     1      13.091   4.460  53.625  1.00  0.00     0.024 C 
HETATM   14  C12 UNL     1      13.932   4.161  52.666  1.00  0.00     0.143 C 
HETATM   15  O1  UNL     1      14.884   4.112  51.667  1.00  0.00    -0.314 OA
HETATM   16  C13 UNL     1      16.242   3.991  51.926  1.00  0.00     0.279 C 
HETATM   17  N3  UNL     1      15.952   2.873  51.381  1.00  0.00    -0.167 NA
HETATM   18  N4  UNL     1      16.873   1.873  51.165  1.00  0.00    -0.307 N 
HETATM   19  C14 UNL     1      17.038   0.596  51.774  1.00  0.00     0.201 C 
HETATM   20  C15 UNL     1      15.902  -0.338  51.622  1.00  0.00     0.067 C 
HETATM   21  N6  UNL     1      14.969   0.187  50.953  1.00  0.00    -0.240 N 
HETATM   22  H10 UNL     1       9.443   1.899  53.876  1.00  0.00     0.154 HD
HETATM   23  H18 UNL     1      17.475   2.285  50.397  1.00  0.00     0.182 HD
ENDROOT
BRANCH  20  24
HETATM   24  C16 UNL     1      16.176  -1.618  52.290  1.00  0.00     0.008 A 
HETATM   25  C17 UNL     1      15.375  -2.752  52.238  1.00  0.00     0.016 A 
HETATM   26  C18 UNL     1      15.777  -3.874  52.922  1.00  0.00     0.020 A 
HETATM   27  C19 UNL     1      16.929  -3.976  53.671  1.00  0.00     0.116 A 
HETATM   28  N5  UNL     1      17.716  -2.861  53.724  1.00  0.00    -0.272 NA
HETATM   29  C20 UNL     1      17.319  -1.745  53.045  1.00  0.00     0.129 A 
ENDBRANCH  20  24
TORSDOF 1
ENDMDL
