MODEL 1
REMARK VINA RESULT:      -7.9      0.000      0.000
REMARK  6 active torsions:
REMARK  status: ('A' for Active; 'I' for Inactive)
REMARK    1  A    between atoms: O1_2  and  C2_3 
REMARK    2  A    between atoms: C6_8  and  N2_9 
REMARK    3  A    between atoms: N2_9  and  C7_10 
REMARK    4  A    between atoms: C8_11  and  C9_12 
REMARK    5  A    between atoms: C16_20  and  C17_21 
REMARK    6  A    between atoms: C17_21  and  N3_22 
ROOT
HETATM    1  C2  UNL     1      23.204   3.571  51.748  1.00  0.00     0.071 C 
HETATM    2  C3  UNL     1      23.727   3.572  52.954  1.00  0.00     0.021 C 
HETATM    3  C4  UNL     1      23.776   2.093  53.093  1.00  0.00     0.057 C 
HETATM    4  C5  UNL     1      22.449   1.564  52.622  1.00  0.00     0.101 C 
HETATM    5  N1  UNL     1      21.382   2.200  52.031  1.00  0.00    -0.247 NA
HETATM    6  C6  UNL     1      20.290   1.307  51.729  1.00  0.00     0.126 C 
HETATM    7  C12 UNL     1      20.983   0.846  50.658  1.00  0.00     0.051 C 
HETATM    8  C13 UNL     1      22.315   1.388  50.285  1.00  0.00     0.013 C 
HETATM    9  C14 UNL     1      22.970   2.417  50.831  1.00  0.00    -0.025 C 
HETATM   10  C15 UNL     1      24.464   2.219  50.732  1.00  0.00     0.049 C 
HETATM   11  C16 UNL     1      24.851   1.634  52.130  1.00  0.00     0.031 C 
ENDROOT
BRANCH   6  12
HETATM   12  N2  UNL     1      19.029   0.845  52.085  1.00  0.00    -0.351 N 
HETATM   13  H7  UNL     1      18.094   1.315  51.906  1.00  0.00     0.166 HD
BRANCH  12  14
HETATM   14  C7  UNL     1      18.983  -0.417  52.776  1.00  0.00     0.090 C 
HETATM   15  C8  UNL     1      17.917  -1.199  52.823  1.00  0.00     0.020 C 
BRANCH  15  16
HETATM   16  C9  UNL     1      17.781  -2.485  53.495  1.00  0.00     0.038 C 
HETATM   17  C10 UNL     1      16.773  -3.307  53.257  1.00  0.00     0.090 C 
HETATM   18  C11 UNL     1      16.765  -4.586  54.018  1.00  0.00     0.082 C 
HETATM   19  F1  UNL     1      15.846  -2.913  52.351  1.00  0.00    -0.211 F 
ENDBRANCH  15  16
ENDBRANCH  12  14
ENDBRANCH   6  12
BRANCH  11  20
HETATM   20  C17 UNL     1      26.203   2.202  52.444  1.00  0.00     0.278 C 
BRANCH  20  21
HETATM   21  N3  UNL     1      27.156   1.104  52.261  1.00  0.00     0.092 N 
HETATM   22  C18 UNL     1      28.225   1.173  53.236  1.00  0.00     0.298 C 
HETATM   23  C19 UNL     1      27.768   0.420  54.466  1.00  0.00     0.198 C 
HETATM   24  O2  UNL     1      27.744  -0.947  54.214  1.00  0.00    -0.388 OA
HETATM   25  C20 UNL     1      27.303  -1.238  52.928  1.00  0.00     0.198 C 
HETATM   26  C21 UNL     1      26.420  -0.143  52.372  1.00  0.00     0.298 C 
ENDBRANCH  20  21
ENDBRANCH  11  20
BRANCH   1  27
HETATM   27  O1  UNL     1      22.687   4.502  50.861  1.00  0.00    -0.356 OA
HETATM   28  C1  UNL     1      22.079   5.695  51.308  1.00  0.00     0.210 C 
ENDBRANCH   1  27
TORSDOF 6
ENDMDL
MODEL 2
REMARK VINA RESULT:      -7.8      4.144      7.468
REMARK  6 active torsions:
REMARK  status: ('A' for Active; 'I' for Inactive)
REMARK    1  A    between atoms: O1_2  and  C2_3 
REMARK    2  A    between atoms: C6_8  and  N2_9 
REMARK    3  A    between atoms: N2_9  and  C7_10 
REMARK    4  A    between atoms: C8_11  and  C9_12 
REMARK    5  A    between atoms: C16_20  and  C17_21 
REMARK    6  A    between atoms: C17_21  and  N3_22 
ROOT
HETATM    1  C2  UNL     1      22.731   2.736  51.361  1.00  0.00     0.071 C 
HETATM    2  C3  UNL     1      23.439   1.792  50.781  1.00  0.00     0.021 C 
HETATM    3  C4  UNL     1      24.753   2.462  50.964  1.00  0.00     0.057 C 
HETATM    4  C5  UNL     1      24.569   3.902  50.573  1.00  0.00     0.101 C 
HETATM    5  N1  UNL     1      23.438   4.609  50.234  1.00  0.00    -0.247 NA
HETATM    6  C6  UNL     1      23.709   5.992  49.927  1.00  0.00     0.126 C 
HETATM    7  C12 UNL     1      23.824   6.249  51.254  1.00  0.00     0.051 C 
HETATM    8  C13 UNL     1      23.617   5.197  52.283  1.00  0.00     0.013 C 
HETATM    9  C14 UNL     1      23.208   3.938  52.106  1.00  0.00    -0.025 C 
HETATM   10  C15 UNL     1      23.793   3.027  53.159  1.00  0.00     0.049 C 
HETATM   11  C16 UNL     1      25.036   2.395  52.450  1.00  0.00     0.031 C 
ENDROOT
BRANCH   6  12
HETATM   12  N2  UNL     1      23.863   6.959  48.941  1.00  0.00    -0.351 N 
HETATM   13  H7  UNL     1      23.099   7.479  48.419  1.00  0.00     0.166 HD
BRANCH  12  14
HETATM   14  C7  UNL     1      25.217   7.296  48.585  1.00  0.00     0.090 C 
HETATM   15  C8  UNL     1      26.222   6.436  48.591  1.00  0.00     0.020 C 
BRANCH  15  16
HETATM   16  C9  UNL     1      27.616   6.688  48.248  1.00  0.00     0.038 C 
HETATM   17  C10 UNL     1      28.515   5.721  48.177  1.00  0.00     0.090 C 
HETATM   18  C11 UNL     1      29.900   6.127  47.815  1.00  0.00     0.082 C 
HETATM   19  F1  UNL     1      28.097   4.459  48.438  1.00  0.00    -0.211 F 
ENDBRANCH  15  16
ENDBRANCH  12  14
ENDBRANCH   6  12
BRANCH  11  20
HETATM   20  C17 UNL     1      25.123   0.990  52.969  1.00  0.00     0.278 C 
BRANCH  20  21
HETATM   21  N3  UNL     1      26.423   0.475  52.528  1.00  0.00     0.092 N 
HETATM   22  C18 UNL     1      27.507   1.126  53.232  1.00  0.00     0.298 C 
HETATM   23  C19 UNL     1      27.759   0.345  54.503  1.00  0.00     0.198 C 
HETATM   24  O2  UNL     1      28.348  -0.879  54.208  1.00  0.00    -0.388 OA
HETATM   25  C20 UNL     1      27.833  -1.446  53.048  1.00  0.00     0.198 C 
HETATM   26  C21 UNL     1      26.430  -0.959  52.755  1.00  0.00     0.298 C 
ENDBRANCH  20  21
ENDBRANCH  11  20
BRANCH   1  27
HETATM   27  O1  UNL     1      21.391   3.038  51.542  1.00  0.00    -0.356 OA
HETATM   28  C1  UNL     1      20.426   2.031  51.760  1.00  0.00     0.210 C 
ENDBRANCH   1  27
TORSDOF 6
ENDMDL
MODEL 3
REMARK VINA RESULT:      -7.7      1.620      1.989
REMARK  6 active torsions:
REMARK  status: ('A' for Active; 'I' for Inactive)
REMARK    1  A    between atoms: O1_2  and  C2_3 
REMARK    2  A    between atoms: C6_8  and  N2_9 
REMARK    3  A    between atoms: N2_9  and  C7_10 
REMARK    4  A    between atoms: C8_11  and  C9_12 
REMARK    5  A    between atoms: C16_20  and  C17_21 
REMARK    6  A    between atoms: C17_21  and  N3_22 
ROOT
HETATM    1  C2  UNL     1      23.724   4.176  51.506  1.00  0.00     0.071 C 
HETATM    2  C3  UNL     1      23.669   3.899  52.790  1.00  0.00     0.021 C 
HETATM    3  C4  UNL     1      23.410   2.446  52.615  1.00  0.00     0.057 C 
HETATM    4  C5  UNL     1      22.350   2.314  51.558  1.00  0.00     0.101 C 
HETATM    5  N1  UNL     1      21.761   3.256  50.745  1.00  0.00    -0.247 NA
HETATM    6  C6  UNL     1      20.777   2.694  49.852  1.00  0.00     0.126 C 
HETATM    7  C12 UNL     1      21.778   2.220  49.070  1.00  0.00     0.051 C 
HETATM    8  C13 UNL     1      23.210   2.471  49.379  1.00  0.00     0.013 C 
HETATM    9  C14 UNL     1      23.723   3.236  50.346  1.00  0.00    -0.025 C 
HETATM   10  C15 UNL     1      25.059   2.701  50.805  1.00  0.00     0.049 C 
HETATM   11  C16 UNL     1      24.704   1.869  52.081  1.00  0.00     0.031 C 
ENDROOT
BRANCH   6  12
HETATM   12  N2  UNL     1      19.429   2.506  49.573  1.00  0.00    -0.351 N 
HETATM   13  H7  UNL     1      18.780   3.161  49.047  1.00  0.00     0.166 HD
BRANCH  12  14
HETATM   14  C7  UNL     1      18.843   1.282  50.053  1.00  0.00     0.090 C 
HETATM   15  C8  UNL     1      18.880   0.886  51.314  1.00  0.00     0.020 C 
BRANCH  15  16
HETATM   16  C9  UNL     1      18.317  -0.331  51.887  1.00  0.00     0.038 C 
HETATM   17  C10 UNL     1      18.711  -0.815  53.053  1.00  0.00     0.090 C 
HETATM   18  C11 UNL     1      18.047  -2.065  53.511  1.00  0.00     0.082 C 
HETATM   19  F1  UNL     1      19.675  -0.134  53.718  1.00  0.00    -0.211 F 
ENDBRANCH  15  16
ENDBRANCH  12  14
ENDBRANCH   6  12
BRANCH  11  20
HETATM   20  C17 UNL     1      25.861   2.054  53.017  1.00  0.00     0.278 C 
BRANCH  20  21
HETATM   21  N3  UNL     1      26.912   1.147  52.545  1.00  0.00     0.092 N 
HETATM   22  C18 UNL     1      28.137   1.333  53.295  1.00  0.00     0.298 C 
HETATM   23  C19 UNL     1      28.068   0.434  54.510  1.00  0.00     0.198 C 
HETATM   24  O2  UNL     1      28.200  -0.897  54.135  1.00  0.00    -0.388 OA
HETATM   25  C20 UNL     1      27.551  -1.175  52.936  1.00  0.00     0.198 C 
HETATM   26  C21 UNL     1      26.415  -0.211  52.674  1.00  0.00     0.298 C 
ENDBRANCH  20  21
ENDBRANCH  11  20
BRANCH   1  27
HETATM   27  O1  UNL     1      23.800   5.307  50.710  1.00  0.00    -0.356 OA
HETATM   28  C1  UNL     1      24.140   6.569  51.244  1.00  0.00     0.210 C 
ENDBRANCH   1  27
TORSDOF 6
ENDMDL
MODEL 4
REMARK VINA RESULT:      -7.3      4.798      7.235
REMARK  6 active torsions:
REMARK  status: ('A' for Active; 'I' for Inactive)
REMARK    1  A    between atoms: O1_2  and  C2_3 
REMARK    2  A    between atoms: C6_8  and  N2_9 
REMARK    3  A    between atoms: N2_9  and  C7_10 
REMARK    4  A    between atoms: C8_11  and  C9_12 
REMARK    5  A    between atoms: C16_20  and  C17_21 
REMARK    6  A    between atoms: C17_21  and  N3_22 
ROOT
HETATM    1  C2  UNL     1      23.324   6.109  50.302  1.00  0.00     0.071 C 
HETATM    2  C3  UNL     1      24.402   6.633  50.842  1.00  0.00     0.021 C 
HETATM    3  C4  UNL     1      25.351   5.654  50.251  1.00  0.00     0.057 C 
HETATM    4  C5  UNL     1      24.748   4.289  50.440  1.00  0.00     0.101 C 
HETATM    5  N1  UNL     1      23.516   3.904  50.917  1.00  0.00    -0.247 NA
HETATM    6  C6  UNL     1      23.338   2.472  50.927  1.00  0.00     0.126 C 
HETATM    7  C12 UNL     1      23.133   2.503  49.587  1.00  0.00     0.051 C 
HETATM    8  C13 UNL     1      23.132   3.774  48.817  1.00  0.00     0.013 C 
HETATM    9  C14 UNL     1      23.221   5.022  49.283  1.00  0.00    -0.025 C 
HETATM   10  C15 UNL     1      23.899   5.926  48.281  1.00  0.00     0.049 C 
HETATM   11  C16 UNL     1      25.384   5.969  48.770  1.00  0.00     0.031 C 
ENDROOT
BRANCH   6  12
HETATM   12  N2  UNL     1      23.312   1.306  51.682  1.00  0.00    -0.351 N 
HETATM   13  H7  UNL     1      22.524   0.597  51.750  1.00  0.00     0.166 HD
BRANCH  12  14
HETATM   14  C7  UNL     1      24.488   1.025  52.463  1.00  0.00     0.090 C 
HETATM   15  C8  UNL     1      25.699   0.873  51.952  1.00  0.00     0.020 C 
BRANCH  15  16
HETATM   16  C9  UNL     1      26.940   0.589  52.662  1.00  0.00     0.038 C 
HETATM   17  C10 UNL     1      27.447  -0.630  52.746  1.00  0.00     0.090 C 
HETATM   18  C11 UNL     1      28.720  -0.769  53.503  1.00  0.00     0.082 C 
HETATM   19  F1  UNL     1      26.766  -1.632  52.139  1.00  0.00    -0.211 F 
ENDBRANCH  15  16
ENDBRANCH  12  14
ENDBRANCH   6  12
BRANCH  11  20
HETATM   20  C17 UNL     1      25.864   7.360  48.476  1.00  0.00     0.278 C 
BRANCH  20  21
HETATM   21  N3  UNL     1      27.262   7.407  48.917  1.00  0.00     0.092 N 
HETATM   22  C18 UNL     1      28.163   7.098  47.826  1.00  0.00     0.298 C 
HETATM   23  C19 UNL     1      28.467   8.393  47.106  1.00  0.00     0.198 C 
HETATM   24  O2  UNL     1      29.284   9.201  47.888  1.00  0.00    -0.388 OA
HETATM   25  C20 UNL     1      28.957   9.131  49.238  1.00  0.00     0.198 C 
HETATM   26  C21 UNL     1      27.512   8.734  49.450  1.00  0.00     0.298 C 
ENDBRANCH  20  21
ENDBRANCH  11  20
BRANCH   1  27
HETATM   27  O1  UNL     1      21.952   6.280  50.395  1.00  0.00    -0.356 OA
HETATM   28  C1  UNL     1      21.374   7.553  50.590  1.00  0.00     0.210 C 
ENDBRANCH   1  27
TORSDOF 6
ENDMDL
MODEL 5
REMARK VINA RESULT:      -7.3      1.629      1.924
REMARK  6 active torsions:
REMARK  status: ('A' for Active; 'I' for Inactive)
REMARK    1  A    between atoms: O1_2  and  C2_3 
REMARK    2  A    between atoms: C6_8  and  N2_9 
REMARK    3  A    between atoms: N2_9  and  C7_10 
REMARK    4  A    between atoms: C8_11  and  C9_12 
REMARK    5  A    between atoms: C16_20  and  C17_21 
REMARK    6  A    between atoms: C17_21  and  N3_22 
ROOT
HETATM    1  C2  UNL     1      23.299   3.191  52.225  1.00  0.00     0.071 C 
HETATM    2  C3  UNL     1      24.099   3.138  53.267  1.00  0.00     0.021 C 
HETATM    3  C4  UNL     1      24.319   1.669  53.207  1.00  0.00     0.057 C 
HETATM    4  C5  UNL     1      22.974   1.032  52.995  1.00  0.00     0.101 C 
HETATM    5  N1  UNL     1      21.739   1.589  52.752  1.00  0.00    -0.247 NA
HETATM    6  C6  UNL     1      20.696   0.603  52.604  1.00  0.00     0.126 C 
HETATM    7  C12 UNL     1      21.145   0.336  51.353  1.00  0.00     0.051 C 
HETATM    8  C13 UNL     1      22.289   1.070  50.750  1.00  0.00     0.013 C 
HETATM    9  C14 UNL     1      22.957   2.112  51.252  1.00  0.00    -0.025 C 
HETATM   10  C15 UNL     1      24.394   2.107  50.785  1.00  0.00     0.049 C 
HETATM   11  C16 UNL     1      25.164   1.440  51.971  1.00  0.00     0.031 C 
ENDROOT
BRANCH   6  12
HETATM   12  N2  UNL     1      19.609  -0.040  53.183  1.00  0.00    -0.351 N 
HETATM   13  H7  UNL     1      19.403  -0.157  54.218  1.00  0.00     0.166 HD
BRANCH  12  14
HETATM   14  C7  UNL     1      18.650  -0.615  52.276  1.00  0.00     0.090 C 
HETATM   15  C8  UNL     1      17.405  -0.187  52.144  1.00  0.00     0.020 C 
BRANCH  15  16
HETATM   16  C9  UNL     1      16.371  -0.705  51.256  1.00  0.00     0.038 C 
HETATM   17  C10 UNL     1      16.405  -0.526  49.947  1.00  0.00     0.090 C 
HETATM   18  C11 UNL     1      15.281  -1.111  49.167  1.00  0.00     0.082 C 
HETATM   19  F1  UNL     1      17.451   0.169  49.438  1.00  0.00    -0.211 F 
ENDBRANCH  15  16
ENDBRANCH  12  14
ENDBRANCH   6  12
BRANCH  11  20
HETATM   20  C17 UNL     1      26.492   2.135  52.029  1.00  0.00     0.278 C 
BRANCH  20  21
HETATM   21  N3  UNL     1      27.499   1.075  52.140  1.00  0.00     0.092 N 
HETATM   22  C18 UNL     1      28.315   1.252  53.323  1.00  0.00     0.298 C 
HETATM   23  C19 UNL     1      27.616   0.549  54.467  1.00  0.00     0.198 C 
HETATM   24  O2  UNL     1      27.697  -0.829  54.308  1.00  0.00    -0.388 OA
HETATM   25  C20 UNL     1      27.571  -1.215  52.978  1.00  0.00     0.198 C 
HETATM   26  C21 UNL     1      26.800  -0.197  52.165  1.00  0.00     0.298 C 
ENDBRANCH  20  21
ENDBRANCH  11  20
BRANCH   1  27
HETATM   27  O1  UNL     1      22.495   4.134  51.604  1.00  0.00    -0.356 OA
HETATM   28  C1  UNL     1      22.818   5.508  51.616  1.00  0.00     0.210 C 
ENDBRANCH   1  27
TORSDOF 6
ENDMDL
MODEL 6
REMARK VINA RESULT:      -7.0      3.875      8.502
REMARK  6 active torsions:
REMARK  status: ('A' for Active; 'I' for Inactive)
REMARK    1  A    between atoms: O1_2  and  C2_3 
REMARK    2  A    between atoms: C6_8  and  N2_9 
REMARK    3  A    between atoms: N2_9  and  C7_10 
REMARK    4  A    between atoms: C8_11  and  C9_12 
REMARK    5  A    between atoms: C16_20  and  C17_21 
REMARK    6  A    between atoms: C17_21  and  N3_22 
ROOT
HETATM    1  C2  UNL     1      21.132   0.463  52.710  1.00  0.00     0.071 C 
HETATM    2  C3  UNL     1      20.305   1.175  53.444  1.00  0.00     0.021 C 
HETATM    3  C4  UNL     1      20.505   2.444  52.697  1.00  0.00     0.057 C 
HETATM    4  C5  UNL     1      21.985   2.603  52.490  1.00  0.00     0.101 C 
HETATM    5  N1  UNL     1      23.032   1.753  52.763  1.00  0.00    -0.247 NA
HETATM    6  C6  UNL     1      24.315   2.302  52.398  1.00  0.00     0.126 C 
HETATM    7  C12 UNL     1      24.048   2.026  51.098  1.00  0.00     0.051 C 
HETATM    8  C13 UNL     1      22.792   1.353  50.675  1.00  0.00     0.013 C 
HETATM    9  C14 UNL     1      21.827   0.845  51.446  1.00  0.00    -0.025 C 
HETATM   10  C15 UNL     1      20.486   0.928  50.757  1.00  0.00     0.049 C 
HETATM   11  C16 UNL     1      19.847   2.226  51.350  1.00  0.00     0.031 C 
ENDROOT
BRANCH   6  12
HETATM   12  N2  UNL     1      25.493   2.900  52.830  1.00  0.00    -0.351 N 
HETATM   13  H7  UNL     1      25.613   3.872  53.239  1.00  0.00     0.166 HD
BRANCH  12  14
HETATM   14  C7  UNL     1      26.690   2.109  52.711  1.00  0.00     0.090 C 
HETATM   15  C8  UNL     1      26.782   0.842  53.079  1.00  0.00     0.020 C 
BRANCH  15  16
HETATM   16  C9  UNL     1      27.946  -0.032  52.995  1.00  0.00     0.038 C 
HETATM   17  C10 UNL     1      28.797  -0.179  53.997  1.00  0.00     0.090 C 
HETATM   18  C11 UNL     1      29.939  -1.104  53.768  1.00  0.00     0.082 C 
HETATM   19  F1  UNL     1      28.552   0.521  55.132  1.00  0.00    -0.211 F 
ENDBRANCH  15  16
ENDBRANCH  12  14
ENDBRANCH   6  12
BRANCH  11  20
HETATM   20  C17 UNL     1      18.378   1.941  51.453  1.00  0.00     0.278 C 
BRANCH  20  21
HETATM   21  N3  UNL     1      17.799   2.333  50.164  1.00  0.00     0.092 N 
HETATM   22  C18 UNL     1      16.369   2.102  50.143  1.00  0.00     0.298 C 
HETATM   23  C19 UNL     1      15.699   3.343  50.692  1.00  0.00     0.198 C 
HETATM   24  O2  UNL     1      15.800   4.388  49.782  1.00  0.00    -0.388 OA
HETATM   25  C20 UNL     1      17.028   4.403  49.129  1.00  0.00     0.198 C 
HETATM   26  C21 UNL     1      18.111   3.735  49.948  1.00  0.00     0.298 C 
ENDBRANCH  20  21
ENDBRANCH  11  20
BRANCH   1  27
HETATM   27  O1  UNL     1      21.685  -0.807  52.741  1.00  0.00    -0.356 OA
HETATM   28  C1  UNL     1      21.758  -1.557  53.936  1.00  0.00     0.210 C 
ENDBRANCH   1  27
TORSDOF 6
ENDMDL
MODEL 7
REMARK VINA RESULT:      -7.0      3.610      6.102
REMARK  6 active torsions:
REMARK  status: ('A' for Active; 'I' for Inactive)
REMARK    1  A    between atoms: O1_2  and  C2_3 
REMARK    2  A    between atoms: C6_8  and  N2_9 
REMARK    3  A    between atoms: N2_9  and  C7_10 
REMARK    4  A    between atoms: C8_11  and  C9_12 
REMARK    5  A    between atoms: C16_20  and  C17_21 
REMARK    6  A    between atoms: C17_21  and  N3_22 
ROOT
HETATM    1  C2  UNL     1      22.445   2.809  51.461  1.00  0.00     0.071 C 
HETATM    2  C3  UNL     1      22.931   1.854  50.700  1.00  0.00     0.021 C 
HETATM    3  C4  UNL     1      24.282   2.455  50.556  1.00  0.00     0.057 C 
HETATM    4  C5  UNL     1      24.083   3.915  50.255  1.00  0.00     0.101 C 
HETATM    5  N1  UNL     1      22.942   4.685  50.231  1.00  0.00    -0.247 NA
HETATM    6  C6  UNL     1      23.200   6.064  49.894  1.00  0.00     0.126 C 
HETATM    7  C12 UNL     1      23.662   6.269  51.153  1.00  0.00     0.051 C 
HETATM    8  C13 UNL     1      23.666   5.194  52.179  1.00  0.00     0.013 C 
HETATM    9  C14 UNL     1      23.158   3.962  52.085  1.00  0.00    -0.025 C 
HETATM   10  C15 UNL     1      23.942   2.990  52.935  1.00  0.00     0.049 C 
HETATM   11  C16 UNL     1      24.928   2.325  51.920  1.00  0.00     0.031 C 
ENDROOT
BRANCH   6  12
HETATM   12  N2  UNL     1      23.151   7.055  48.922  1.00  0.00    -0.351 N 
HETATM   13  H7  UNL     1      23.647   7.994  48.930  1.00  0.00     0.166 HD
BRANCH  12  14
HETATM   14  C7  UNL     1      22.334   6.779  47.770  1.00  0.00     0.090 C 
HETATM   15  C8  UNL     1      22.440   5.688  47.029  1.00  0.00     0.020 C 
BRANCH  15  16
HETATM   16  C9  UNL     1      21.660   5.326  45.852  1.00  0.00     0.038 C 
HETATM   17  C10 UNL     1      21.620   4.092  45.378  1.00  0.00     0.090 C 
HETATM   18  C11 UNL     1      20.781   3.872  44.170  1.00  0.00     0.082 C 
HETATM   19  F1  UNL     1      22.342   3.149  46.030  1.00  0.00    -0.211 F 
ENDBRANCH  15  16
ENDBRANCH  12  14
ENDBRANCH   6  12
BRANCH  11  20
HETATM   20  C17 UNL     1      25.068   0.900  52.370  1.00  0.00     0.278 C 
BRANCH  20  21
HETATM   21  N3  UNL     1      26.497   0.586  52.277  1.00  0.00     0.092 N 
HETATM   22  C18 UNL     1      27.255   1.302  53.281  1.00  0.00     0.298 C 
HETATM   23  C19 UNL     1      27.268   0.454  54.534  1.00  0.00     0.198 C 
HETATM   24  O2  UNL     1      28.077  -0.661  54.354  1.00  0.00    -0.388 OA
HETATM   25  C20 UNL     1      27.972  -1.188  53.071  1.00  0.00     0.198 C 
HETATM   26  C21 UNL     1      26.644  -0.851  52.429  1.00  0.00     0.298 C 
ENDBRANCH  20  21
ENDBRANCH  11  20
BRANCH   1  27
HETATM   27  O1  UNL     1      21.212   3.168  51.984  1.00  0.00    -0.356 OA
HETATM   28  C1  UNL     1      20.374   2.227  52.620  1.00  0.00     0.210 C 
ENDBRANCH   1  27
TORSDOF 6
ENDMDL
MODEL 8
REMARK VINA RESULT:      -7.0      6.260      8.548
REMARK  6 active torsions:
REMARK  status: ('A' for Active; 'I' for Inactive)
REMARK    1  A    between atoms: O1_2  and  C2_3 
REMARK    2  A    between atoms: C6_8  and  N2_9 
REMARK    3  A    between atoms: N2_9  and  C7_10 
REMARK    4  A    between atoms: C8_11  and  C9_12 
REMARK    5  A    between atoms: C16_20  and  C17_21 
REMARK    6  A    between atoms: C17_21  and  N3_22 
ROOT
HETATM    1  C2  UNL     1      24.666   7.631  48.353  1.00  0.00     0.071 C 
HETATM    2  C3  UNL     1      24.685   8.795  48.963  1.00  0.00     0.021 C 
HETATM    3  C4  UNL     1      25.787   8.451  49.899  1.00  0.00     0.057 C 
HETATM    4  C5  UNL     1      25.486   7.085  50.448  1.00  0.00     0.101 C 
HETATM    5  N1  UNL     1      24.502   6.178  50.125  1.00  0.00    -0.247 NA
HETATM    6  C6  UNL     1      24.576   4.965  50.903  1.00  0.00     0.126 C 
HETATM    7  C12 UNL     1      25.614   4.553  50.134  1.00  0.00     0.051 C 
HETATM    8  C13 UNL     1      26.119   5.356  48.991  1.00  0.00     0.013 C 
HETATM    9  C14 UNL     1      25.615   6.487  48.490  1.00  0.00    -0.025 C 
HETATM   10  C15 UNL     1      26.705   7.348  47.898  1.00  0.00     0.049 C 
HETATM   11  C16 UNL     1      27.032   8.366  49.040  1.00  0.00     0.031 C 
ENDROOT
BRANCH   6  12
HETATM   12  N2  UNL     1      24.058   4.223  51.958  1.00  0.00    -0.351 N 
HETATM   13  H7  UNL     1      23.473   4.575  52.770  1.00  0.00     0.166 HD
BRANCH  12  14
HETATM   14  C7  UNL     1      24.347   2.813  51.947  1.00  0.00     0.090 C 
HETATM   15  C8  UNL     1      24.990   2.180  52.915  1.00  0.00     0.020 C 
BRANCH  15  16
HETATM   16  C9  UNL     1      25.325   0.763  52.988  1.00  0.00     0.038 C 
HETATM   17  C10 UNL     1      26.346   0.240  52.331  1.00  0.00     0.090 C 
HETATM   18  C11 UNL     1      26.566  -1.221  52.501  1.00  0.00     0.082 C 
HETATM   19  F1  UNL     1      27.091   1.075  51.567  1.00  0.00    -0.211 F 
ENDBRANCH  15  16
ENDBRANCH  12  14
ENDBRANCH   6  12
BRANCH  11  20
HETATM   20  C17 UNL     1      27.358   9.656  48.348  1.00  0.00     0.278 C 
BRANCH  20  21
HETATM   21  N3  UNL     1      28.331  10.341  49.205  1.00  0.00     0.092 N 
HETATM   22  C18 UNL     1      29.527   9.544  49.376  1.00  0.00     0.298 C 
HETATM   23  C19 UNL     1      30.466   9.881  48.239  1.00  0.00     0.198 C 
HETATM   24  O2  UNL     1      30.987  11.159  48.406  1.00  0.00    -0.388 OA
HETATM   25  C20 UNL     1      30.048  12.048  48.917  1.00  0.00     0.198 C 
HETATM   26  C21 UNL     1      28.633  11.623  48.595  1.00  0.00     0.298 C 
ENDBRANCH  20  21
ENDBRANCH  11  20
BRANCH   1  27
HETATM   27  O1  UNL     1      23.873   6.983  47.419  1.00  0.00    -0.356 OA
HETATM   28  C1  UNL     1      22.503   7.291  47.266  1.00  0.00     0.210 C 
ENDBRANCH   1  27
TORSDOF 6
ENDMDL
MODEL 9
REMARK VINA RESULT:      -6.9      4.194      8.834
REMARK  6 active torsions:
REMARK  status: ('A' for Active; 'I' for Inactive)
REMARK    1  A    between atoms: O1_2  and  C2_3 
REMARK    2  A    between atoms: C6_8  and  N2_9 
REMARK    3  A    between atoms: N2_9  and  C7_10 
REMARK    4  A    between atoms: C8_11  and  C9_12 
REMARK    5  A    between atoms: C16_20  and  C17_21 
REMARK    6  A    between atoms: C17_21  and  N3_22 
ROOT
HETATM    1  C2  UNL     1      22.432   1.137  52.210  1.00  0.00     0.071 C 
HETATM    2  C3  UNL     1      21.514   1.365  53.124  1.00  0.00     0.021 C 
HETATM    3  C4  UNL     1      20.626   2.166  52.242  1.00  0.00     0.057 C 
HETATM    4  C5  UNL     1      21.503   3.135  51.499  1.00  0.00     0.101 C 
HETATM    5  N1  UNL     1      22.872   3.261  51.451  1.00  0.00    -0.247 NA
HETATM    6  C6  UNL     1      23.310   4.338  50.598  1.00  0.00     0.126 C 
HETATM    7  C12 UNL     1      23.052   3.565  49.514  1.00  0.00     0.051 C 
HETATM    8  C13 UNL     1      22.559   2.169  49.638  1.00  0.00     0.013 C 
HETATM    9  C14 UNL     1      22.395   1.447  50.750  1.00  0.00    -0.025 C 
HETATM   10  C15 UNL     1      21.266   0.457  50.589  1.00  0.00     0.049 C 
HETATM   11  C16 UNL     1      20.046   1.178  51.251  1.00  0.00     0.031 C 
ENDROOT
BRANCH   6  12
HETATM   12  N2  UNL     1      23.804   5.635  50.517  1.00  0.00    -0.351 N 
HETATM   13  H7  UNL     1      23.268   6.540  50.653  1.00  0.00     0.166 HD
BRANCH  12  14
HETATM   14  C7  UNL     1      25.206   5.766  50.214  1.00  0.00     0.090 C 
HETATM   15  C8  UNL     1      25.680   6.080  49.020  1.00  0.00     0.020 C 
BRANCH  15  16
HETATM   16  C9  UNL     1      27.075   6.234  48.625  1.00  0.00     0.038 C 
HETATM   17  C10 UNL     1      27.897   5.205  48.506  1.00  0.00     0.090 C 
HETATM   18  C11 UNL     1      29.292   5.514  48.094  1.00  0.00     0.082 C 
HETATM   19  F1  UNL     1      27.397   3.973  48.770  1.00  0.00    -0.211 F 
ENDBRANCH  15  16
ENDBRANCH  12  14
ENDBRANCH   6  12
BRANCH  11  20
HETATM   20  C17 UNL     1      19.243   0.092  51.904  1.00  0.00     0.278 C 
BRANCH  20  21
HETATM   21  N3  UNL     1      18.006  -0.020  51.125  1.00  0.00     0.092 N 
HETATM   22  C18 UNL     1      17.139  -1.044  51.668  1.00  0.00     0.298 C 
HETATM   23  C19 UNL     1      16.276  -0.396  52.729  1.00  0.00     0.198 C 
HETATM   24  O2  UNL     1      15.338   0.444  52.141  1.00  0.00    -0.388 OA
HETATM   25  C20 UNL     1      15.856   1.129  51.047  1.00  0.00     0.198 C 
HETATM   26  C21 UNL     1      17.359   1.280  51.134  1.00  0.00     0.298 C 
ENDBRANCH  20  21
ENDBRANCH  11  20
BRANCH   1  27
HETATM   27  O1  UNL     1      23.699   0.580  52.156  1.00  0.00    -0.356 OA
HETATM   28  C1  UNL     1      24.498   0.438  53.311  1.00  0.00     0.210 C 
ENDBRANCH   1  27
TORSDOF 6
ENDMDL
