MODEL 1
REMARK VINA RESULT:      -8.6      0.000      0.000
REMARK  9 active torsions:
REMARK  status: ('A' for Active; 'I' for Inactive)
REMARK    1  A    between atoms: C4_6  and  C5_7 
REMARK    2  A    between atoms: C8_10  and  C9_11 
REMARK    3  A    between atoms: C9_11  and  C10_12 
REMARK    4  A    between atoms: C17_20  and  C18_21 
REMARK    5  A    between atoms: C18_21  and  C19_22 
REMARK    6  A    between atoms: C19_22  and  C20_23 
REMARK    7  A    between atoms: C20_23  and  C21_24 
REMARK    8  A    between atoms: C21_24  and  C22_25 
REMARK    9  A    between atoms: C22_25  and  N3_26 
ROOT
HETATM    1  C1  UNL     1      20.038  -1.271  54.130  1.00  0.00     0.072 C 
HETATM    2  C2  UNL     1      19.679  -0.565  52.893  1.00  0.00     0.053 A 
HETATM    3  N1  UNL     1      18.386  -0.580  52.536  1.00  0.00    -0.245 NA
HETATM    4  C3  UNL     1      18.027   0.054  51.412  1.00  0.00     0.234 A 
HETATM    5  N2  UNL     1      18.907   0.694  50.644  1.00  0.00    -0.240 NA
HETATM    6  C4  UNL     1      20.217   0.766  50.915  1.00  0.00     0.085 A 
HETATM    7  C17 UNL     1      20.566   0.110  52.071  1.00  0.00     0.071 A 
ENDROOT
BRANCH   6   8
HETATM    8  C5  UNL     1      21.155   1.469  50.056  1.00  0.00    -0.024 A 
HETATM    9  C6  UNL     1      21.822   1.326  48.943  1.00  0.00     0.010 A 
HETATM   10  C7  UNL     1      22.668   2.423  48.527  1.00  0.00     0.004 A 
HETATM   11  C8  UNL     1      22.507   3.326  49.473  1.00  0.00    -0.071 A 
HETATM   12  C16 UNL     1      21.582   2.831  50.475  1.00  0.00     0.075 A 
BRANCH  11  13
HETATM   13  C9  UNL     1      23.152   4.657  49.539  1.00  0.00     0.073 C 
BRANCH  13  14
HETATM   14  C10 UNL     1      24.638   4.557  49.361  1.00  0.00    -0.051 A 
HETATM   15  C11 UNL     1      25.395   3.458  49.758  1.00  0.00     0.007 A 
HETATM   16  C12 UNL     1      26.765   3.449  49.554  1.00  0.00     0.004 A 
HETATM   17  C13 UNL     1      27.398   4.540  48.949  1.00  0.00     0.042 A 
HETATM   18  C14 UNL     1      26.656   5.640  48.549  1.00  0.00     0.116 A 
HETATM   19  F1  UNL     1      27.209   6.737  47.952  1.00  0.00    -0.206 F 
HETATM   20  C15 UNL     1      25.282   5.642  48.758  1.00  0.00     0.049 A 
ENDBRANCH  13  14
ENDBRANCH  11  13
ENDBRANCH   6   8
BRANCH   7  21
HETATM   21  C18 UNL     1      21.919   0.058  52.535  1.00  0.00    -0.062 C 
BRANCH  21  22
HETATM   22  C19 UNL     1      23.056   0.022  52.946  1.00  0.00    -0.101 C 
BRANCH  22  23
HETATM   23  C20 UNL     1      24.429  -0.002  53.453  1.00  0.00     0.096 C 
BRANCH  23  24
HETATM   24  C21 UNL     1      25.261   0.897  52.534  1.00  0.00     0.042 C 
BRANCH  24  25
HETATM   25  C22 UNL     1      26.439   0.164  51.973  1.00  0.00     0.273 C 
BRANCH  25  26
HETATM   26  N3  UNL     1      27.644   0.758  52.483  1.00  0.00     0.092 N 
HETATM   27  C23 UNL     1      27.456   2.052  53.096  1.00  0.00     0.298 C 
HETATM   28  C24 UNL     1      28.795   2.431  53.738  1.00  0.00     0.198 C 
HETATM   29  O1  UNL     1      28.958   1.693  54.908  1.00  0.00    -0.388 OA
HETATM   30  C25 UNL     1      28.357   0.438  54.813  1.00  0.00     0.198 C 
HETATM   31  C26 UNL     1      28.394  -0.071  53.371  1.00  0.00     0.298 C 
ENDBRANCH  25  26
ENDBRANCH  24  25
ENDBRANCH  23  24
ENDBRANCH  22  23
ENDBRANCH  21  22
ENDBRANCH   7  21
TORSDOF 9
ENDMDL
MODEL 2
REMARK VINA RESULT:      -8.2      3.138      6.632
REMARK  9 active torsions:
REMARK  status: ('A' for Active; 'I' for Inactive)
REMARK    1  A    between atoms: C4_6  and  C5_7 
REMARK    2  A    between atoms: C8_10  and  C9_11 
REMARK    3  A    between atoms: C9_11  and  C10_12 
REMARK    4  A    between atoms: C17_20  and  C18_21 
REMARK    5  A    between atoms: C18_21  and  C19_22 
REMARK    6  A    between atoms: C19_22  and  C20_23 
REMARK    7  A    between atoms: C20_23  and  C21_24 
REMARK    8  A    between atoms: C21_24  and  C22_25 
REMARK    9  A    between atoms: C22_25  and  N3_26 
ROOT
HETATM    1  C1  UNL     1      27.532   2.236  52.422  1.00  0.00     0.072 C 
HETATM    2  C2  UNL     1      26.879   0.977  52.801  1.00  0.00     0.053 A 
HETATM    3  N1  UNL     1      27.649  -0.121  52.844  1.00  0.00    -0.245 NA
HETATM    4  C3  UNL     1      27.083  -1.286  53.186  1.00  0.00     0.234 A 
HETATM    5  N2  UNL     1      25.789  -1.388  53.482  1.00  0.00    -0.240 NA
HETATM    6  C4  UNL     1      24.938  -0.352  53.467  1.00  0.00     0.085 A 
HETATM    7  C17 UNL     1      25.538   0.833  53.115  1.00  0.00     0.071 A 
ENDROOT
BRANCH   6   8
HETATM    8  C5  UNL     1      23.529  -0.494  53.792  1.00  0.00    -0.024 A 
HETATM    9  C6  UNL     1      22.739  -0.814  54.781  1.00  0.00     0.010 A 
HETATM   10  C7  UNL     1      21.314  -0.784  54.531  1.00  0.00     0.004 A 
HETATM   11  C8  UNL     1      21.219  -0.411  53.271  1.00  0.00    -0.071 A 
HETATM   12  C16 UNL     1      22.543  -0.204  52.717  1.00  0.00     0.075 A 
BRANCH  11  13
HETATM   13  C9  UNL     1      19.968  -0.220  52.502  1.00  0.00     0.073 C 
BRANCH  13  14
HETATM   14  C10 UNL     1      19.957   1.101  51.790  1.00  0.00    -0.051 A 
HETATM   15  C11 UNL     1      19.971   2.332  52.438  1.00  0.00     0.007 A 
HETATM   16  C12 UNL     1      19.961   3.505  51.702  1.00  0.00     0.004 A 
HETATM   17  C13 UNL     1      19.937   3.462  50.304  1.00  0.00     0.042 A 
HETATM   18  C14 UNL     1      19.923   2.242  49.646  1.00  0.00     0.116 A 
HETATM   19  F1  UNL     1      19.901   2.128  48.285  1.00  0.00    -0.206 F 
HETATM   20  C15 UNL     1      19.933   1.071  50.392  1.00  0.00     0.049 A 
ENDBRANCH  13  14
ENDBRANCH  11  13
ENDBRANCH   6   8
BRANCH   7  21
HETATM   21  C18 UNL     1      24.803   2.058  53.031  1.00  0.00    -0.062 C 
BRANCH  21  22
HETATM   22  C19 UNL     1      24.182   3.093  52.939  1.00  0.00    -0.101 C 
BRANCH  22  23
HETATM   23  C20 UNL     1      23.411   4.332  52.831  1.00  0.00     0.096 C 
BRANCH  23  24
HETATM   24  C21 UNL     1      23.384   4.714  51.348  1.00  0.00     0.042 C 
BRANCH  24  25
HETATM   25  C22 UNL     1      24.114   5.997  51.101  1.00  0.00     0.273 C 
BRANCH  25  26
HETATM   26  N3  UNL     1      24.794   5.910  49.839  1.00  0.00     0.092 N 
HETATM   27  C23 UNL     1      25.997   6.706  49.754  1.00  0.00     0.298 C 
HETATM   28  C24 UNL     1      26.672   6.341  48.428  1.00  0.00     0.198 C 
HETATM   29  O1  UNL     1      27.282   5.095  48.561  1.00  0.00    -0.388 OA
HETATM   30  C25 UNL     1      26.583   4.272  49.443  1.00  0.00     0.198 C 
HETATM   31  C26 UNL     1      25.086   4.582  49.402  1.00  0.00     0.298 C 
ENDBRANCH  25  26
ENDBRANCH  24  25
ENDBRANCH  23  24
ENDBRANCH  22  23
ENDBRANCH  21  22
ENDBRANCH   7  21
TORSDOF 9
ENDMDL
MODEL 3
REMARK VINA RESULT:      -8.1      1.616      2.065
REMARK  9 active torsions:
REMARK  status: ('A' for Active; 'I' for Inactive)
REMARK    1  A    between atoms: C4_6  and  C5_7 
REMARK    2  A    between atoms: C8_10  and  C9_11 
REMARK    3  A    between atoms: C9_11  and  C10_12 
REMARK    4  A    between atoms: C17_20  and  C18_21 
REMARK    5  A    between atoms: C18_21  and  C19_22 
REMARK    6  A    between atoms: C19_22  and  C20_23 
REMARK    7  A    between atoms: C20_23  and  C21_24 
REMARK    8  A    between atoms: C21_24  and  C22_25 
REMARK    9  A    between atoms: C22_25  and  N3_26 
ROOT
HETATM    1  C1  UNL     1      21.223  -0.045  54.608  1.00  0.00     0.072 C 
HETATM    2  C2  UNL     1      20.585   0.079  53.291  1.00  0.00     0.053 A 
HETATM    3  N1  UNL     1      19.335  -0.393  53.172  1.00  0.00    -0.245 NA
HETATM    4  C3  UNL     1      18.725  -0.295  51.984  1.00  0.00     0.234 A 
HETATM    5  N2  UNL     1      19.317   0.250  50.923  1.00  0.00    -0.240 NA
HETATM    6  C4  UNL     1      20.562   0.748  50.940  1.00  0.00     0.085 A 
HETATM    7  C17 UNL     1      21.169   0.640  52.167  1.00  0.00     0.071 A 
ENDROOT
BRANCH   6   8
HETATM    8  C5  UNL     1      21.184   1.336  49.765  1.00  0.00    -0.024 A 
HETATM    9  C6  UNL     1      21.738   1.002  48.631  1.00  0.00     0.010 A 
HETATM   10  C7  UNL     1      22.219   2.072  47.784  1.00  0.00     0.004 A 
HETATM   11  C8  UNL     1      21.936   3.166  48.462  1.00  0.00    -0.071 A 
HETATM   12  C16 UNL     1      21.289   2.818  49.712  1.00  0.00     0.075 A 
BRANCH  11  13
HETATM   13  C9  UNL     1      22.219   4.558  48.043  1.00  0.00     0.073 C 
BRANCH  13  14
HETATM   14  C10 UNL     1      23.312   5.170  48.869  1.00  0.00    -0.051 A 
HETATM   15  C11 UNL     1      24.530   4.548  49.127  1.00  0.00     0.007 A 
HETATM   16  C12 UNL     1      25.485   5.187  49.900  1.00  0.00     0.004 A 
HETATM   17  C13 UNL     1      25.235   6.459  50.425  1.00  0.00     0.042 A 
HETATM   18  C14 UNL     1      24.026   7.089  50.175  1.00  0.00     0.116 A 
HETATM   19  F1  UNL     1      23.717   8.330  50.655  1.00  0.00    -0.206 F 
HETATM   20  C15 UNL     1      23.073   6.441  49.399  1.00  0.00     0.049 A 
ENDBRANCH  13  14
ENDBRANCH  11  13
ENDBRANCH   6   8
BRANCH   7  21
HETATM   21  C18 UNL     1      22.504   1.103  52.397  1.00  0.00    -0.062 C 
BRANCH  21  22
HETATM   22  C19 UNL     1      23.635   1.497  52.570  1.00  0.00    -0.101 C 
BRANCH  22  23
HETATM   23  C20 UNL     1      25.010   1.954  52.782  1.00  0.00     0.096 C 
BRANCH  23  24
HETATM   24  C21 UNL     1      25.889   0.702  52.860  1.00  0.00     0.042 C 
BRANCH  24  25
HETATM   25  C22 UNL     1      26.152   0.308  54.280  1.00  0.00     0.273 C 
BRANCH  25  26
HETATM   26  N3  UNL     1      27.401  -0.400  54.343  1.00  0.00     0.092 N 
HETATM   27  C23 UNL     1      27.822  -0.977  53.087  1.00  0.00     0.298 C 
HETATM   28  C24 UNL     1      29.240  -1.515  53.307  1.00  0.00     0.198 C 
HETATM   29  O1  UNL     1      30.130  -0.443  53.326  1.00  0.00    -0.388 OA
HETATM   30  C25 UNL     1      29.540   0.706  53.850  1.00  0.00     0.198 C 
HETATM   31  C26 UNL     1      28.486   0.344  54.898  1.00  0.00     0.298 C 
ENDBRANCH  25  26
ENDBRANCH  24  25
ENDBRANCH  23  24
ENDBRANCH  22  23
ENDBRANCH  21  22
ENDBRANCH   7  21
TORSDOF 9
ENDMDL
MODEL 4
REMARK VINA RESULT:      -8.0      2.949      5.711
REMARK  9 active torsions:
REMARK  status: ('A' for Active; 'I' for Inactive)
REMARK    1  A    between atoms: C4_6  and  C5_7 
REMARK    2  A    between atoms: C8_10  and  C9_11 
REMARK    3  A    between atoms: C9_11  and  C10_12 
REMARK    4  A    between atoms: C17_20  and  C18_21 
REMARK    5  A    between atoms: C18_21  and  C19_22 
REMARK    6  A    between atoms: C19_22  and  C20_23 
REMARK    7  A    between atoms: C20_23  and  C21_24 
REMARK    8  A    between atoms: C21_24  and  C22_25 
REMARK    9  A    between atoms: C22_25  and  N3_26 
ROOT
HETATM    1  C1  UNL     1      17.055   0.102  49.820  1.00  0.00     0.072 C 
HETATM    2  C2  UNL     1      17.728  -0.209  51.087  1.00  0.00     0.053 A 
HETATM    3  N1  UNL     1      17.009  -0.854  52.018  1.00  0.00    -0.245 NA
HETATM    4  C3  UNL     1      17.595  -1.152  53.185  1.00  0.00     0.234 A 
HETATM    5  N2  UNL     1      18.859  -0.828  53.450  1.00  0.00    -0.240 NA
HETATM    6  C4  UNL     1      19.658  -0.183  52.588  1.00  0.00     0.085 A 
HETATM    7  C17 UNL     1      19.040   0.112  51.397  1.00  0.00     0.071 A 
ENDROOT
BRANCH   6   8
HETATM    8  C5  UNL     1      21.034   0.160  52.905  1.00  0.00    -0.024 A 
HETATM    9  C6  UNL     1      21.929   1.086  52.688  1.00  0.00     0.010 A 
HETATM   10  C7  UNL     1      23.231   0.908  53.294  1.00  0.00     0.004 A 
HETATM   11  C8  UNL     1      23.127  -0.234  53.943  1.00  0.00    -0.071 A 
HETATM   12  C16 UNL     1      21.796  -0.782  53.767  1.00  0.00     0.075 A 
BRANCH  11  13
HETATM   13  C9  UNL     1      24.185  -0.889  54.745  1.00  0.00     0.073 C 
BRANCH  13  14
HETATM   14  C10 UNL     1      25.544  -0.672  54.146  1.00  0.00    -0.051 A 
HETATM   15  C11 UNL     1      25.885  -1.032  52.846  1.00  0.00     0.007 A 
HETATM   16  C12 UNL     1      27.164  -0.792  52.372  1.00  0.00     0.004 A 
HETATM   17  C13 UNL     1      28.121  -0.188  53.194  1.00  0.00     0.042 A 
HETATM   18  C14 UNL     1      27.794   0.176  54.490  1.00  0.00     0.116 A 
HETATM   19  F1  UNL     1      28.678   0.771  55.345  1.00  0.00    -0.206 F 
HETATM   20  C15 UNL     1      26.509  -0.068  54.958  1.00  0.00     0.049 A 
ENDBRANCH  13  14
ENDBRANCH  11  13
ENDBRANCH   6   8
BRANCH   7  21
HETATM   21  C18 UNL     1      19.715   0.806  50.344  1.00  0.00    -0.062 C 
BRANCH  21  22
HETATM   22  C19 UNL     1      20.303   1.382  49.456  1.00  0.00    -0.101 C 
BRANCH  22  23
HETATM   23  C20 UNL     1      21.028   2.061  48.380  1.00  0.00     0.096 C 
BRANCH  23  24
HETATM   24  C21 UNL     1      22.447   2.321  48.893  1.00  0.00     0.042 C 
BRANCH  24  25
HETATM   25  C22 UNL     1      23.001   3.597  48.340  1.00  0.00     0.273 C 
BRANCH  25  26
HETATM   26  N3  UNL     1      23.838   4.211  49.334  1.00  0.00     0.092 N 
HETATM   27  C23 UNL     1      23.748   5.652  49.379  1.00  0.00     0.298 C 
HETATM   28  C24 UNL     1      24.551   6.101  50.605  1.00  0.00     0.198 C 
HETATM   29  O1  UNL     1      23.808   5.833  51.753  1.00  0.00    -0.388 OA
HETATM   30  C25 UNL     1      23.012   4.698  51.597  1.00  0.00     0.198 C 
HETATM   31  C26 UNL     1      23.680   3.694  50.656  1.00  0.00     0.298 C 
ENDBRANCH  25  26
ENDBRANCH  24  25
ENDBRANCH  23  24
ENDBRANCH  22  23
ENDBRANCH  21  22
ENDBRANCH   7  21
TORSDOF 9
ENDMDL
MODEL 5
REMARK VINA RESULT:      -8.0      3.378      6.759
REMARK  9 active torsions:
REMARK  status: ('A' for Active; 'I' for Inactive)
REMARK    1  A    between atoms: C4_6  and  C5_7 
REMARK    2  A    between atoms: C8_10  and  C9_11 
REMARK    3  A    between atoms: C9_11  and  C10_12 
REMARK    4  A    between atoms: C17_20  and  C18_21 
REMARK    5  A    between atoms: C18_21  and  C19_22 
REMARK    6  A    between atoms: C19_22  and  C20_23 
REMARK    7  A    between atoms: C20_23  and  C21_24 
REMARK    8  A    between atoms: C21_24  and  C22_25 
REMARK    9  A    between atoms: C22_25  and  N3_26 
ROOT
HETATM    1  C1  UNL     1      20.572   5.948  49.445  1.00  0.00     0.072 C 
HETATM    2  C2  UNL     1      21.921   6.011  50.023  1.00  0.00     0.053 A 
HETATM    3  N1  UNL     1      22.375   7.222  50.379  1.00  0.00    -0.245 NA
HETATM    4  C3  UNL     1      23.602   7.313  50.909  1.00  0.00     0.234 A 
HETATM    5  N2  UNL     1      24.380   6.248  51.091  1.00  0.00    -0.240 NA
HETATM    6  C4  UNL     1      24.018   4.999  50.768  1.00  0.00     0.085 A 
HETATM    7  C17 UNL     1      22.757   4.925  50.227  1.00  0.00     0.071 A 
ENDROOT
BRANCH   6   8
HETATM    8  C5  UNL     1      24.889   3.854  50.975  1.00  0.00    -0.024 A 
HETATM    9  C6  UNL     1      25.891   3.224  50.425  1.00  0.00     0.010 A 
HETATM   10  C7  UNL     1      26.405   2.060  51.114  1.00  0.00     0.004 A 
HETATM   11  C8  UNL     1      25.647   1.965  52.187  1.00  0.00    -0.071 A 
HETATM   12  C16 UNL     1      24.669   3.036  52.198  1.00  0.00     0.075 A 
BRANCH  11  13
HETATM   13  C9  UNL     1      25.748   0.936  53.247  1.00  0.00     0.073 C 
BRANCH  13  14
HETATM   14  C10 UNL     1      27.140   0.384  53.348  1.00  0.00    -0.051 A 
HETATM   15  C11 UNL     1      28.251   1.144  53.701  1.00  0.00     0.007 A 
HETATM   16  C12 UNL     1      29.502   0.552  53.772  1.00  0.00     0.004 A 
HETATM   17  C13 UNL     1      29.657  -0.809  53.490  1.00  0.00     0.042 A 
HETATM   18  C14 UNL     1      28.559  -1.576  53.137  1.00  0.00     0.116 A 
HETATM   19  F1  UNL     1      28.639  -2.909  52.851  1.00  0.00    -0.206 F 
HETATM   20  C15 UNL     1      27.308  -0.975  53.068  1.00  0.00     0.049 A 
ENDBRANCH  13  14
ENDBRANCH  11  13
ENDBRANCH   6   8
BRANCH   7  21
HETATM   21  C18 UNL     1      22.183   3.684  49.806  1.00  0.00    -0.062 C 
BRANCH  21  22
HETATM   22  C19 UNL     1      21.711   2.624  49.462  1.00  0.00    -0.101 C 
BRANCH  22  23
HETATM   23  C20 UNL     1      21.149   1.332  49.064  1.00  0.00     0.096 C 
BRANCH  23  24
HETATM   24  C21 UNL     1      20.664   0.643  50.342  1.00  0.00     0.042 C 
BRANCH  24  25
HETATM   25  C22 UNL     1      21.764   0.523  51.349  1.00  0.00     0.273 C 
BRANCH  25  26
HETATM   26  N3  UNL     1      21.384  -0.445  52.342  1.00  0.00     0.092 N 
HETATM   27  C23 UNL     1      22.490  -0.997  53.088  1.00  0.00     0.298 C 
HETATM   28  C24 UNL     1      21.881  -1.850  54.206  1.00  0.00     0.198 C 
HETATM   29  O1  UNL     1      21.390  -1.005  55.200  1.00  0.00    -0.388 OA
HETATM   30  C25 UNL     1      20.931   0.200  54.669  1.00  0.00     0.198 C 
HETATM   31  C26 UNL     1      20.380  -0.005  53.257  1.00  0.00     0.298 C 
ENDBRANCH  25  26
ENDBRANCH  24  25
ENDBRANCH  23  24
ENDBRANCH  22  23
ENDBRANCH  21  22
ENDBRANCH   7  21
TORSDOF 9
ENDMDL
MODEL 6
REMARK VINA RESULT:      -8.0      3.094      6.091
REMARK  9 active torsions:
REMARK  status: ('A' for Active; 'I' for Inactive)
REMARK    1  A    between atoms: C4_6  and  C5_7 
REMARK    2  A    between atoms: C8_10  and  C9_11 
REMARK    3  A    between atoms: C9_11  and  C10_12 
REMARK    4  A    between atoms: C17_20  and  C18_21 
REMARK    5  A    between atoms: C18_21  and  C19_22 
REMARK    6  A    between atoms: C19_22  and  C20_23 
REMARK    7  A    between atoms: C20_23  and  C21_24 
REMARK    8  A    between atoms: C21_24  and  C22_25 
REMARK    9  A    between atoms: C22_25  and  N3_26 
ROOT
HETATM    1  C1  UNL     1      18.857   0.042  51.494  1.00  0.00     0.072 C 
HETATM    2  C2  UNL     1      20.036   0.072  52.369  1.00  0.00     0.053 A 
HETATM    3  N1  UNL     1      19.886  -0.407  53.613  1.00  0.00    -0.245 NA
HETATM    4  C3  UNL     1      20.943  -0.392  54.435  1.00  0.00     0.234 A 
HETATM    5  N2  UNL     1      22.130   0.079  54.060  1.00  0.00    -0.240 NA
HETATM    6  C4  UNL     1      22.381   0.578  52.841  1.00  0.00     0.085 A 
HETATM    7  C17 UNL     1      21.285   0.554  52.012  1.00  0.00     0.071 A 
ENDROOT
BRANCH   6   8
HETATM    8  C5  UNL     1      23.687   1.088  52.459  1.00  0.00    -0.024 A 
HETATM    9  C6  UNL     1      24.318   1.616  51.445  1.00  0.00     0.010 A 
HETATM   10  C7  UNL     1      25.711   1.960  51.634  1.00  0.00     0.004 A 
HETATM   11  C8  UNL     1      25.959   1.612  52.880  1.00  0.00    -0.071 A 
HETATM   12  C16 UNL     1      24.763   1.057  53.485  1.00  0.00     0.075 A 
BRANCH  11  13
HETATM   13  C9  UNL     1      27.250   1.751  53.592  1.00  0.00     0.073 C 
BRANCH  13  14
HETATM   14  C10 UNL     1      28.068   0.496  53.498  1.00  0.00    -0.051 A 
HETATM   15  C11 UNL     1      29.414   0.420  53.842  1.00  0.00     0.007 A 
HETATM   16  C12 UNL     1      30.093  -0.782  53.727  1.00  0.00     0.004 A 
HETATM   17  C13 UNL     1      29.433  -1.926  53.265  1.00  0.00     0.042 A 
HETATM   18  C14 UNL     1      28.093  -1.863  52.919  1.00  0.00     0.116 A 
HETATM   19  F1  UNL     1      27.388  -2.941  52.463  1.00  0.00    -0.206 F 
HETATM   20  C15 UNL     1      27.419  -0.654  53.037  1.00  0.00     0.049 A 
ENDBRANCH  13  14
ENDBRANCH  11  13
ENDBRANCH   6   8
BRANCH   7  21
HETATM   21  C18 UNL     1      21.338   1.049  50.671  1.00  0.00    -0.062 C 
BRANCH  21  22
HETATM   22  C19 UNL     1      21.379   1.487  49.543  1.00  0.00    -0.101 C 
BRANCH  22  23
HETATM   23  C20 UNL     1      21.450   2.020  48.182  1.00  0.00     0.096 C 
BRANCH  23  24
HETATM   24  C21 UNL     1      22.731   2.855  48.096  1.00  0.00     0.042 C 
BRANCH  24  25
HETATM   25  C22 UNL     1      22.597   4.139  48.853  1.00  0.00     0.273 C 
BRANCH  25  26
HETATM   26  N3  UNL     1      23.788   4.919  48.661  1.00  0.00     0.092 N 
HETATM   27  C23 UNL     1      23.552   6.250  48.150  1.00  0.00     0.298 C 
HETATM   28  C24 UNL     1      24.899   6.980  48.193  1.00  0.00     0.198 C 
HETATM   29  O1  UNL     1      25.178   7.333  49.512  1.00  0.00    -0.388 OA
HETATM   30  C25 UNL     1      24.657   6.407  50.414  1.00  0.00     0.198 C 
HETATM   31  C26 UNL     1      24.643   5.004  49.802  1.00  0.00     0.298 C 
ENDBRANCH  25  26
ENDBRANCH  24  25
ENDBRANCH  23  24
ENDBRANCH  22  23
ENDBRANCH  21  22
ENDBRANCH   7  21
TORSDOF 9
ENDMDL
MODEL 7
REMARK VINA RESULT:      -7.9      1.396      2.077
REMARK  9 active torsions:
REMARK  status: ('A' for Active; 'I' for Inactive)
REMARK    1  A    between atoms: C4_6  and  C5_7 
REMARK    2  A    between atoms: C8_10  and  C9_11 
REMARK    3  A    between atoms: C9_11  and  C10_12 
REMARK    4  A    between atoms: C17_20  and  C18_21 
REMARK    5  A    between atoms: C18_21  and  C19_22 
REMARK    6  A    between atoms: C19_22  and  C20_23 
REMARK    7  A    between atoms: C20_23  and  C21_24 
REMARK    8  A    between atoms: C21_24  and  C22_25 
REMARK    9  A    between atoms: C22_25  and  N3_26 
ROOT
HETATM    1  C1  UNL     1      19.122  -0.730  52.977  1.00  0.00     0.072 C 
HETATM    2  C2  UNL     1      19.473   0.501  52.256  1.00  0.00     0.053 A 
HETATM    3  N1  UNL     1      18.497   1.096  51.555  1.00  0.00    -0.245 NA
HETATM    4  C3  UNL     1      18.784   2.220  50.886  1.00  0.00     0.234 A 
HETATM    5  N2  UNL     1      20.001   2.762  50.895  1.00  0.00    -0.240 NA
HETATM    6  C4  UNL     1      21.041   2.244  51.564  1.00  0.00     0.085 A 
HETATM    7  C17 UNL     1      20.726   1.092  52.243  1.00  0.00     0.071 A 
ENDROOT
BRANCH   6   8
HETATM    8  C5  UNL     1      22.359   2.855  51.553  1.00  0.00    -0.024 A 
HETATM    9  C6  UNL     1      23.092   3.707  52.217  1.00  0.00     0.010 A 
HETATM   10  C7  UNL     1      24.430   3.960  51.727  1.00  0.00     0.004 A 
HETATM   11  C8  UNL     1      24.528   3.191  50.661  1.00  0.00    -0.071 A 
HETATM   12  C16 UNL     1      23.291   2.460  50.464  1.00  0.00     0.075 A 
BRANCH  11  13
HETATM   13  C9  UNL     1      25.707   3.064  49.773  1.00  0.00     0.073 C 
BRANCH  13  14
HETATM   14  C10 UNL     1      26.112   4.392  49.204  1.00  0.00    -0.051 A 
HETATM   15  C11 UNL     1      27.424   4.734  48.890  1.00  0.00     0.007 A 
HETATM   16  C12 UNL     1      27.709   5.984  48.365  1.00  0.00     0.004 A 
HETATM   17  C13 UNL     1      26.683   6.909  48.145  1.00  0.00     0.042 A 
HETATM   18  C14 UNL     1      25.372   6.581  48.453  1.00  0.00     0.116 A 
HETATM   19  F1  UNL     1      24.323   7.435  48.262  1.00  0.00    -0.206 F 
HETATM   20  C15 UNL     1      25.095   5.326  48.980  1.00  0.00     0.049 A 
ENDBRANCH  13  14
ENDBRANCH  11  13
ENDBRANCH   6   8
BRANCH   7  21
HETATM   21  C18 UNL     1      21.696   0.376  53.013  1.00  0.00    -0.062 C 
BRANCH  21  22
HETATM   22  C19 UNL     1      22.519  -0.214  53.677  1.00  0.00    -0.101 C 
BRANCH  22  23
HETATM   23  C20 UNL     1      23.497  -0.939  54.489  1.00  0.00     0.096 C 
BRANCH  23  24
HETATM   24  C21 UNL     1      24.863  -0.742  53.824  1.00  0.00     0.042 C 
BRANCH  24  25
HETATM   25  C22 UNL     1      25.195   0.709  53.677  1.00  0.00     0.273 C 
BRANCH  25  26
HETATM   26  N3  UNL     1      26.579   0.836  53.312  1.00  0.00     0.092 N 
HETATM   27  C23 UNL     1      27.174   2.103  53.667  1.00  0.00     0.298 C 
HETATM   28  C24 UNL     1      28.674   1.979  53.376  1.00  0.00     0.198 C 
HETATM   29  O1  UNL     1      29.264   1.210  54.377  1.00  0.00    -0.388 OA
HETATM   30  C25 UNL     1      28.386   0.246  54.870  1.00  0.00     0.198 C 
HETATM   31  C26 UNL     1      27.422  -0.219  53.776  1.00  0.00     0.298 C 
ENDBRANCH  25  26
ENDBRANCH  24  25
ENDBRANCH  23  24
ENDBRANCH  22  23
ENDBRANCH  21  22
ENDBRANCH   7  21
TORSDOF 9
ENDMDL
MODEL 8
REMARK VINA RESULT:      -7.8      2.998      5.819
REMARK  9 active torsions:
REMARK  status: ('A' for Active; 'I' for Inactive)
REMARK    1  A    between atoms: C4_6  and  C5_7 
REMARK    2  A    between atoms: C8_10  and  C9_11 
REMARK    3  A    between atoms: C9_11  and  C10_12 
REMARK    4  A    between atoms: C17_20  and  C18_21 
REMARK    5  A    between atoms: C18_21  and  C19_22 
REMARK    6  A    between atoms: C19_22  and  C20_23 
REMARK    7  A    between atoms: C20_23  and  C21_24 
REMARK    8  A    between atoms: C21_24  and  C22_25 
REMARK    9  A    between atoms: C22_25  and  N3_26 
ROOT
HETATM    1  C1  UNL     1      18.233  -0.161  51.541  1.00  0.00     0.072 C 
HETATM    2  C2  UNL     1      19.447  -0.100  52.366  1.00  0.00     0.053 A 
HETATM    3  N1  UNL     1      19.493  -0.898  53.443  1.00  0.00    -0.245 NA
HETATM    4  C3  UNL     1      20.586  -0.865  54.216  1.00  0.00     0.234 A 
HETATM    5  N2  UNL     1      21.621  -0.070  53.953  1.00  0.00    -0.240 NA
HETATM    6  C4  UNL     1      21.670   0.763  52.903  1.00  0.00     0.085 A 
HETATM    7  C17 UNL     1      20.541   0.714  52.122  1.00  0.00     0.071 A 
ENDROOT
BRANCH   6   8
HETATM    8  C5  UNL     1      22.812   1.623  52.641  1.00  0.00    -0.024 A 
HETATM    9  C6  UNL     1      23.190   2.869  52.728  1.00  0.00     0.010 A 
HETATM   10  C7  UNL     1      24.534   3.190  52.296  1.00  0.00     0.004 A 
HETATM   11  C8  UNL     1      25.028   2.032  51.907  1.00  0.00    -0.071 A 
HETATM   12  C16 UNL     1      24.035   0.988  52.081  1.00  0.00     0.075 A 
BRANCH  11  13
HETATM   13  C9  UNL     1      26.386   1.791  51.370  1.00  0.00     0.073 C 
BRANCH  13  14
HETATM   14  C10 UNL     1      27.284   1.174  52.401  1.00  0.00    -0.051 A 
HETATM   15  C11 UNL     1      27.329  -0.190  52.675  1.00  0.00     0.007 A 
HETATM   16  C12 UNL     1      28.192  -0.676  53.644  1.00  0.00     0.004 A 
HETATM   17  C13 UNL     1      29.022   0.198  54.354  1.00  0.00     0.042 A 
HETATM   18  C14 UNL     1      28.986   1.558  54.091  1.00  0.00     0.116 A 
HETATM   19  F1  UNL     1      29.770   2.466  54.745  1.00  0.00    -0.206 F 
HETATM   20  C15 UNL     1      28.119   2.037  53.118  1.00  0.00     0.049 A 
ENDBRANCH  13  14
ENDBRANCH  11  13
ENDBRANCH   6   8
BRANCH   7  21
HETATM   21  C18 UNL     1      20.388   1.532  50.958  1.00  0.00    -0.062 C 
BRANCH  21  22
HETATM   22  C19 UNL     1      20.243   2.211  49.967  1.00  0.00    -0.101 C 
BRANCH  22  23
HETATM   23  C20 UNL     1      20.045   3.033  48.772  1.00  0.00     0.096 C 
BRANCH  23  24
HETATM   24  C21 UNL     1      20.438   4.466  49.145  1.00  0.00     0.042 C 
BRANCH  24  25
HETATM   25  C22 UNL     1      21.857   4.757  48.770  1.00  0.00     0.273 C 
BRANCH  25  26
HETATM   26  N3  UNL     1      22.535   5.313  49.908  1.00  0.00     0.092 N 
HETATM   27  C23 UNL     1      23.825   5.889  49.610  1.00  0.00     0.298 C 
HETATM   28  C24 UNL     1      24.299   6.588  50.890  1.00  0.00     0.198 C 
HETATM   29  O1  UNL     1      23.593   7.780  51.039  1.00  0.00    -0.388 OA
HETATM   30  C25 UNL     1      22.301   7.682  50.523  1.00  0.00     0.198 C 
HETATM   31  C26 UNL     1      21.770   6.254  50.663  1.00  0.00     0.298 C 
ENDBRANCH  25  26
ENDBRANCH  24  25
ENDBRANCH  23  24
ENDBRANCH  22  23
ENDBRANCH  21  22
ENDBRANCH   7  21
TORSDOF 9
ENDMDL
MODEL 9
REMARK VINA RESULT:      -7.8      1.404      2.133
REMARK  9 active torsions:
REMARK  status: ('A' for Active; 'I' for Inactive)
REMARK    1  A    between atoms: C4_6  and  C5_7 
REMARK    2  A    between atoms: C8_10  and  C9_11 
REMARK    3  A    between atoms: C9_11  and  C10_12 
REMARK    4  A    between atoms: C17_20  and  C18_21 
REMARK    5  A    between atoms: C18_21  and  C19_22 
REMARK    6  A    between atoms: C19_22  and  C20_23 
REMARK    7  A    between atoms: C20_23  and  C21_24 
REMARK    8  A    between atoms: C21_24  and  C22_25 
REMARK    9  A    between atoms: C22_25  and  N3_26 
ROOT
HETATM    1  C1  UNL     1      21.157  -1.032  54.696  1.00  0.00     0.072 C 
HETATM    2  C2  UNL     1      20.168  -0.800  53.635  1.00  0.00     0.053 A 
HETATM    3  N1  UNL     1      19.015  -1.480  53.718  1.00  0.00    -0.245 NA
HETATM    4  C3  UNL     1      18.092  -1.291  52.765  1.00  0.00     0.234 A 
HETATM    5  N2  UNL     1      18.283  -0.457  51.745  1.00  0.00    -0.240 NA
HETATM    6  C4  UNL     1      19.399   0.266  51.574  1.00  0.00     0.085 A 
HETATM    7  C17 UNL     1      20.332   0.059  52.561  1.00  0.00     0.071 A 
ENDROOT
BRANCH   6   8
HETATM    8  C5  UNL     1      19.581   1.168  50.449  1.00  0.00    -0.024 A 
HETATM    9  C6  UNL     1      18.963   2.107  49.787  1.00  0.00     0.010 A 
HETATM   10  C7  UNL     1      19.664   2.708  48.672  1.00  0.00     0.004 A 
HETATM   11  C8  UNL     1      20.821   2.078  48.647  1.00  0.00    -0.071 A 
HETATM   12  C16 UNL     1      20.872   1.097  49.714  1.00  0.00     0.075 A 
BRANCH  11  13
HETATM   13  C9  UNL     1      21.928   2.310  47.691  1.00  0.00     0.073 C 
BRANCH  13  14
HETATM   14  C10 UNL     1      22.833   3.413  48.155  1.00  0.00    -0.051 A 
HETATM   15  C11 UNL     1      22.686   4.746  47.781  1.00  0.00     0.007 A 
HETATM   16  C12 UNL     1      23.567   5.702  48.259  1.00  0.00     0.004 A 
HETATM   17  C13 UNL     1      24.609   5.338  49.118  1.00  0.00     0.042 A 
HETATM   18  C14 UNL     1      24.767   4.014  49.497  1.00  0.00     0.116 A 
HETATM   19  F1  UNL     1      25.760   3.590  50.333  1.00  0.00    -0.206 F 
HETATM   20  C15 UNL     1      23.879   3.062  49.014  1.00  0.00     0.049 A 
ENDBRANCH  13  14
ENDBRANCH  11  13
ENDBRANCH   6   8
BRANCH   7  21
HETATM   21  C18 UNL     1      21.598   0.728  52.561  1.00  0.00    -0.062 C 
BRANCH  21  22
HETATM   22  C19 UNL     1      22.671   1.287  52.541  1.00  0.00    -0.101 C 
BRANCH  22  23
HETATM   23  C20 UNL     1      23.978   1.944  52.513  1.00  0.00     0.096 C 
BRANCH  23  24
HETATM   24  C21 UNL     1      24.954   1.030  53.260  1.00  0.00     0.042 C 
BRANCH  24  25
HETATM   25  C22 UNL     1      25.921   0.381  52.320  1.00  0.00     0.273 C 
BRANCH  25  26
HETATM   26  N3  UNL     1      27.252   0.810  52.652  1.00  0.00     0.092 N 
HETATM   27  C23 UNL     1      27.310   2.053  53.386  1.00  0.00     0.298 C 
HETATM   28  C24 UNL     1      28.772   2.244  53.807  1.00  0.00     0.198 C 
HETATM   29  O1  UNL     1      29.050   1.387  54.870  1.00  0.00    -0.388 OA
HETATM   30  C25 UNL     1      28.310   0.208  54.786  1.00  0.00     0.198 C 
HETATM   31  C26 UNL     1      28.048  -0.165  53.326  1.00  0.00     0.298 C 
ENDBRANCH  25  26
ENDBRANCH  24  25
ENDBRANCH  23  24
ENDBRANCH  22  23
ENDBRANCH  21  22
ENDBRANCH   7  21
TORSDOF 9
ENDMDL
