MODEL 1
REMARK VINA RESULT:      -7.2      0.000      0.000
REMARK  8 active torsions:
REMARK  status: ('A' for Active; 'I' for Inactive)
REMARK    1  A    between atoms: C2_2  and  C3_3 
REMARK    2  A    between atoms: C2_2  and  C7_9 
REMARK    3  A    between atoms: C3_3  and  C4_4 
REMARK    4  A    between atoms: C4_4  and  N1_5 
REMARK    5  A    between atoms: N1_5  and  C6_7 
REMARK    6  A    between atoms: C10_12  and  O2_13 
REMARK    7  A    between atoms: O2_13  and  C11_14 
REMARK    8  A    between atoms: C11_14  and  C12_15 
ROOT
HETATM    1  C7  UNL     1      23.273  -0.424  53.795  1.00  0.00    -0.034 A 
HETATM    2  C8  UNL     1      22.821   0.207  52.653  1.00  0.00     0.014 A 
HETATM    3  C9  UNL     1      21.435   0.247  52.422  1.00  0.00     0.037 A 
HETATM    4  C10 UNL     1      20.520  -0.334  53.315  1.00  0.00     0.068 A 
HETATM    5  C17 UNL     1      21.096  -0.926  54.401  1.00  0.00     0.037 A 
HETATM    6  C18 UNL     1      22.429  -1.010  54.707  1.00  0.00     0.014 A 
ENDROOT
BRANCH   1   7
HETATM    7  C2  UNL     1      24.701  -0.516  54.123  1.00  0.00    -0.068 C 
HETATM    8  C1  UNL     1      25.204  -0.994  55.249  1.00  0.00     0.039 C 
BRANCH   7   9
HETATM    9  C3  UNL     1      25.775  -0.058  53.174  1.00  0.00     0.055 C 
BRANCH   9  10
HETATM   10  C4  UNL     1      26.401   1.141  53.827  1.00  0.00     0.129 C 
BRANCH  10  11
HETATM   11  N1  UNL     1      27.823   1.102  53.952  1.00  0.00    -0.363 N 
HETATM   12  C5  UNL     1      28.735   0.068  54.368  1.00  0.00     0.152 C 
BRANCH  11  13
HETATM   13  C6  UNL     1      28.595   2.255  53.627  1.00  0.00     0.350 C 
HETATM   14  O1  UNL     1      29.249   2.387  54.695  1.00  0.00    -0.284 OA
ENDBRANCH  11  13
ENDBRANCH  10  11
ENDBRANCH   9  10
ENDBRANCH   7   9
ENDBRANCH   1   7
BRANCH   4  15
HETATM   15  O2  UNL     1      19.317  -0.123  52.806  1.00  0.00    -0.350 OA
BRANCH  15  16
HETATM   16  C11 UNL     1      18.264  -0.741  52.234  1.00  0.00     0.188 C 
BRANCH  16  17
HETATM   17  C12 UNL     1      17.369  -1.460  53.177  1.00  0.00     0.055 A 
HETATM   18  C13 UNL     1      17.834  -2.716  53.750  1.00  0.00    -0.016 A 
HETATM   19  C14 UNL     1      17.003  -3.730  53.454  1.00  0.00    -0.004 A 
HETATM   20  C15 UNL     1      15.887  -3.209  52.635  1.00  0.00    -0.004 A 
HETATM   21  C16 UNL     1      16.105  -1.912  52.483  1.00  0.00    -0.016 A 
ENDBRANCH  16  17
ENDBRANCH  15  16
ENDBRANCH   4  15
TORSDOF 8
ENDMDL
MODEL 2
REMARK VINA RESULT:      -7.1      4.411      8.090
REMARK  8 active torsions:
REMARK  status: ('A' for Active; 'I' for Inactive)
REMARK    1  A    between atoms: C2_2  and  C3_3 
REMARK    2  A    between atoms: C2_2  and  C7_9 
REMARK    3  A    between atoms: C3_3  and  C4_4 
REMARK    4  A    between atoms: C4_4  and  N1_5 
REMARK    5  A    between atoms: N1_5  and  C6_7 
REMARK    6  A    between atoms: C10_12  and  O2_13 
REMARK    7  A    between atoms: O2_13  and  C11_14 
REMARK    8  A    between atoms: C11_14  and  C12_15 
ROOT
HETATM    1  C7  UNL     1      24.799   1.402  52.530  1.00  0.00    -0.034 A 
HETATM    2  C8  UNL     1      25.487   1.516  51.338  1.00  0.00     0.014 A 
HETATM    3  C9  UNL     1      25.416   2.736  50.645  1.00  0.00     0.037 A 
HETATM    4  C10 UNL     1      24.673   3.822  51.134  1.00  0.00     0.068 A 
HETATM    5  C17 UNL     1      24.040   3.579  52.318  1.00  0.00     0.037 A 
HETATM    6  C18 UNL     1      24.054   2.428  53.061  1.00  0.00     0.014 A 
ENDROOT
BRANCH   1   7
HETATM    7  C2  UNL     1      24.813   0.169  53.326  1.00  0.00    -0.068 C 
HETATM    8  C1  UNL     1      23.758  -0.397  53.888  1.00  0.00     0.039 C 
BRANCH   7   9
HETATM    9  C3  UNL     1      26.077  -0.601  53.592  1.00  0.00     0.055 C 
BRANCH   9  10
HETATM   10  C4  UNL     1      26.916   0.294  54.459  1.00  0.00     0.129 C 
BRANCH  10  11
HETATM   11  N1  UNL     1      28.212   0.609  53.948  1.00  0.00    -0.363 N 
HETATM   12  C5  UNL     1      29.435  -0.148  53.862  1.00  0.00     0.152 C 
BRANCH  11  13
HETATM   13  C6  UNL     1      28.459   1.896  53.387  1.00  0.00     0.350 C 
HETATM   14  O1  UNL     1      28.813   2.519  54.422  1.00  0.00    -0.284 OA
ENDBRANCH  11  13
ENDBRANCH  10  11
ENDBRANCH   9  10
ENDBRANCH   7   9
ENDBRANCH   1   7
BRANCH   4  15
HETATM   15  O2  UNL     1      24.814   4.798  50.252  1.00  0.00    -0.350 OA
BRANCH  15  16
HETATM   16  C11 UNL     1      25.592   5.850  49.923  1.00  0.00     0.188 C 
BRANCH  16  17
HETATM   17  C12 UNL     1      26.362   5.692  48.662  1.00  0.00     0.055 A 
HETATM   18  C13 UNL     1      27.537   4.832  48.673  1.00  0.00    -0.016 A 
HETATM   19  C14 UNL     1      28.644   5.506  48.318  1.00  0.00    -0.004 A 
HETATM   20  C15 UNL     1      28.277   6.911  48.035  1.00  0.00    -0.004 A 
HETATM   21  C16 UNL     1      26.972   7.007  48.234  1.00  0.00    -0.016 A 
ENDBRANCH  16  17
ENDBRANCH  15  16
ENDBRANCH   4  15
TORSDOF 8
ENDMDL
MODEL 3
REMARK VINA RESULT:      -6.8      6.249      8.742
REMARK  8 active torsions:
REMARK  status: ('A' for Active; 'I' for Inactive)
REMARK    1  A    between atoms: C2_2  and  C3_3 
REMARK    2  A    between atoms: C2_2  and  C7_9 
REMARK    3  A    between atoms: C3_3  and  C4_4 
REMARK    4  A    between atoms: C4_4  and  N1_5 
REMARK    5  A    between atoms: N1_5  and  C6_7 
REMARK    6  A    between atoms: C10_12  and  O2_13 
REMARK    7  A    between atoms: O2_13  and  C11_14 
REMARK    8  A    between atoms: C11_14  and  C12_15 
ROOT
HETATM    1  C7  UNL     1      26.989   5.373  48.710  1.00  0.00    -0.034 A 
HETATM    2  C8  UNL     1      25.753   5.986  48.771  1.00  0.00     0.014 A 
HETATM    3  C9  UNL     1      24.669   5.244  49.269  1.00  0.00     0.037 A 
HETATM    4  C10 UNL     1      24.816   3.915  49.697  1.00  0.00     0.068 A 
HETATM    5  C17 UNL     1      26.085   3.428  49.583  1.00  0.00     0.037 A 
HETATM    6  C18 UNL     1      27.198   4.075  49.114  1.00  0.00     0.014 A 
ENDROOT
BRANCH   1   7
HETATM    7  C2  UNL     1      28.181   6.065  48.207  1.00  0.00    -0.068 C 
HETATM    8  C1  UNL     1      29.409   5.572  48.189  1.00  0.00     0.039 C 
BRANCH   7   9
HETATM    9  C3  UNL     1      28.122   7.457  47.640  1.00  0.00     0.055 C 
BRANCH   9  10
HETATM   10  C4  UNL     1      28.925   8.308  48.584  1.00  0.00     0.129 C 
BRANCH  10  11
HETATM   11  N1  UNL     1      28.214   9.383  49.199  1.00  0.00    -0.363 N 
HETATM   12  C5  UNL     1      28.250  10.810  49.004  1.00  0.00     0.152 C 
BRANCH  11  13
HETATM   13  C6  UNL     1      27.257   9.109  50.218  1.00  0.00     0.350 C 
HETATM   14  O1  UNL     1      26.464  10.069  50.035  1.00  0.00    -0.284 OA
ENDBRANCH  11  13
ENDBRANCH  10  11
ENDBRANCH   9  10
ENDBRANCH   7   9
ENDBRANCH   1   7
BRANCH   4  15
HETATM   15  O2  UNL     1      23.619   3.517  50.097  1.00  0.00    -0.350 OA
BRANCH  15  16
HETATM   16  C11 UNL     1      22.750   3.580  51.126  1.00  0.00     0.188 C 
BRANCH  16  17
HETATM   17  C12 UNL     1      23.098   2.732  52.296  1.00  0.00     0.055 A 
HETATM   18  C13 UNL     1      24.234   3.124  53.120  1.00  0.00    -0.016 A 
HETATM   19  C14 UNL     1      25.168   2.158  53.162  1.00  0.00    -0.004 A 
HETATM   20  C15 UNL     1      24.709   1.014  52.343  1.00  0.00    -0.004 A 
HETATM   21  C16 UNL     1      23.526   1.352  51.854  1.00  0.00    -0.016 A 
ENDBRANCH  16  17
ENDBRANCH  15  16
ENDBRANCH   4  15
TORSDOF 8
ENDMDL
MODEL 4
REMARK VINA RESULT:      -6.8      5.258      8.172
REMARK  8 active torsions:
REMARK  status: ('A' for Active; 'I' for Inactive)
REMARK    1  A    between atoms: C2_2  and  C3_3 
REMARK    2  A    between atoms: C2_2  and  C7_9 
REMARK    3  A    between atoms: C3_3  and  C4_4 
REMARK    4  A    between atoms: C4_4  and  N1_5 
REMARK    5  A    between atoms: N1_5  and  C6_7 
REMARK    6  A    between atoms: C10_12  and  O2_13 
REMARK    7  A    between atoms: O2_13  and  C11_14 
REMARK    8  A    between atoms: C11_14  and  C12_15 
ROOT
HETATM    1  C7  UNL     1      25.989   3.838  49.868  1.00  0.00    -0.034 A 
HETATM    2  C8  UNL     1      26.808   3.017  50.618  1.00  0.00     0.014 A 
HETATM    3  C9  UNL     1      26.208   1.996  51.375  1.00  0.00     0.037 A 
HETATM    4  C10 UNL     1      24.818   1.801  51.385  1.00  0.00     0.068 A 
HETATM    5  C17 UNL     1      24.124   2.680  50.605  1.00  0.00     0.037 A 
HETATM    6  C18 UNL     1      24.622   3.699  49.835  1.00  0.00     0.014 A 
ENDROOT
BRANCH   1   7
HETATM    7  C2  UNL     1      26.521   4.930  49.044  1.00  0.00    -0.068 C 
HETATM    8  C1  UNL     1      27.758   5.016  48.584  1.00  0.00     0.039 C 
BRANCH   7   9
HETATM    9  C3  UNL     1      25.679   6.105  48.626  1.00  0.00     0.055 C 
BRANCH   9  10
HETATM   10  C4  UNL     1      26.645   7.237  48.423  1.00  0.00     0.129 C 
BRANCH  10  11
HETATM   11  N1  UNL     1      26.513   8.331  49.332  1.00  0.00    -0.363 N 
HETATM   12  C5  UNL     1      25.372   8.919  49.986  1.00  0.00     0.152 C 
BRANCH  11  13
HETATM   13  C6  UNL     1      27.670   9.054  49.744  1.00  0.00     0.350 C 
HETATM   14  O1  UNL     1      27.134   9.912  50.494  1.00  0.00    -0.284 OA
ENDBRANCH  11  13
ENDBRANCH  10  11
ENDBRANCH   9  10
ENDBRANCH   7   9
ENDBRANCH   1   7
BRANCH   4  15
HETATM   15  O2  UNL     1      24.590   0.776  52.189  1.00  0.00    -0.350 OA
BRANCH  15  16
HETATM   16  C11 UNL     1      24.404   0.439  53.482  1.00  0.00     0.188 C 
BRANCH  16  17
HETATM   17  C12 UNL     1      25.487  -0.387  54.078  1.00  0.00     0.055 A 
HETATM   18  C13 UNL     1      26.622   0.296  54.684  1.00  0.00    -0.016 A 
HETATM   19  C14 UNL     1      27.779  -0.057  54.097  1.00  0.00    -0.004 A 
HETATM   20  C15 UNL     1      27.491  -1.032  53.022  1.00  0.00    -0.004 A 
HETATM   21  C16 UNL     1      26.180  -1.214  53.019  1.00  0.00    -0.016 A 
ENDBRANCH  16  17
ENDBRANCH  15  16
ENDBRANCH   4  15
TORSDOF 8
ENDMDL
MODEL 5
REMARK VINA RESULT:      -6.7      2.919      8.879
REMARK  8 active torsions:
REMARK  status: ('A' for Active; 'I' for Inactive)
REMARK    1  A    between atoms: C2_2  and  C3_3 
REMARK    2  A    between atoms: C2_2  and  C7_9 
REMARK    3  A    between atoms: C3_3  and  C4_4 
REMARK    4  A    between atoms: C4_4  and  N1_5 
REMARK    5  A    between atoms: N1_5  and  C6_7 
REMARK    6  A    between atoms: C10_12  and  O2_13 
REMARK    7  A    between atoms: O2_13  and  C11_14 
REMARK    8  A    between atoms: C11_14  and  C12_15 
ROOT
HETATM    1  C7  UNL     1      22.075   0.342  52.243  1.00  0.00    -0.034 A 
HETATM    2  C8  UNL     1      23.252   1.009  51.970  1.00  0.00     0.014 A 
HETATM    3  C9  UNL     1      24.391   0.681  52.724  1.00  0.00     0.037 A 
HETATM    4  C10 UNL     1      24.355  -0.295  53.732  1.00  0.00     0.068 A 
HETATM    5  C17 UNL     1      23.132  -0.877  53.904  1.00  0.00     0.037 A 
HETATM    6  C18 UNL     1      21.974  -0.623  53.217  1.00  0.00     0.014 A 
ENDROOT
BRANCH   1   7
HETATM    7  C2  UNL     1      20.833   0.614  51.509  1.00  0.00    -0.068 C 
HETATM    8  C1  UNL     1      20.716   0.689  50.194  1.00  0.00     0.039 C 
BRANCH   7   9
HETATM    9  C3  UNL     1      19.521   0.843  52.208  1.00  0.00     0.055 C 
BRANCH   9  10
HETATM   10  C4  UNL     1      18.572  -0.160  51.615  1.00  0.00     0.129 C 
BRANCH  10  11
HETATM   11  N1  UNL     1      17.808  -0.915  52.556  1.00  0.00    -0.363 N 
HETATM   12  C5  UNL     1      18.173  -1.913  53.529  1.00  0.00     0.152 C 
BRANCH  11  13
HETATM   13  C6  UNL     1      16.397  -0.727  52.637  1.00  0.00     0.350 C 
HETATM   14  O1  UNL     1      16.055  -1.163  51.506  1.00  0.00    -0.284 OA
ENDBRANCH  11  13
ENDBRANCH  10  11
ENDBRANCH   9  10
ENDBRANCH   7   9
ENDBRANCH   1   7
BRANCH   4  15
HETATM   15  O2  UNL     1      25.576  -0.355  54.239  1.00  0.00    -0.350 OA
BRANCH  15  16
HETATM   16  C11 UNL     1      26.753   0.300  54.297  1.00  0.00     0.188 C 
BRANCH  16  17
HETATM   17  C12 UNL     1      27.759  -0.125  53.290  1.00  0.00     0.055 A 
HETATM   18  C13 UNL     1      27.865  -1.543  52.975  1.00  0.00    -0.016 A 
HETATM   19  C14 UNL     1      29.101  -2.011  53.222  1.00  0.00    -0.004 A 
HETATM   20  C15 UNL     1      29.937  -0.904  53.737  1.00  0.00    -0.004 A 
HETATM   21  C16 UNL     1      29.162   0.169  53.771  1.00  0.00    -0.016 A 
ENDBRANCH  16  17
ENDBRANCH  15  16
ENDBRANCH   4  15
TORSDOF 8
ENDMDL
MODEL 6
REMARK VINA RESULT:      -6.7      5.811      8.384
REMARK  8 active torsions:
REMARK  status: ('A' for Active; 'I' for Inactive)
REMARK    1  A    between atoms: C2_2  and  C3_3 
REMARK    2  A    between atoms: C2_2  and  C7_9 
REMARK    3  A    between atoms: C3_3  and  C4_4 
REMARK    4  A    between atoms: C4_4  and  N1_5 
REMARK    5  A    between atoms: N1_5  and  C6_7 
REMARK    6  A    between atoms: C10_12  and  O2_13 
REMARK    7  A    between atoms: O2_13  and  C11_14 
REMARK    8  A    between atoms: C11_14  and  C12_15 
ROOT
HETATM    1  C7  UNL     1      26.733   5.342  48.763  1.00  0.00    -0.034 A 
HETATM    2  C8  UNL     1      25.429   5.790  48.843  1.00  0.00     0.014 A 
HETATM    3  C9  UNL     1      24.454   4.908  49.338  1.00  0.00     0.037 A 
HETATM    4  C10 UNL     1      24.775   3.604  49.746  1.00  0.00     0.068 A 
HETATM    5  C17 UNL     1      26.096   3.285  49.615  1.00  0.00     0.037 A 
HETATM    6  C18 UNL     1      27.111   4.076  49.146  1.00  0.00     0.014 A 
ENDROOT
BRANCH   1   7
HETATM    7  C2  UNL     1      27.822   6.188  48.260  1.00  0.00    -0.068 C 
HETATM    8  C1  UNL     1      27.693   7.431  47.825  1.00  0.00     0.039 C 
BRANCH   7   9
HETATM    9  C3  UNL     1      29.245   5.708  48.187  1.00  0.00     0.055 C 
BRANCH   9  10
HETATM   10  C4  UNL     1      30.086   6.953  48.164  1.00  0.00     0.129 C 
BRANCH  10  11
HETATM   11  N1  UNL     1      31.182   6.973  49.080  1.00  0.00    -0.363 N 
HETATM   12  C5  UNL     1      31.954   5.925  49.697  1.00  0.00     0.152 C 
BRANCH  11  13
HETATM   13  C6  UNL     1      31.695   8.219  49.543  1.00  0.00     0.350 C 
HETATM   14  O1  UNL     1      30.893   9.008  48.976  1.00  0.00    -0.284 OA
ENDBRANCH  11  13
ENDBRANCH  10  11
ENDBRANCH   9  10
ENDBRANCH   7   9
ENDBRANCH   1   7
BRANCH   4  15
HETATM   15  O2  UNL     1      23.644   3.050  50.151  1.00  0.00    -0.350 OA
BRANCH  15  16
HETATM   16  C11 UNL     1      22.745   3.043  51.156  1.00  0.00     0.188 C 
BRANCH  16  17
HETATM   17  C12 UNL     1      23.221   2.424  52.420  1.00  0.00     0.055 A 
HETATM   18  C13 UNL     1      24.291   3.087  53.154  1.00  0.00    -0.016 A 
HETATM   19  C14 UNL     1      25.358   2.282  53.302  1.00  0.00    -0.004 A 
HETATM   20  C15 UNL     1      25.069   0.982  52.658  1.00  0.00    -0.004 A 
HETATM   21  C16 UNL     1      23.847   1.073  52.158  1.00  0.00    -0.016 A 
ENDBRANCH  16  17
ENDBRANCH  15  16
ENDBRANCH   4  15
TORSDOF 8
ENDMDL
MODEL 7
REMARK VINA RESULT:      -6.7      3.410      8.060
REMARK  8 active torsions:
REMARK  status: ('A' for Active; 'I' for Inactive)
REMARK    1  A    between atoms: C2_2  and  C3_3 
REMARK    2  A    between atoms: C2_2  and  C7_9 
REMARK    3  A    between atoms: C3_3  and  C4_4 
REMARK    4  A    between atoms: C4_4  and  N1_5 
REMARK    5  A    between atoms: N1_5  and  C6_7 
REMARK    6  A    between atoms: C10_12  and  O2_13 
REMARK    7  A    between atoms: O2_13  and  C11_14 
REMARK    8  A    between atoms: C11_14  and  C12_15 
ROOT
HETATM    1  C7  UNL     1      22.245   0.419  52.038  1.00  0.00    -0.034 A 
HETATM    2  C8  UNL     1      23.332   1.254  51.873  1.00  0.00     0.014 A 
HETATM    3  C9  UNL     1      24.465   1.033  52.674  1.00  0.00     0.037 A 
HETATM    4  C10 UNL     1      24.510  -0.000  53.624  1.00  0.00     0.068 A 
HETATM    5  C17 UNL     1      23.371  -0.750  53.689  1.00  0.00     0.037 A 
HETATM    6  C18 UNL     1      22.226  -0.610  52.950  1.00  0.00     0.014 A 
ENDROOT
BRANCH   1   7
HETATM    7  C2  UNL     1      21.017   0.569  51.247  1.00  0.00    -0.068 C 
HETATM    8  C1  UNL     1      19.796   0.264  51.655  1.00  0.00     0.039 C 
BRANCH   7   9
HETATM    9  C3  UNL     1      21.027   1.106  49.842  1.00  0.00     0.055 C 
BRANCH   9  10
HETATM   10  C4  UNL     1      20.243   2.386  49.898  1.00  0.00     0.129 C 
BRANCH  10  11
HETATM   11  N1  UNL     1      20.960   3.528  50.369  1.00  0.00    -0.363 N 
HETATM   12  C5  UNL     1      22.010   4.326  49.788  1.00  0.00     0.152 C 
BRANCH  11  13
HETATM   13  C6  UNL     1      20.663   4.072  51.652  1.00  0.00     0.350 C 
HETATM   14  O1  UNL     1      21.610   4.893  51.765  1.00  0.00    -0.284 OA
ENDBRANCH  11  13
ENDBRANCH  10  11
ENDBRANCH   9  10
ENDBRANCH   7   9
ENDBRANCH   1   7
BRANCH   4  15
HETATM   15  O2  UNL     1      25.700   0.071  54.198  1.00  0.00    -0.350 OA
BRANCH  15  16
HETATM   16  C11 UNL     1      26.890   0.701  54.138  1.00  0.00     0.188 C 
BRANCH  16  17
HETATM   17  C12 UNL     1      27.863   0.116  53.178  1.00  0.00     0.055 A 
HETATM   18  C13 UNL     1      27.853  -1.326  52.977  1.00  0.00    -0.016 A 
HETATM   19  C14 UNL     1      29.046  -1.872  53.274  1.00  0.00    -0.004 A 
HETATM   20  C15 UNL     1      29.967  -0.799  53.708  1.00  0.00    -0.004 A 
HETATM   21  C16 UNL     1      29.282   0.332  53.649  1.00  0.00    -0.016 A 
ENDBRANCH  16  17
ENDBRANCH  15  16
ENDBRANCH   4  15
TORSDOF 8
ENDMDL
MODEL 8
REMARK VINA RESULT:      -6.6      1.609      2.264
REMARK  8 active torsions:
REMARK  status: ('A' for Active; 'I' for Inactive)
REMARK    1  A    between atoms: C2_2  and  C3_3 
REMARK    2  A    between atoms: C2_2  and  C7_9 
REMARK    3  A    between atoms: C3_3  and  C4_4 
REMARK    4  A    between atoms: C4_4  and  N1_5 
REMARK    5  A    between atoms: N1_5  and  C6_7 
REMARK    6  A    between atoms: C10_12  and  O2_13 
REMARK    7  A    between atoms: O2_13  and  C11_14 
REMARK    8  A    between atoms: C11_14  and  C12_15 
ROOT
HETATM    1  C7  UNL     1      24.059   0.338  53.211  1.00  0.00    -0.034 A 
HETATM    2  C8  UNL     1      23.585   1.419  52.493  1.00  0.00     0.014 A 
HETATM    3  C9  UNL     1      22.196   1.621  52.438  1.00  0.00     0.037 A 
HETATM    4  C10 UNL     1      21.297   0.759  53.086  1.00  0.00     0.068 A 
HETATM    5  C17 UNL     1      21.892  -0.269  53.758  1.00  0.00     0.037 A 
HETATM    6  C18 UNL     1      23.230  -0.541  53.867  1.00  0.00     0.014 A 
ENDROOT
BRANCH   1   7
HETATM    7  C2  UNL     1      25.492   0.045  53.328  1.00  0.00    -0.068 C 
HETATM    8  C1  UNL     1      26.134  -0.925  52.698  1.00  0.00     0.039 C 
BRANCH   7   9
HETATM    9  C3  UNL     1      26.407   0.850  54.210  1.00  0.00     0.055 C 
BRANCH   9  10
HETATM   10  C4  UNL     1      27.557  -0.062  54.531  1.00  0.00     0.129 C 
BRANCH  10  11
HETATM   11  N1  UNL     1      28.855   0.454  54.232  1.00  0.00    -0.363 N 
HETATM   12  C5  UNL     1      29.425   1.772  54.336  1.00  0.00     0.152 C 
BRANCH  11  13
HETATM   13  C6  UNL     1      29.863  -0.416  53.725  1.00  0.00     0.350 C 
HETATM   14  O1  UNL     1      29.276  -1.523  53.846  1.00  0.00    -0.284 OA
ENDBRANCH  11  13
ENDBRANCH  10  11
ENDBRANCH   9  10
ENDBRANCH   7   9
ENDBRANCH   1   7
BRANCH   4  15
HETATM   15  O2  UNL     1      20.085   1.226  52.834  1.00  0.00    -0.350 OA
BRANCH  15  16
HETATM   16  C11 UNL     1      19.106   1.242  51.907  1.00  0.00     0.188 C 
BRANCH  16  17
HETATM   17  C12 UNL     1      18.577  -0.094  51.529  1.00  0.00     0.055 A 
HETATM   18  C13 UNL     1      17.372  -0.155  50.713  1.00  0.00    -0.016 A 
HETATM   19  C14 UNL     1      16.391  -0.836  51.333  1.00  0.00    -0.004 A 
HETATM   20  C15 UNL     1      16.887  -1.294  52.649  1.00  0.00    -0.004 A 
HETATM   21  C16 UNL     1      18.136  -0.866  52.751  1.00  0.00    -0.016 A 
ENDBRANCH  16  17
ENDBRANCH  15  16
ENDBRANCH   4  15
TORSDOF 8
ENDMDL
MODEL 9
REMARK VINA RESULT:      -6.6      5.699      8.368
REMARK  8 active torsions:
REMARK  status: ('A' for Active; 'I' for Inactive)
REMARK    1  A    between atoms: C2_2  and  C3_3 
REMARK    2  A    between atoms: C2_2  and  C7_9 
REMARK    3  A    between atoms: C3_3  and  C4_4 
REMARK    4  A    between atoms: C4_4  and  N1_5 
REMARK    5  A    between atoms: N1_5  and  C6_7 
REMARK    6  A    between atoms: C10_12  and  O2_13 
REMARK    7  A    between atoms: O2_13  and  C11_14 
REMARK    8  A    between atoms: C11_14  and  C12_15 
ROOT
HETATM    1  C7  UNL     1      26.699   5.231  48.820  1.00  0.00    -0.034 A 
HETATM    2  C8  UNL     1      26.891   3.949  49.296  1.00  0.00     0.014 A 
HETATM    3  C9  UNL     1      25.775   3.248  49.784  1.00  0.00     0.037 A 
HETATM    4  C10 UNL     1      24.492   3.818  49.796  1.00  0.00     0.068 A 
HETATM    5  C17 UNL     1      24.439   5.089  49.301  1.00  0.00     0.037 A 
HETATM    6  C18 UNL     1      25.469   5.844  48.805  1.00  0.00     0.014 A 
ENDROOT
BRANCH   1   7
HETATM    7  C2  UNL     1      27.802   6.041  48.289  1.00  0.00    -0.068 C 
HETATM    8  C1  UNL     1      27.694   7.266  47.802  1.00  0.00     0.039 C 
BRANCH   7   9
HETATM    9  C3  UNL     1      29.219   5.538  48.246  1.00  0.00     0.055 C 
BRANCH   9  10
HETATM   10  C4  UNL     1      30.070   6.758  48.032  1.00  0.00     0.129 C 
BRANCH  10  11
HETATM   11  N1  UNL     1      31.247   6.837  48.838  1.00  0.00    -0.363 N 
HETATM   12  C5  UNL     1      31.870   7.926  49.545  1.00  0.00     0.152 C 
BRANCH  11  13
HETATM   13  C6  UNL     1      32.037   5.671  49.054  1.00  0.00     0.350 C 
HETATM   14  O1  UNL     1      33.182   6.192  49.110  1.00  0.00    -0.284 OA
ENDBRANCH  11  13
ENDBRANCH  10  11
ENDBRANCH   9  10
ENDBRANCH   7   9
ENDBRANCH   1   7
BRANCH   4  15
HETATM   15  O2  UNL     1      23.684   2.907  50.313  1.00  0.00    -0.350 OA
BRANCH  15  16
HETATM   16  C11 UNL     1      22.794   2.692  51.304  1.00  0.00     0.188 C 
BRANCH  16  17
HETATM   17  C12 UNL     1      23.375   2.164  52.566  1.00  0.00     0.055 A 
HETATM   18  C13 UNL     1      24.381   2.964  53.252  1.00  0.00    -0.016 A 
HETATM   19  C14 UNL     1      25.538   2.292  53.384  1.00  0.00    -0.004 A 
HETATM   20  C15 UNL     1      25.384   0.952  52.777  1.00  0.00    -0.004 A 
HETATM   21  C16 UNL     1      24.146   0.888  52.313  1.00  0.00    -0.016 A 
ENDBRANCH  16  17
ENDBRANCH  15  16
ENDBRANCH   4  15
TORSDOF 8
ENDMDL
