MODEL 1
REMARK VINA RESULT:      -9.8      0.000      0.000
REMARK  5 active torsions:
REMARK  status: ('A' for Active; 'I' for Inactive)
REMARK    1  A    between atoms: C5_7  and  C6_8 
REMARK    2  A    between atoms: C6_8  and  N2_9 
REMARK    3  A    between atoms: C13_19  and  N5_20 
REMARK    4  A    between atoms: N5_20  and  C14_21 
REMARK    5  A    between atoms: C18_25  and  C19_26 
ROOT
HETATM    1  N2  UNL     1      21.735   3.511  50.604  1.00  0.00    -0.376 N 
HETATM    2  C7  UNL     1      20.794   4.576  50.880  1.00  0.00     0.149 C 
HETATM    3  C8  UNL     1      19.380   4.047  51.049  1.00  0.00     0.195 C 
HETATM    4  O2  UNL     1      19.410   3.295  52.269  1.00  0.00    -0.347 OA
HETATM    5  C9  UNL     1      20.529   2.449  52.435  1.00  0.00     0.097 A 
HETATM    6  C10 UNL     1      20.388   1.526  53.461  1.00  0.00     0.071 A 
HETATM    7  C11 UNL     1      21.428   0.661  53.692  1.00  0.00     0.075 A 
HETATM    8  N3  UNL     1      21.241  -0.231  54.711  1.00  0.00    -0.241 NA
HETATM    9  C12 UNL     1      22.231  -1.092  54.966  1.00  0.00     0.236 A 
HETATM   10  N4  UNL     1      23.331  -1.048  54.236  1.00  0.00    -0.224 NA
HETATM   11  C13 UNL     1      23.615  -0.227  53.228  1.00  0.00     0.142 A 
HETATM   12  C21 UNL     1      22.605   0.660  52.961  1.00  0.00     0.041 A 
HETATM   13  C22 UNL     1      22.674   1.599  51.964  1.00  0.00     0.050 A 
HETATM   14  C23 UNL     1      21.690   2.514  51.648  1.00  0.00     0.065 A 
ENDROOT
BRANCH  11  15
HETATM   15  N5  UNL     1      24.808  -0.228  52.469  1.00  0.00    -0.340 N 
HETATM   16  H17 UNL     1      24.881  -0.674  51.546  1.00  0.00     0.167 HD
BRANCH  15  17
HETATM   17  C14 UNL     1      26.042   0.359  52.833  1.00  0.00     0.034 A 
HETATM   18  C15 UNL     1      26.224   1.703  53.069  1.00  0.00     0.029 A 
HETATM   19  C16 UNL     1      27.410   2.295  53.442  1.00  0.00     0.003 A 
HETATM   20  C17 UNL     1      28.526   1.505  53.599  1.00  0.00     0.016 A 
HETATM   21  C18 UNL     1      28.424   0.153  53.382  1.00  0.00     0.050 A 
HETATM   22  C20 UNL     1      27.205  -0.358  53.013  1.00  0.00     0.045 A 
BRANCH  21  23
HETATM   23  C19 UNL     1      29.603  -0.767  53.538  1.00  0.00     0.417 C 
HETATM   24  F1  UNL     1      29.697  -1.012  54.916  1.00  0.00    -0.166 F 
HETATM   25  F2  UNL     1      29.388  -1.944  52.857  1.00  0.00    -0.166 F 
HETATM   26  F3  UNL     1      30.742  -0.131  53.097  1.00  0.00    -0.166 F 
ENDBRANCH  21  23
ENDBRANCH  15  17
ENDBRANCH  11  15
BRANCH   1  27
HETATM   27  C6  UNL     1      22.642   3.252  49.523  1.00  0.00     0.137 C 
BRANCH  27  28
HETATM   28  C5  UNL     1      23.810   4.165  49.399  1.00  0.00     0.101 C 
HETATM   29  C1  UNL     1      23.582   5.491  48.813  1.00  0.00     0.136 C 
HETATM   30  O1  UNL     1      22.672   6.252  48.485  1.00  0.00    -0.297 OA
HETATM   31  C2  UNL     1      24.913   6.146  48.513  1.00  0.00     0.108 C 
HETATM   32  C3  UNL     1      25.516   6.397  49.904  1.00  0.00     0.277 C 
HETATM   33  N1  UNL     1      25.722   5.081  50.500  1.00  0.00     0.084 N 
HETATM   34  C4  UNL     1      24.455   4.430  50.771  1.00  0.00     0.283 C 
HETATM   35  H5  UNL     1      26.307   5.185  51.351  1.00  0.00     0.315 HD
ENDBRANCH  27  28
ENDBRANCH   1  27
TORSDOF 5
ENDMDL
MODEL 2
REMARK VINA RESULT:      -9.8      2.035      2.556
REMARK  5 active torsions:
REMARK  status: ('A' for Active; 'I' for Inactive)
REMARK    1  A    between atoms: C5_7  and  C6_8 
REMARK    2  A    between atoms: C6_8  and  N2_9 
REMARK    3  A    between atoms: C13_19  and  N5_20 
REMARK    4  A    between atoms: N5_20  and  C14_21 
REMARK    5  A    between atoms: C18_25  and  C19_26 
ROOT
HETATM    1  N2  UNL     1      20.317   0.922  50.587  1.00  0.00    -0.376 N 
HETATM    2  C7  UNL     1      18.915   1.229  50.776  1.00  0.00     0.149 C 
HETATM    3  C8  UNL     1      18.122  -0.000  51.186  1.00  0.00     0.195 C 
HETATM    4  O2  UNL     1      18.582  -0.315  52.506  1.00  0.00    -0.347 OA
HETATM    5  C9  UNL     1      19.982  -0.255  52.693  1.00  0.00     0.097 A 
HETATM    6  C10 UNL     1      20.417  -0.844  53.871  1.00  0.00     0.071 A 
HETATM    7  C11 UNL     1      21.764  -0.834  54.132  1.00  0.00     0.075 A 
HETATM    8  N3  UNL     1      22.144  -1.428  55.304  1.00  0.00    -0.241 NA
HETATM    9  C12 UNL     1      23.449  -1.440  55.594  1.00  0.00     0.236 A 
HETATM   10  N4  UNL     1      24.304  -0.888  54.751  1.00  0.00    -0.224 NA
HETATM   11  C13 UNL     1      24.044  -0.288  53.592  1.00  0.00     0.142 A 
HETATM   12  C21 UNL     1      22.708  -0.271  53.288  1.00  0.00     0.041 A 
HETATM   13  C22 UNL     1      22.205   0.292  52.144  1.00  0.00     0.050 A 
HETATM   14  C23 UNL     1      20.873   0.338  51.785  1.00  0.00     0.065 A 
ENDROOT
BRANCH  11  15
HETATM   15  N5  UNL     1      25.001   0.279  52.720  1.00  0.00    -0.340 N 
HETATM   16  H17 UNL     1      24.790   0.522  51.744  1.00  0.00     0.167 HD
BRANCH  15  17
HETATM   17  C14 UNL     1      26.344   0.597  53.030  1.00  0.00     0.034 A 
HETATM   18  C15 UNL     1      26.795   1.863  53.327  1.00  0.00     0.029 A 
HETATM   19  C16 UNL     1      28.092   2.193  53.649  1.00  0.00     0.003 A 
HETATM   20  C17 UNL     1      29.042   1.198  53.684  1.00  0.00     0.016 A 
HETATM   21  C18 UNL     1      28.669  -0.092  53.399  1.00  0.00     0.050 A 
HETATM   22  C20 UNL     1      27.355  -0.337  53.088  1.00  0.00     0.045 A 
BRANCH  21  23
HETATM   23  C19 UNL     1      29.655  -1.228  53.421  1.00  0.00     0.417 C 
HETATM   24  F1  UNL     1      30.548  -0.957  52.373  1.00  0.00    -0.166 F 
HETATM   25  F2  UNL     1      30.325  -1.260  54.623  1.00  0.00    -0.166 F 
HETATM   26  F3  UNL     1      28.995  -2.412  53.179  1.00  0.00    -0.166 F 
ENDBRANCH  21  23
ENDBRANCH  15  17
ENDBRANCH  11  15
BRANCH   1  27
HETATM   27  C6  UNL     1      21.213   1.053  49.473  1.00  0.00     0.137 C 
BRANCH  27  28
HETATM   28  C5  UNL     1      21.401   2.424  48.926  1.00  0.00     0.101 C 
HETATM   29  C1  UNL     1      22.017   3.430  49.799  1.00  0.00     0.136 C 
HETATM   30  O1  UNL     1      22.620   3.534  50.866  1.00  0.00    -0.297 OA
HETATM   31  C2  UNL     1      21.859   4.801  49.178  1.00  0.00     0.108 C 
HETATM   32  C3  UNL     1      22.743   4.734  47.922  1.00  0.00     0.277 C 
HETATM   33  N1  UNL     1      22.148   3.717  47.062  1.00  0.00     0.084 N 
HETATM   34  C4  UNL     1      22.269   2.400  47.655  1.00  0.00     0.283 C 
HETATM   35  H5  UNL     1      22.586   3.774  46.122  1.00  0.00     0.315 HD
ENDBRANCH  27  28
ENDBRANCH   1  27
TORSDOF 5
ENDMDL
MODEL 3
REMARK VINA RESULT:      -9.7      3.460      6.630
REMARK  5 active torsions:
REMARK  status: ('A' for Active; 'I' for Inactive)
REMARK    1  A    between atoms: C5_7  and  C6_8 
REMARK    2  A    between atoms: C6_8  and  N2_9 
REMARK    3  A    between atoms: C13_19  and  N5_20 
REMARK    4  A    between atoms: N5_20  and  C14_21 
REMARK    5  A    between atoms: C18_25  and  C19_26 
ROOT
HETATM    1  N2  UNL     1      24.317   0.308  53.491  1.00  0.00    -0.376 N 
HETATM    2  C7  UNL     1      23.563  -0.847  53.928  1.00  0.00     0.149 C 
HETATM    3  C8  UNL     1      22.132  -0.484  54.283  1.00  0.00     0.195 C 
HETATM    4  O2  UNL     1      21.520  -0.130  53.036  1.00  0.00    -0.347 OA
HETATM    5  C9  UNL     1      22.294   0.697  52.191  1.00  0.00     0.097 A 
HETATM    6  C10 UNL     1      21.576   1.260  51.146  1.00  0.00     0.071 A 
HETATM    7  C11 UNL     1      22.249   2.082  50.276  1.00  0.00     0.075 A 
HETATM    8  N3  UNL     1      21.500   2.615  49.265  1.00  0.00    -0.241 NA
HETATM    9  C12 UNL     1      22.119   3.421  48.398  1.00  0.00     0.236 A 
HETATM   10  N4  UNL     1      23.409   3.667  48.550  1.00  0.00    -0.224 NA
HETATM   11  C13 UNL     1      24.227   3.204  49.491  1.00  0.00     0.142 A 
HETATM   12  C21 UNL     1      23.600   2.375  50.384  1.00  0.00     0.041 A 
HETATM   13  C22 UNL     1      24.243   1.783  51.440  1.00  0.00     0.050 A 
HETATM   14  C23 UNL     1      23.664   0.943  52.370  1.00  0.00     0.065 A 
ENDROOT
BRANCH  11  15
HETATM   15  N5  UNL     1      25.603   3.507  49.616  1.00  0.00    -0.340 N 
HETATM   16  H17 UNL     1      26.280   2.859  50.036  1.00  0.00     0.167 HD
BRANCH  15  17
HETATM   17  C14 UNL     1      26.247   4.695  49.199  1.00  0.00     0.034 A 
HETATM   18  C15 UNL     1      25.656   5.938  49.188  1.00  0.00     0.029 A 
HETATM   19  C16 UNL     1      26.268   7.110  48.805  1.00  0.00     0.003 A 
HETATM   20  C17 UNL     1      27.580   7.069  48.390  1.00  0.00     0.016 A 
HETATM   21  C18 UNL     1      28.239   5.865  48.373  1.00  0.00     0.050 A 
HETATM   22  C20 UNL     1      27.556   4.743  48.772  1.00  0.00     0.045 A 
BRANCH  21  23
HETATM   23  C19 UNL     1      29.672   5.750  47.933  1.00  0.00     0.417 C 
HETATM   24  F1  UNL     1      30.429   6.148  49.045  1.00  0.00    -0.166 F 
HETATM   25  F2  UNL     1      29.969   4.450  47.594  1.00  0.00    -0.166 F 
HETATM   26  F3  UNL     1      29.899   6.610  46.881  1.00  0.00    -0.166 F 
ENDBRANCH  21  23
ENDBRANCH  15  17
ENDBRANCH  11  15
BRANCH   1  27
HETATM   27  C6  UNL     1      25.520   0.936  53.959  1.00  0.00     0.137 C 
BRANCH  27  28
HETATM   28  C5  UNL     1      26.742   0.087  54.000  1.00  0.00     0.101 C 
HETATM   29  C1  UNL     1      27.105  -0.648  52.783  1.00  0.00     0.136 C 
HETATM   30  O1  UNL     1      26.827  -0.719  51.586  1.00  0.00    -0.297 OA
HETATM   31  C2  UNL     1      28.186  -1.656  53.105  1.00  0.00     0.108 C 
HETATM   32  C3  UNL     1      29.404  -0.785  53.451  1.00  0.00     0.277 C 
HETATM   33  N1  UNL     1      29.038  -0.034  54.648  1.00  0.00     0.084 N 
HETATM   34  C4  UNL     1      27.985   0.920  54.360  1.00  0.00     0.283 C 
HETATM   35  H5  UNL     1      29.889   0.416  55.035  1.00  0.00     0.315 HD
ENDBRANCH  27  28
ENDBRANCH   1  27
TORSDOF 5
ENDMDL
MODEL 4
REMARK VINA RESULT:      -9.7      3.479      6.314
REMARK  5 active torsions:
REMARK  status: ('A' for Active; 'I' for Inactive)
REMARK    1  A    between atoms: C5_7  and  C6_8 
REMARK    2  A    between atoms: C6_8  and  N2_9 
REMARK    3  A    between atoms: C13_19  and  N5_20 
REMARK    4  A    between atoms: N5_20  and  C14_21 
REMARK    5  A    between atoms: C18_25  and  C19_26 
ROOT
HETATM    1  N2  UNL     1      24.208  -0.469  53.458  1.00  0.00    -0.376 N 
HETATM    2  C7  UNL     1      24.280  -1.425  54.542  1.00  0.00     0.149 C 
HETATM    3  C8  UNL     1      23.424  -1.000  55.723  1.00  0.00     0.195 C 
HETATM    4  O2  UNL     1      22.073  -1.113  55.260  1.00  0.00    -0.347 OA
HETATM    5  C9  UNL     1      21.829  -0.606  53.964  1.00  0.00     0.097 A 
HETATM    6  C10 UNL     1      20.483  -0.455  53.664  1.00  0.00     0.071 A 
HETATM    7  C11 UNL     1      20.154   0.036  52.425  1.00  0.00     0.075 A 
HETATM    8  N3  UNL     1      18.816   0.169  52.176  1.00  0.00    -0.241 NA
HETATM    9  C12 UNL     1      18.456   0.644  50.981  1.00  0.00     0.236 A 
HETATM   10  N4  UNL     1      19.391   0.962  50.102  1.00  0.00    -0.224 NA
HETATM   11  C13 UNL     1      20.711   0.873  50.239  1.00  0.00     0.142 A 
HETATM   12  C21 UNL     1      21.089   0.385  51.462  1.00  0.00     0.041 A 
HETATM   13  C22 UNL     1      22.398   0.209  51.829  1.00  0.00     0.050 A 
HETATM   14  C23 UNL     1      22.837  -0.276  53.045  1.00  0.00     0.065 A 
ENDROOT
BRANCH  11  15
HETATM   15  N5  UNL     1      21.671   1.237  49.268  1.00  0.00    -0.340 N 
HETATM   16  H17 UNL     1      22.065   0.568  48.594  1.00  0.00     0.167 HD
BRANCH  15  17
HETATM   17  C14 UNL     1      22.224   2.524  49.066  1.00  0.00     0.034 A 
HETATM   18  C15 UNL     1      21.510   3.617  48.629  1.00  0.00     0.029 A 
HETATM   19  C16 UNL     1      22.022   4.881  48.443  1.00  0.00     0.003 A 
HETATM   20  C17 UNL     1      23.354   5.105  48.706  1.00  0.00     0.016 A 
HETATM   21  C18 UNL     1      24.132   4.063  49.146  1.00  0.00     0.050 A 
HETATM   22  C20 UNL     1      23.545   2.833  49.306  1.00  0.00     0.045 A 
BRANCH  21  23
HETATM   23  C19 UNL     1      25.594   4.238  49.454  1.00  0.00     0.417 C 
HETATM   24  F1  UNL     1      26.171   2.982  49.217  1.00  0.00    -0.166 F 
HETATM   25  F2  UNL     1      26.150   5.184  48.623  1.00  0.00    -0.166 F 
HETATM   26  F3  UNL     1      25.745   4.580  50.779  1.00  0.00    -0.166 F 
ENDBRANCH  21  23
ENDBRANCH  15  17
ENDBRANCH  11  15
BRANCH   1  27
HETATM   27  C6  UNL     1      25.192   0.313  52.765  1.00  0.00     0.137 C 
BRANCH  27  28
HETATM   28  C5  UNL     1      26.367   0.762  53.560  1.00  0.00     0.101 C 
HETATM   29  C1  UNL     1      27.461  -0.195  53.765  1.00  0.00     0.136 C 
HETATM   30  O1  UNL     1      27.868  -1.286  53.367  1.00  0.00    -0.297 OA
HETATM   31  C2  UNL     1      28.408   0.339  54.816  1.00  0.00     0.108 C 
HETATM   32  C3  UNL     1      29.043   1.567  54.144  1.00  0.00     0.277 C 
HETATM   33  N1  UNL     1      27.954   2.512  53.917  1.00  0.00     0.084 N 
HETATM   34  C4  UNL     1      27.023   2.003  52.928  1.00  0.00     0.283 C 
HETATM   35  H5  UNL     1      28.357   3.430  53.650  1.00  0.00     0.315 HD
ENDBRANCH  27  28
ENDBRANCH   1  27
TORSDOF 5
ENDMDL
MODEL 5
REMARK VINA RESULT:      -9.7      3.588      5.564
REMARK  5 active torsions:
REMARK  status: ('A' for Active; 'I' for Inactive)
REMARK    1  A    between atoms: C5_7  and  C6_8 
REMARK    2  A    between atoms: C6_8  and  N2_9 
REMARK    3  A    between atoms: C13_19  and  N5_20 
REMARK    4  A    between atoms: N5_20  and  C14_21 
REMARK    5  A    between atoms: C18_25  and  C19_26 
ROOT
HETATM    1  N2  UNL     1      21.762  -0.191  52.672  1.00  0.00    -0.376 N 
HETATM    2  C7  UNL     1      20.803  -0.329  53.747  1.00  0.00     0.149 C 
HETATM    3  C8  UNL     1      21.036  -1.599  54.548  1.00  0.00     0.195 C 
HETATM    4  O2  UNL     1      22.280  -1.385  55.227  1.00  0.00    -0.347 OA
HETATM    5  C9  UNL     1      23.311  -0.817  54.445  1.00  0.00     0.097 A 
HETATM    6  C10 UNL     1      24.567  -0.898  55.028  1.00  0.00     0.071 A 
HETATM    7  C11 UNL     1      25.629  -0.373  54.335  1.00  0.00     0.075 A 
HETATM    8  N3  UNL     1      26.847  -0.478  54.949  1.00  0.00    -0.241 NA
HETATM    9  C12 UNL     1      27.906   0.020  54.305  1.00  0.00     0.236 A 
HETATM   10  N4  UNL     1      27.739   0.584  53.121  1.00  0.00    -0.224 NA
HETATM   11  C13 UNL     1      26.607   0.738  52.438  1.00  0.00     0.142 A 
HETATM   12  C21 UNL     1      25.516   0.231  53.092  1.00  0.00     0.041 A 
HETATM   13  C22 UNL     1      24.245   0.274  52.579  1.00  0.00     0.050 A 
HETATM   14  C23 UNL     1      23.111  -0.221  53.190  1.00  0.00     0.065 A 
ENDROOT
BRANCH  11  15
HETATM   15  N5  UNL     1      26.483   1.342  51.166  1.00  0.00    -0.340 N 
HETATM   16  H17 UNL     1      26.780   0.878  50.298  1.00  0.00     0.167 HD
BRANCH  15  17
HETATM   17  C14 UNL     1      25.952   2.622  50.887  1.00  0.00     0.034 A 
HETATM   18  C15 UNL     1      26.408   3.452  49.888  1.00  0.00     0.029 A 
HETATM   19  C16 UNL     1      25.896   4.694  49.585  1.00  0.00     0.003 A 
HETATM   20  C17 UNL     1      24.841   5.176  50.326  1.00  0.00     0.016 A 
HETATM   21  C18 UNL     1      24.330   4.406  51.340  1.00  0.00     0.050 A 
HETATM   22  C20 UNL     1      24.897   3.178  51.577  1.00  0.00     0.045 A 
BRANCH  21  23
HETATM   23  C19 UNL     1      23.177   4.870  52.187  1.00  0.00     0.417 C 
HETATM   24  F1  UNL     1      23.766   5.494  53.297  1.00  0.00    -0.166 F 
HETATM   25  F2  UNL     1      22.400   5.768  51.491  1.00  0.00    -0.166 F 
HETATM   26  F3  UNL     1      22.442   3.780  52.598  1.00  0.00    -0.166 F 
ENDBRANCH  21  23
ENDBRANCH  15  17
ENDBRANCH  11  15
BRANCH   1  27
HETATM   27  C6  UNL     1      21.636  -0.066  51.248  1.00  0.00     0.137 C 
BRANCH  27  28
HETATM   28  C5  UNL     1      21.480   1.313  50.711  1.00  0.00     0.101 C 
HETATM   29  C1  UNL     1      21.693   1.515  49.272  1.00  0.00     0.136 C 
HETATM   30  O1  UNL     1      21.826   0.884  48.225  1.00  0.00    -0.297 OA
HETATM   31  C2  UNL     1      21.772   2.996  48.977  1.00  0.00     0.108 C 
HETATM   32  C3  UNL     1      20.350   3.502  49.269  1.00  0.00     0.277 C 
HETATM   33  N1  UNL     1      20.126   3.281  50.693  1.00  0.00     0.084 N 
HETATM   34  C4  UNL     1      20.071   1.864  50.996  1.00  0.00     0.283 C 
HETATM   35  H5  UNL     1      19.264   3.784  50.980  1.00  0.00     0.315 HD
ENDBRANCH  27  28
ENDBRANCH   1  27
TORSDOF 5
ENDMDL
MODEL 6
REMARK VINA RESULT:      -9.6      4.036      7.121
REMARK  5 active torsions:
REMARK  status: ('A' for Active; 'I' for Inactive)
REMARK    1  A    between atoms: C5_7  and  C6_8 
REMARK    2  A    between atoms: C6_8  and  N2_9 
REMARK    3  A    between atoms: C13_19  and  N5_20 
REMARK    4  A    between atoms: N5_20  and  C14_21 
REMARK    5  A    between atoms: C18_25  and  C19_26 
ROOT
HETATM    1  N2  UNL     1      24.265   0.249  53.506  1.00  0.00    -0.376 N 
HETATM    2  C7  UNL     1      23.473  -0.897  53.898  1.00  0.00     0.149 C 
HETATM    3  C8  UNL     1      22.059  -0.497  54.284  1.00  0.00     0.195 C 
HETATM    4  O2  UNL     1      21.450  -0.063  53.061  1.00  0.00    -0.347 OA
HETATM    5  C9  UNL     1      22.246   0.772  52.247  1.00  0.00     0.097 A 
HETATM    6  C10 UNL     1      21.541   1.410  51.237  1.00  0.00     0.071 A 
HETATM    7  C11 UNL     1      22.237   2.245  50.399  1.00  0.00     0.075 A 
HETATM    8  N3  UNL     1      21.499   2.851  49.421  1.00  0.00    -0.241 NA
HETATM    9  C12 UNL     1      22.141   3.673  48.585  1.00  0.00     0.236 A 
HETATM   10  N4  UNL     1      23.440   3.864  48.734  1.00  0.00    -0.224 NA
HETATM   11  C13 UNL     1      24.249   3.328  49.644  1.00  0.00     0.142 A 
HETATM   12  C21 UNL     1      23.599   2.483  50.505  1.00  0.00     0.041 A 
HETATM   13  C22 UNL     1      24.229   1.819  51.526  1.00  0.00     0.050 A 
HETATM   14  C23 UNL     1      23.626   0.959  52.422  1.00  0.00     0.065 A 
ENDROOT
BRANCH  11  15
HETATM   15  N5  UNL     1      25.635   3.574  49.768  1.00  0.00    -0.340 N 
HETATM   16  H17 UNL     1      26.291   2.883  50.155  1.00  0.00     0.167 HD
BRANCH  15  17
HETATM   17  C14 UNL     1      26.321   4.753  49.394  1.00  0.00     0.034 A 
HETATM   18  C15 UNL     1      27.485   4.776  48.659  1.00  0.00     0.029 A 
HETATM   19  C16 UNL     1      28.160   5.910  48.269  1.00  0.00     0.003 A 
HETATM   20  C17 UNL     1      27.657   7.140  48.628  1.00  0.00     0.016 A 
HETATM   21  C18 UNL     1      26.499   7.199  49.362  1.00  0.00     0.050 A 
HETATM   22  C20 UNL     1      25.886   6.021  49.710  1.00  0.00     0.045 A 
BRANCH  21  23
HETATM   23  C19 UNL     1      25.893   8.509  49.786  1.00  0.00     0.417 C 
HETATM   24  F1  UNL     1      25.561   9.163  48.591  1.00  0.00    -0.166 F 
HETATM   25  F2  UNL     1      24.764   8.294  50.543  1.00  0.00    -0.166 F 
HETATM   26  F3  UNL     1      26.831   9.245  50.476  1.00  0.00    -0.166 F 
ENDBRANCH  21  23
ENDBRANCH  15  17
ENDBRANCH  11  15
BRANCH   1  27
HETATM   27  C6  UNL     1      25.495   0.809  53.990  1.00  0.00     0.137 C 
BRANCH  27  28
HETATM   28  C5  UNL     1      26.675  -0.097  54.016  1.00  0.00     0.101 C 
HETATM   29  C1  UNL     1      27.047  -0.772  52.766  1.00  0.00     0.136 C 
HETATM   30  O1  UNL     1      26.808  -0.756  51.560  1.00  0.00    -0.297 OA
HETATM   31  C2  UNL     1      28.070  -1.848  53.059  1.00  0.00     0.108 C 
HETATM   32  C3  UNL     1      29.313  -1.057  53.498  1.00  0.00     0.277 C 
HETATM   33  N1  UNL     1      28.940  -0.366  54.727  1.00  0.00     0.084 N 
HETATM   34  C4  UNL     1      27.942   0.653  54.467  1.00  0.00     0.283 C 
HETATM   35  H5  UNL     1      29.797   0.019  55.169  1.00  0.00     0.315 HD
ENDBRANCH  27  28
ENDBRANCH   1  27
TORSDOF 5
ENDMDL
MODEL 7
REMARK VINA RESULT:      -9.5      3.724      6.739
REMARK  5 active torsions:
REMARK  status: ('A' for Active; 'I' for Inactive)
REMARK    1  A    between atoms: C5_7  and  C6_8 
REMARK    2  A    between atoms: C6_8  and  N2_9 
REMARK    3  A    between atoms: C13_19  and  N5_20 
REMARK    4  A    between atoms: N5_20  and  C14_21 
REMARK    5  A    between atoms: C18_25  and  C19_26 
ROOT
HETATM    1  N2  UNL     1      24.990   0.028  54.154  1.00  0.00    -0.376 N 
HETATM    2  C7  UNL     1      24.661  -1.206  54.833  1.00  0.00     0.149 C 
HETATM    3  C8  UNL     1      23.295  -1.136  55.495  1.00  0.00     0.195 C 
HETATM    4  O2  UNL     1      22.360  -1.084  54.411  1.00  0.00    -0.347 OA
HETATM    5  C9  UNL     1      22.703  -0.212  53.353  1.00  0.00     0.097 A 
HETATM    6  C10 UNL     1      21.660   0.043  52.475  1.00  0.00     0.071 A 
HETATM    7  C11 UNL     1      21.903   0.884  51.418  1.00  0.00     0.075 A 
HETATM    8  N3  UNL     1      20.844   1.106  50.582  1.00  0.00    -0.241 NA
HETATM    9  C12 UNL     1      21.041   1.920  49.541  1.00  0.00     0.236 A 
HETATM   10  N4  UNL     1      22.231   2.469  49.364  1.00  0.00    -0.224 NA
HETATM   11  C13 UNL     1      23.322   2.321  50.111  1.00  0.00     0.142 A 
HETATM   12  C21 UNL     1      23.128   1.487  51.180  1.00  0.00     0.041 A 
HETATM   13  C22 UNL     1      24.111   1.188  52.088  1.00  0.00     0.050 A 
HETATM   14  C23 UNL     1      23.974   0.358  53.183  1.00  0.00     0.065 A 
ENDROOT
BRANCH  11  15
HETATM   15  N5  UNL     1      24.572   2.941  49.883  1.00  0.00    -0.340 N 
HETATM   16  H17 UNL     1      25.414   2.415  49.616  1.00  0.00     0.167 HD
BRANCH  15  17
HETATM   17  C14 UNL     1      24.859   4.322  49.975  1.00  0.00     0.034 A 
HETATM   18  C15 UNL     1      24.231   5.192  50.837  1.00  0.00     0.029 A 
HETATM   19  C16 UNL     1      24.506   6.536  50.958  1.00  0.00     0.003 A 
HETATM   20  C17 UNL     1      25.485   7.087  50.162  1.00  0.00     0.016 A 
HETATM   21  C18 UNL     1      26.157   6.284  49.276  1.00  0.00     0.050 A 
HETATM   22  C20 UNL     1      25.823   4.954  49.218  1.00  0.00     0.045 A 
BRANCH  21  23
HETATM   23  C19 UNL     1      27.238   6.821  48.379  1.00  0.00     0.417 C 
HETATM   24  F1  UNL     1      28.014   5.705  48.032  1.00  0.00    -0.166 F 
HETATM   25  F2  UNL     1      26.690   7.390  47.252  1.00  0.00    -0.166 F 
HETATM   26  F3  UNL     1      28.006   7.726  49.078  1.00  0.00    -0.166 F 
ENDBRANCH  21  23
ENDBRANCH  15  17
ENDBRANCH  11  15
BRANCH   1  27
HETATM   27  C6  UNL     1      26.072   0.964  54.279  1.00  0.00     0.137 C 
BRANCH  27  28
HETATM   28  C5  UNL     1      27.449   0.407  54.186  1.00  0.00     0.101 C 
HETATM   29  C1  UNL     1      27.705  -0.616  53.166  1.00  0.00     0.136 C 
HETATM   30  O1  UNL     1      27.192  -1.131  52.173  1.00  0.00    -0.297 OA
HETATM   31  C2  UNL     1      29.056  -1.251  53.416  1.00  0.00     0.108 C 
HETATM   32  C3  UNL     1      30.050  -0.113  53.132  1.00  0.00     0.277 C 
HETATM   33  N1  UNL     1      29.782   0.917  54.130  1.00  0.00     0.084 N 
HETATM   34  C4  UNL     1      28.480   1.519  53.918  1.00  0.00     0.283 C 
HETATM   35  H5  UNL     1      30.552   1.614  54.108  1.00  0.00     0.315 HD
ENDBRANCH  27  28
ENDBRANCH   1  27
TORSDOF 5
ENDMDL
MODEL 8
REMARK VINA RESULT:      -9.5      3.875      6.557
REMARK  5 active torsions:
REMARK  status: ('A' for Active; 'I' for Inactive)
REMARK    1  A    between atoms: C5_7  and  C6_8 
REMARK    2  A    between atoms: C6_8  and  N2_9 
REMARK    3  A    between atoms: C13_19  and  N5_20 
REMARK    4  A    between atoms: N5_20  and  C14_21 
REMARK    5  A    between atoms: C18_25  and  C19_26 
ROOT
HETATM    1  N2  UNL     1      21.867   0.065  52.482  1.00  0.00    -0.376 N 
HETATM    2  C7  UNL     1      21.205  -0.407  53.680  1.00  0.00     0.149 C 
HETATM    3  C8  UNL     1      21.900  -1.624  54.264  1.00  0.00     0.195 C 
HETATM    4  O2  UNL     1      23.160  -1.137  54.742  1.00  0.00    -0.347 OA
HETATM    5  C9  UNL     1      23.842  -0.257  53.872  1.00  0.00     0.097 A 
HETATM    6  C10 UNL     1      25.168  -0.042  54.216  1.00  0.00     0.071 A 
HETATM    7  C11 UNL     1      25.908   0.799  53.423  1.00  0.00     0.075 A 
HETATM    8  N3  UNL     1      27.209   0.978  53.802  1.00  0.00    -0.241 NA
HETATM    9  C12 UNL     1      27.963   1.789  53.054  1.00  0.00     0.236 A 
HETATM   10  N4  UNL     1      27.430   2.375  51.996  1.00  0.00    -0.224 NA
HETATM   11  C13 UNL     1      26.184   2.272  51.541  1.00  0.00     0.142 A 
HETATM   12  C21 UNL     1      25.404   1.443  52.303  1.00  0.00     0.041 A 
HETATM   13  C22 UNL     1      24.087   1.183  52.025  1.00  0.00     0.050 A 
HETATM   14  C23 UNL     1      23.255   0.357  52.754  1.00  0.00     0.065 A 
ENDROOT
BRANCH  11  15
HETATM   15  N5  UNL     1      25.665   2.915  50.394  1.00  0.00    -0.340 N 
HETATM   16  H17 UNL     1      24.930   2.500  49.807  1.00  0.00     0.167 HD
BRANCH  15  17
HETATM   17  C14 UNL     1      26.048   4.178  49.887  1.00  0.00     0.034 A 
HETATM   18  C15 UNL     1      27.098   4.383  49.021  1.00  0.00     0.029 A 
HETATM   19  C16 UNL     1      27.478   5.600  48.501  1.00  0.00     0.003 A 
HETATM   20  C17 UNL     1      26.771   6.725  48.858  1.00  0.00     0.016 A 
HETATM   21  C18 UNL     1      25.709   6.602  49.719  1.00  0.00     0.050 A 
HETATM   22  C20 UNL     1      25.394   5.353  50.192  1.00  0.00     0.045 A 
BRANCH  21  23
HETATM   23  C19 UNL     1      24.892   7.790  50.148  1.00  0.00     0.417 C 
HETATM   24  F1  UNL     1      24.067   8.082  49.053  1.00  0.00    -0.166 F 
HETATM   25  F2  UNL     1      24.130   7.477  51.251  1.00  0.00    -0.166 F 
HETATM   26  F3  UNL     1      25.730   8.855  50.400  1.00  0.00    -0.166 F 
ENDBRANCH  21  23
ENDBRANCH  15  17
ENDBRANCH  11  15
BRANCH   1  27
HETATM   27  C6  UNL     1      21.435   0.259  51.127  1.00  0.00     0.137 C 
BRANCH  27  28
HETATM   28  C5  UNL     1      20.155   0.992  50.934  1.00  0.00     0.101 C 
HETATM   29  C1  UNL     1      19.968   2.247  51.673  1.00  0.00     0.136 C 
HETATM   30  O1  UNL     1      20.592   3.065  52.347  1.00  0.00    -0.297 OA
HETATM   31  C2  UNL     1      18.523   2.682  51.571  1.00  0.00     0.108 C 
HETATM   32  C3  UNL     1      18.355   3.039  50.085  1.00  0.00     0.277 C 
HETATM   33  N1  UNL     1      18.564   1.799  49.345  1.00  0.00     0.084 N 
HETATM   34  C4  UNL     1      19.940   1.355  49.454  1.00  0.00     0.283 C 
HETATM   35  H5  UNL     1      18.267   1.941  48.360  1.00  0.00     0.315 HD
ENDBRANCH  27  28
ENDBRANCH   1  27
TORSDOF 5
ENDMDL
MODEL 9
REMARK VINA RESULT:      -9.2      3.507      6.311
REMARK  5 active torsions:
REMARK  status: ('A' for Active; 'I' for Inactive)
REMARK    1  A    between atoms: C5_7  and  C6_8 
REMARK    2  A    between atoms: C6_8  and  N2_9 
REMARK    3  A    between atoms: C13_19  and  N5_20 
REMARK    4  A    between atoms: N5_20  and  C14_21 
REMARK    5  A    between atoms: C18_25  and  C19_26 
ROOT
HETATM    1  N2  UNL     1      21.876   0.049  52.537  1.00  0.00    -0.376 N 
HETATM    2  C7  UNL     1      21.184  -0.362  53.740  1.00  0.00     0.149 C 
HETATM    3  C8  UNL     1      21.822  -1.593  54.361  1.00  0.00     0.195 C 
HETATM    4  O2  UNL     1      23.099  -1.147  54.838  1.00  0.00    -0.347 OA
HETATM    5  C9  UNL     1      23.824  -0.319  53.952  1.00  0.00     0.097 A 
HETATM    6  C10 UNL     1      25.155  -0.151  54.303  1.00  0.00     0.071 A 
HETATM    7  C11 UNL     1      25.936   0.637  53.495  1.00  0.00     0.075 A 
HETATM    8  N3  UNL     1      27.241   0.771  53.881  1.00  0.00    -0.241 NA
HETATM    9  C12 UNL     1      28.034   1.530  53.119  1.00  0.00     0.236 A 
HETATM   10  N4  UNL     1      27.535   2.110  52.042  1.00  0.00    -0.224 NA
HETATM   11  C13 UNL     1      26.289   2.048  51.579  1.00  0.00     0.142 A 
HETATM   12  C21 UNL     1      25.469   1.272  52.355  1.00  0.00     0.041 A 
HETATM   13  C22 UNL     1      24.145   1.061  52.071  1.00  0.00     0.050 A 
HETATM   14  C23 UNL     1      23.273   0.290  52.814  1.00  0.00     0.065 A 
ENDROOT
BRANCH  11  15
HETATM   15  N5  UNL     1      25.807   2.682  50.411  1.00  0.00    -0.340 N 
HETATM   16  H17 UNL     1      25.509   2.161  49.576  1.00  0.00     0.167 HD
BRANCH  15  17
HETATM   17  C14 UNL     1      25.657   4.073  50.206  1.00  0.00     0.034 A 
HETATM   18  C15 UNL     1      24.688   4.847  50.803  1.00  0.00     0.029 A 
HETATM   19  C16 UNL     1      24.533   6.205  50.633  1.00  0.00     0.003 A 
HETATM   20  C17 UNL     1      25.402   6.873  49.801  1.00  0.00     0.016 A 
HETATM   21  C18 UNL     1      26.396   6.170  49.169  1.00  0.00     0.050 A 
HETATM   22  C20 UNL     1      26.483   4.819  49.393  1.00  0.00     0.045 A 
BRANCH  21  23
HETATM   23  C19 UNL     1      27.381   6.838  48.249  1.00  0.00     0.417 C 
HETATM   24  F1  UNL     1      28.245   5.815  47.832  1.00  0.00    -0.166 F 
HETATM   25  F2  UNL     1      26.732   7.387  47.167  1.00  0.00    -0.166 F 
HETATM   26  F3  UNL     1      28.088   7.791  48.949  1.00  0.00    -0.166 F 
ENDBRANCH  21  23
ENDBRANCH  15  17
ENDBRANCH  11  15
BRANCH   1  27
HETATM   27  C6  UNL     1      21.463   0.226  51.173  1.00  0.00     0.137 C 
BRANCH  27  28
HETATM   28  C5  UNL     1      20.178   0.944  50.954  1.00  0.00     0.101 C 
HETATM   29  C1  UNL     1      19.936   2.166  51.731  1.00  0.00     0.136 C 
HETATM   30  O1  UNL     1      20.516   2.969  52.461  1.00  0.00    -0.297 OA
HETATM   31  C2  UNL     1      18.489   2.579  51.582  1.00  0.00     0.108 C 
HETATM   32  C3  UNL     1      18.377   2.989  50.105  1.00  0.00     0.277 C 
HETATM   33  N1  UNL     1      18.640   1.782  49.329  1.00  0.00     0.084 N 
HETATM   34  C4  UNL     1      20.019   1.359  49.480  1.00  0.00     0.283 C 
HETATM   35  H5  UNL     1      18.383   1.957  48.339  1.00  0.00     0.315 HD
ENDBRANCH  27  28
ENDBRANCH   1  27
TORSDOF 5
ENDMDL
