MODEL 1
REMARK VINA RESULT:      -9.4      0.000      0.000
REMARK  5 active torsions:
REMARK  status: ('A' for Active; 'I' for Inactive)
REMARK    1  A    between atoms: C2_2  and  C3_3 
REMARK    2  A    between atoms: C8_9  and  C9_10 
REMARK    3  A    between atoms: C9_10  and  N1_11 
REMARK    4  A    between atoms: C16_19  and  N2_20 
REMARK    5  A    between atoms: N2_20  and  C17_21 
ROOT
HETATM    1  N1  UNL     1      24.863   0.956  53.393  1.00  0.00    -0.350 N 
HETATM    2  C10 UNL     1      23.598   0.328  53.479  1.00  0.00     0.201 A 
HETATM    3  O2  UNL     1      23.697  -0.721  54.165  1.00  0.00    -0.344 OA
HETATM    4  C11 UNL     1      22.304  -0.311  53.567  1.00  0.00     0.184 A 
HETATM    5  C12 UNL     1      22.111  -1.431  54.225  1.00  0.00     0.040 C 
HETATM    6  C13 UNL     1      24.017   1.836  52.635  1.00  0.00     0.244 A 
HETATM    7  C14 UNL     1      24.388   1.949  51.228  1.00  0.00     0.026 C 
HETATM    8  C15 UNL     1      24.520   2.768  50.198  1.00  0.00     0.050 C 
HETATM    9  C16 UNL     1      24.212   4.189  50.319  1.00  0.00     0.129 C 
HETATM   10  N3  UNL     1      23.917   4.906  51.381  1.00  0.00    -0.225 NA
HETATM   11  C23 UNL     1      23.858   4.298  52.691  1.00  0.00     0.232 C 
HETATM   12  N4  UNL     1      23.890   3.139  53.232  1.00  0.00    -0.252 NA
ENDROOT
BRANCH   1  13
HETATM   13  C9  UNL     1      25.989   0.343  54.050  1.00  0.00     0.131 C 
BRANCH  13  14
HETATM   14  C8  UNL     1      27.255   0.449  53.227  1.00  0.00     0.036 C 
HETATM   15  C4  UNL     1      28.463   0.175  54.027  1.00  0.00    -0.051 C 
HETATM   16  C3  UNL     1      29.284  -0.847  53.854  1.00  0.00     0.005 C 
HETATM   17  C5  UNL     1      28.736   1.173  55.115  1.00  0.00     0.202 C 
HETATM   18  O1  UNL     1      28.765   2.433  54.557  1.00  0.00    -0.387 OA
HETATM   19  C6  UNL     1      28.740   2.432  53.166  1.00  0.00     0.168 C 
HETATM   20  C7  UNL     1      27.412   1.861  52.668  1.00  0.00     0.037 C 
BRANCH  16  21
HETATM   21  C2  UNL     1      29.123  -1.875  52.838  1.00  0.00    -0.010 C 
HETATM   22  C1  UNL     1      28.152  -2.761  52.879  1.00  0.00     0.011 C 
ENDBRANCH  16  21
ENDBRANCH  13  14
ENDBRANCH   1  13
BRANCH   9  23
HETATM   23  N2  UNL     1      24.236   4.909  49.098  1.00  0.00    -0.341 N 
HETATM   24  H20 UNL     1      23.400   4.787  48.460  1.00  0.00     0.167 HD
BRANCH  23  25
HETATM   25  C17 UNL     1      25.343   5.755  48.762  1.00  0.00     0.034 A 
HETATM   26  C18 UNL     1      24.998   7.073  48.500  1.00  0.00     0.029 A 
HETATM   27  C19 UNL     1      26.014   7.945  48.169  1.00  0.00     0.004 A 
HETATM   28  C20 UNL     1      27.329   7.533  48.098  1.00  0.00     0.019 A 
HETATM   29  C21 UNL     1      27.673   6.216  48.360  1.00  0.00     0.013 A 
HETATM   30 BR1  UNL     1      29.483   5.618  48.270  1.00  0.00    -0.051 Br
HETATM   31  C22 UNL     1      26.664   5.331  48.693  1.00  0.00     0.048 A 
ENDBRANCH  23  25
ENDBRANCH   9  23
TORSDOF 5
ENDMDL
MODEL 2
REMARK VINA RESULT:      -9.3      1.785      2.735
REMARK  5 active torsions:
REMARK  status: ('A' for Active; 'I' for Inactive)
REMARK    1  A    between atoms: C2_2  and  C3_3 
REMARK    2  A    between atoms: C8_9  and  C9_10 
REMARK    3  A    between atoms: C9_10  and  N1_11 
REMARK    4  A    between atoms: C16_19  and  N2_20 
REMARK    5  A    between atoms: N2_20  and  C17_21 
ROOT
HETATM    1  N1  UNL     1      23.305   0.542  52.996  1.00  0.00    -0.350 N 
HETATM    2  C10 UNL     1      22.002   0.033  53.206  1.00  0.00     0.201 A 
HETATM    3  O2  UNL     1      22.063  -0.981  53.947  1.00  0.00    -0.344 OA
HETATM    4  C11 UNL     1      20.669  -0.485  53.420  1.00  0.00     0.184 A 
HETATM    5  C12 UNL     1      20.432  -1.545  54.158  1.00  0.00     0.040 C 
HETATM    6  C13 UNL     1      22.482   1.449  52.244  1.00  0.00     0.244 A 
HETATM    7  C14 UNL     1      22.759   1.451  50.811  1.00  0.00     0.026 C 
HETATM    8  C15 UNL     1      22.883   2.197  49.726  1.00  0.00     0.050 C 
HETATM    9  C16 UNL     1      22.704   3.644  49.780  1.00  0.00     0.129 C 
HETATM   10  N3  UNL     1      22.549   4.442  50.814  1.00  0.00    -0.225 NA
HETATM   11  C23 UNL     1      22.535   3.915  52.160  1.00  0.00     0.232 C 
HETATM   12  N4  UNL     1      22.509   2.789  52.767  1.00  0.00    -0.252 NA
ENDROOT
BRANCH   1  13
HETATM   13  C9  UNL     1      24.421  -0.131  53.612  1.00  0.00     0.131 C 
BRANCH  13  14
HETATM   14  C8  UNL     1      25.675   0.718  53.595  1.00  0.00     0.036 C 
HETATM   15  C4  UNL     1      26.559   0.380  52.464  1.00  0.00    -0.051 C 
HETATM   16  C3  UNL     1      26.859   1.181  51.456  1.00  0.00     0.005 C 
HETATM   17  C5  UNL     1      27.141  -1.003  52.514  1.00  0.00     0.202 C 
HETATM   18  O1  UNL     1      27.774  -1.169  53.728  1.00  0.00    -0.387 OA
HETATM   19  C6  UNL     1      27.879   0.002  54.471  1.00  0.00     0.168 C 
HETATM   20  C7  UNL     1      26.489   0.496  54.867  1.00  0.00     0.037 C 
BRANCH  16  21
HETATM   21  C2  UNL     1      26.357   2.537  51.299  1.00  0.00    -0.010 C 
HETATM   22  C1  UNL     1      26.498   3.216  50.181  1.00  0.00     0.011 C 
ENDBRANCH  16  21
ENDBRANCH  13  14
ENDBRANCH   1  13
BRANCH   9  23
HETATM   23  N2  UNL     1      22.699   4.291  48.518  1.00  0.00    -0.341 N 
HETATM   24  H20 UNL     1      22.135   3.827  47.752  1.00  0.00     0.167 HD
BRANCH  23  25
HETATM   25  C17 UNL     1      23.425   5.509  48.310  1.00  0.00     0.034 A 
HETATM   26  C18 UNL     1      22.651   6.566  47.856  1.00  0.00     0.029 A 
HETATM   27  C19 UNL     1      23.284   7.771  47.633  1.00  0.00     0.004 A 
HETATM   28  C20 UNL     1      24.638   7.930  47.851  1.00  0.00     0.019 A 
HETATM   29  C21 UNL     1      25.411   6.873  48.305  1.00  0.00     0.013 A 
HETATM   30 BR1  UNL     1      27.284   7.063  48.615  1.00  0.00    -0.051 Br
HETATM   31  C22 UNL     1      24.788   5.659  48.532  1.00  0.00     0.048 A 
ENDBRANCH  23  25
ENDBRANCH   9  23
TORSDOF 5
ENDMDL
MODEL 3
REMARK VINA RESULT:      -9.3      2.504      4.178
REMARK  5 active torsions:
REMARK  status: ('A' for Active; 'I' for Inactive)
REMARK    1  A    between atoms: C2_2  and  C3_3 
REMARK    2  A    between atoms: C8_9  and  C9_10 
REMARK    3  A    between atoms: C9_10  and  N1_11 
REMARK    4  A    between atoms: C16_19  and  N2_20 
REMARK    5  A    between atoms: N2_20  and  C17_21 
ROOT
HETATM    1  N1  UNL     1      24.997   3.167  51.308  1.00  0.00    -0.350 N 
HETATM    2  C10 UNL     1      23.922   2.766  50.482  1.00  0.00     0.201 A 
HETATM    3  O2  UNL     1      23.288   1.836  51.040  1.00  0.00    -0.344 OA
HETATM    4  C11 UNL     1      22.824   2.359  49.634  1.00  0.00     0.184 A 
HETATM    5  C12 UNL     1      21.990   1.401  49.968  1.00  0.00     0.040 C 
HETATM    6  C13 UNL     1      25.125   4.039  50.173  1.00  0.00     0.244 A 
HETATM    7  C14 UNL     1      26.373   3.870  49.435  1.00  0.00     0.026 C 
HETATM    8  C15 UNL     1      27.353   4.486  48.794  1.00  0.00     0.050 C 
HETATM    9  C16 UNL     1      27.371   5.939  48.660  1.00  0.00     0.129 C 
HETATM   10  N3  UNL     1      26.597   6.851  49.207  1.00  0.00    -0.225 NA
HETATM   11  C23 UNL     1      25.523   6.473  50.097  1.00  0.00     0.232 C 
HETATM   12  N4  UNL     1      24.917   5.423  50.506  1.00  0.00    -0.252 NA
ENDROOT
BRANCH   1  13
HETATM   13  C9  UNL     1      25.191   2.497  52.569  1.00  0.00     0.131 C 
BRANCH  13  14
HETATM   14  C8  UNL     1      25.303   0.996  52.403  1.00  0.00     0.036 C 
HETATM   15  C4  UNL     1      25.210   0.286  53.693  1.00  0.00    -0.051 C 
HETATM   16  C3  UNL     1      24.240  -0.540  54.047  1.00  0.00     0.005 C 
HETATM   17  C5  UNL     1      26.338   0.561  54.644  1.00  0.00     0.202 C 
HETATM   18  O1  UNL     1      27.529   0.300  54.000  1.00  0.00    -0.387 OA
HETATM   19  C6  UNL     1      27.374  -0.316  52.762  1.00  0.00     0.168 C 
HETATM   20  C7  UNL     1      26.654   0.624  51.797  1.00  0.00     0.037 C 
BRANCH  16  21
HETATM   21  C2  UNL     1      23.099  -0.882  53.213  1.00  0.00    -0.010 C 
HETATM   22  C1  UNL     1      21.891  -0.417  53.447  1.00  0.00     0.011 C 
ENDBRANCH  16  21
ENDBRANCH  13  14
ENDBRANCH   1  13
BRANCH   9  23
HETATM   23  N2  UNL     1      28.384   6.446  47.809  1.00  0.00    -0.341 N 
HETATM   24  H20 UNL     1      28.060   6.929  46.924  1.00  0.00     0.167 HD
BRANCH  23  25
HETATM   25  C17 UNL     1      29.770   6.303  48.145  1.00  0.00     0.034 A 
HETATM   26  C18 UNL     1      30.289   7.352  48.890  1.00  0.00     0.029 A 
HETATM   27  C19 UNL     1      31.619   7.282  49.250  1.00  0.00     0.004 A 
HETATM   28  C20 UNL     1      32.413   6.213  48.887  1.00  0.00     0.019 A 
HETATM   29  C21 UNL     1      31.894   5.166  48.142  1.00  0.00     0.013 A 
HETATM   30 BR1  UNL     1      32.968   3.675  47.626  1.00  0.00    -0.051 Br
HETATM   31  C22 UNL     1      30.562   5.223  47.775  1.00  0.00     0.048 A 
ENDBRANCH  23  25
ENDBRANCH   9  23
TORSDOF 5
ENDMDL
MODEL 4
REMARK VINA RESULT:      -9.3      2.523      4.194
REMARK  5 active torsions:
REMARK  status: ('A' for Active; 'I' for Inactive)
REMARK    1  A    between atoms: C2_2  and  C3_3 
REMARK    2  A    between atoms: C8_9  and  C9_10 
REMARK    3  A    between atoms: C9_10  and  N1_11 
REMARK    4  A    between atoms: C16_19  and  N2_20 
REMARK    5  A    between atoms: N2_20  and  C17_21 
ROOT
HETATM    1  N1  UNL     1      25.007   3.101  51.349  1.00  0.00    -0.350 N 
HETATM    2  C10 UNL     1      23.928   2.688  50.533  1.00  0.00     0.201 A 
HETATM    3  O2  UNL     1      23.308   1.754  51.100  1.00  0.00    -0.344 OA
HETATM    4  C11 UNL     1      22.826   2.270  49.697  1.00  0.00     0.184 A 
HETATM    5  C12 UNL     1      22.004   1.304  50.041  1.00  0.00     0.040 C 
HETATM    6  C13 UNL     1      25.117   3.971  50.211  1.00  0.00     0.244 A 
HETATM    7  C14 UNL     1      26.360   3.811  49.462  1.00  0.00     0.026 C 
HETATM    8  C15 UNL     1      27.328   4.434  48.810  1.00  0.00     0.050 C 
HETATM    9  C16 UNL     1      27.332   5.887  48.673  1.00  0.00     0.129 C 
HETATM   10  N3  UNL     1      26.555   6.794  49.224  1.00  0.00    -0.225 NA
HETATM   11  C23 UNL     1      25.492   6.408  50.126  1.00  0.00     0.232 C 
HETATM   12  N4  UNL     1      24.900   5.354  50.543  1.00  0.00    -0.252 NA
ENDROOT
BRANCH   1  13
HETATM   13  C9  UNL     1      25.219   2.435  52.610  1.00  0.00     0.131 C 
BRANCH  13  14
HETATM   14  C8  UNL     1      25.304   0.932  52.451  1.00  0.00     0.036 C 
HETATM   15  C4  UNL     1      25.210   0.231  53.746  1.00  0.00    -0.051 C 
HETATM   16  C3  UNL     1      24.230  -0.576  54.114  1.00  0.00     0.005 C 
HETATM   17  C5  UNL     1      26.352   0.492  54.685  1.00  0.00     0.202 C 
HETATM   18  O1  UNL     1      27.532   0.207  54.031  1.00  0.00    -0.387 OA
HETATM   19  C6  UNL     1      27.355  -0.413  52.798  1.00  0.00     0.168 C 
HETATM   20  C7  UNL     1      26.642   0.533  51.834  1.00  0.00     0.037 C 
BRANCH  16  21
HETATM   21  C2  UNL     1      23.075  -0.904  53.293  1.00  0.00    -0.010 C 
HETATM   22  C1  UNL     1      21.875  -0.425  53.541  1.00  0.00     0.011 C 
ENDBRANCH  16  21
ENDBRANCH  13  14
ENDBRANCH   1  13
BRANCH   9  23
HETATM   23  N2  UNL     1      28.333   6.401  47.811  1.00  0.00    -0.341 N 
HETATM   24  H20 UNL     1      28.216   6.200  46.778  1.00  0.00     0.167 HD
BRANCH  23  25
HETATM   25  C17 UNL     1      29.439   7.151  48.329  1.00  0.00     0.034 A 
HETATM   26  C18 UNL     1      30.507   6.376  48.755  1.00  0.00     0.029 A 
HETATM   27  C19 UNL     1      31.608   7.032  49.266  1.00  0.00     0.004 A 
HETATM   28  C20 UNL     1      31.655   8.409  49.354  1.00  0.00     0.019 A 
HETATM   29  C21 UNL     1      30.587   9.182  48.928  1.00  0.00     0.013 A 
HETATM   30 BR1  UNL     1      30.624  11.087  49.037  1.00  0.00    -0.051 Br
HETATM   31  C22 UNL     1      29.477   8.537  48.413  1.00  0.00     0.048 A 
ENDBRANCH  23  25
ENDBRANCH   9  23
TORSDOF 5
ENDMDL
MODEL 5
REMARK VINA RESULT:      -9.2      4.104      6.780
REMARK  5 active torsions:
REMARK  status: ('A' for Active; 'I' for Inactive)
REMARK    1  A    between atoms: C2_2  and  C3_3 
REMARK    2  A    between atoms: C8_9  and  C9_10 
REMARK    3  A    between atoms: C9_10  and  N1_11 
REMARK    4  A    between atoms: C16_19  and  N2_20 
REMARK    5  A    between atoms: N2_20  and  C17_21 
ROOT
HETATM    1  N1  UNL     1      25.641   3.030  50.453  1.00  0.00    -0.350 N 
HETATM    2  C10 UNL     1      26.139   4.058  49.619  1.00  0.00     0.201 A 
HETATM    3  O2  UNL     1      27.395   4.030  49.624  1.00  0.00    -0.344 OA
HETATM    4  C11 UNL     1      26.644   5.110  48.766  1.00  0.00     0.184 A 
HETATM    5  C12 UNL     1      27.929   5.316  48.583  1.00  0.00     0.040 C 
HETATM    6  C13 UNL     1      24.442   3.653  49.964  1.00  0.00     0.244 A 
HETATM    7  C14 UNL     1      23.619   4.254  51.010  1.00  0.00     0.026 C 
HETATM    8  C15 UNL     1      22.387   4.455  51.446  1.00  0.00     0.050 C 
HETATM    9  C16 UNL     1      21.233   3.942  50.714  1.00  0.00     0.129 C 
HETATM   10  N3  UNL     1      21.177   3.140  49.673  1.00  0.00    -0.225 NA
HETATM   11  C23 UNL     1      22.386   2.622  49.072  1.00  0.00     0.232 C 
HETATM   12  N4  UNL     1      23.654   2.777  49.140  1.00  0.00    -0.252 NA
ENDROOT
BRANCH   1  13
HETATM   13  C9  UNL     1      26.579   2.172  51.133  1.00  0.00     0.131 C 
BRANCH  13  14
HETATM   14  C8  UNL     1      25.891   1.013  51.823  1.00  0.00     0.036 C 
HETATM   15  C4  UNL     1      25.094   1.452  52.985  1.00  0.00    -0.051 C 
HETATM   16  C3  UNL     1      23.780   1.369  53.089  1.00  0.00     0.005 C 
HETATM   17  C5  UNL     1      25.897   2.031  54.113  1.00  0.00     0.202 C 
HETATM   18  O1  UNL     1      26.870   1.122  54.472  1.00  0.00    -0.387 OA
HETATM   19  C6  UNL     1      26.731  -0.119  53.860  1.00  0.00     0.168 C 
HETATM   20  C7  UNL     1      26.921   0.017  52.351  1.00  0.00     0.037 C 
BRANCH  16  21
HETATM   21  C2  UNL     1      22.900   0.829  52.065  1.00  0.00    -0.010 C 
HETATM   22  C1  UNL     1      21.974  -0.066  52.333  1.00  0.00     0.011 C 
ENDBRANCH  16  21
ENDBRANCH  13  14
ENDBRANCH   1  13
BRANCH   9  23
HETATM   23  N2  UNL     1      19.976   4.376  51.204  1.00  0.00    -0.341 N 
HETATM   24  H20 UNL     1      19.895   5.401  51.455  1.00  0.00     0.167 HD
BRANCH  23  25
HETATM   25  C17 UNL     1      18.883   3.460  51.345  1.00  0.00     0.034 A 
HETATM   26  C18 UNL     1      17.638   4.010  51.082  1.00  0.00     0.029 A 
HETATM   27  C19 UNL     1      16.537   3.185  51.198  1.00  0.00     0.004 A 
HETATM   28  C20 UNL     1      16.661   1.860  51.563  1.00  0.00     0.019 A 
HETATM   29  C21 UNL     1      17.906   1.311  51.827  1.00  0.00     0.013 A 
HETATM   30 BR1  UNL     1      18.106  -0.518  52.332  1.00  0.00    -0.051 Br
HETATM   31  C22 UNL     1      19.017   2.127  51.713  1.00  0.00     0.048 A 
ENDBRANCH  23  25
ENDBRANCH   9  23
TORSDOF 5
ENDMDL
MODEL 6
REMARK VINA RESULT:      -8.7      3.236      5.797
REMARK  5 active torsions:
REMARK  status: ('A' for Active; 'I' for Inactive)
REMARK    1  A    between atoms: C2_2  and  C3_3 
REMARK    2  A    between atoms: C8_9  and  C9_10 
REMARK    3  A    between atoms: C9_10  and  N1_11 
REMARK    4  A    between atoms: C16_19  and  N2_20 
REMARK    5  A    between atoms: N2_20  and  C17_21 
ROOT
HETATM    1  N1  UNL     1      24.906   0.780  53.316  1.00  0.00    -0.350 N 
HETATM    2  C10 UNL     1      26.254   0.956  53.703  1.00  0.00     0.201 A 
HETATM    3  O2  UNL     1      26.636  -0.045  54.360  1.00  0.00    -0.344 OA
HETATM    4  C11 UNL     1      27.633   1.140  54.097  1.00  0.00     0.184 A 
HETATM    5  C12 UNL     1      28.293   0.246  54.798  1.00  0.00     0.040 C 
HETATM    6  C13 UNL     1      25.232   2.064  52.760  1.00  0.00     0.244 A 
HETATM    7  C14 UNL     1      24.441   3.164  53.303  1.00  0.00     0.026 C 
HETATM    8  C15 UNL     1      23.803   4.289  53.026  1.00  0.00     0.050 C 
HETATM    9  C16 UNL     1      23.760   4.817  51.666  1.00  0.00     0.129 C 
HETATM   10  N3  UNL     1      24.165   4.283  50.535  1.00  0.00    -0.225 NA
HETATM   11  C23 UNL     1      24.766   2.968  50.511  1.00  0.00     0.232 C 
HETATM   12  N4  UNL     1      25.194   2.075  51.322  1.00  0.00    -0.252 NA
ENDROOT
BRANCH   1  13
HETATM   13  C9  UNL     1      24.223  -0.428  53.706  1.00  0.00     0.131 C 
BRANCH  13  14
HETATM   14  C8  UNL     1      22.898  -0.588  52.990  1.00  0.00     0.036 C 
HETATM   15  C4  UNL     1      21.883   0.362  53.483  1.00  0.00    -0.051 C 
HETATM   16  C3  UNL     1      21.337   1.337  52.777  1.00  0.00     0.005 C 
HETATM   17  C5  UNL     1      21.471   0.157  54.912  1.00  0.00     0.202 C 
HETATM   18  O1  UNL     1      21.068  -1.153  55.068  1.00  0.00    -0.387 OA
HETATM   19  C6  UNL     1      20.959  -1.853  53.872  1.00  0.00     0.168 C 
HETATM   20  C7  UNL     1      22.333  -1.988  53.218  1.00  0.00     0.037 C 
BRANCH  16  21
HETATM   21  C2  UNL     1      21.655   1.633  51.389  1.00  0.00    -0.010 C 
HETATM   22  C1  UNL     1      21.001   1.089  50.385  1.00  0.00     0.011 C 
ENDBRANCH  16  21
ENDBRANCH  13  14
ENDBRANCH   1  13
BRANCH   9  23
HETATM   23  N2  UNL     1      23.188   6.109  51.547  1.00  0.00    -0.341 N 
HETATM   24  H20 UNL     1      23.727   6.906  51.989  1.00  0.00     0.167 HD
BRANCH  23  25
HETATM   25  C17 UNL     1      21.946   6.307  50.861  1.00  0.00     0.034 A 
HETATM   26  C18 UNL     1      21.752   7.596  50.389  1.00  0.00     0.029 A 
HETATM   27  C19 UNL     1      20.576   7.860  49.717  1.00  0.00     0.004 A 
HETATM   28  C20 UNL     1      19.622   6.884  49.516  1.00  0.00     0.019 A 
HETATM   29  C21 UNL     1      19.817   5.595  49.988  1.00  0.00     0.013 A 
HETATM   30 BR1  UNL     1      18.515   4.225  49.724  1.00  0.00    -0.051 Br
HETATM   31  C22 UNL     1      20.991   5.317  50.663  1.00  0.00     0.048 A 
ENDBRANCH  23  25
ENDBRANCH   9  23
TORSDOF 5
ENDMDL
MODEL 7
REMARK VINA RESULT:      -8.4      4.513      7.384
REMARK  5 active torsions:
REMARK  status: ('A' for Active; 'I' for Inactive)
REMARK    1  A    between atoms: C2_2  and  C3_3 
REMARK    2  A    between atoms: C8_9  and  C9_10 
REMARK    3  A    between atoms: C9_10  and  N1_11 
REMARK    4  A    between atoms: C16_19  and  N2_20 
REMARK    5  A    between atoms: N2_20  and  C17_21 
ROOT
HETATM    1  N1  UNL     1      24.794   2.549  50.925  1.00  0.00    -0.350 N 
HETATM    2  C10 UNL     1      24.992   3.691  50.115  1.00  0.00     0.201 A 
HETATM    3  O2  UNL     1      26.214   3.987  50.101  1.00  0.00    -0.344 OA
HETATM    4  C11 UNL     1      25.192   4.859  49.286  1.00  0.00     0.184 A 
HETATM    5  C12 UNL     1      26.375   5.393  49.090  1.00  0.00     0.040 C 
HETATM    6  C13 UNL     1      23.465   2.854  50.473  1.00  0.00     0.244 A 
HETATM    7  C14 UNL     1      22.538   3.196  51.547  1.00  0.00     0.026 C 
HETATM    8  C15 UNL     1      21.304   3.062  52.007  1.00  0.00     0.050 C 
HETATM    9  C16 UNL     1      20.306   2.287  51.276  1.00  0.00     0.129 C 
HETATM   10  N3  UNL     1      20.436   1.524  50.214  1.00  0.00    -0.225 NA
HETATM   11  C23 UNL     1      21.724   1.350  49.580  1.00  0.00     0.232 C 
HETATM   12  N4  UNL     1      22.911   1.825  49.634  1.00  0.00    -0.252 NA
ENDROOT
BRANCH   1  13
HETATM   13  C9  UNL     1      25.935   1.945  51.566  1.00  0.00     0.131 C 
BRANCH  13  14
HETATM   14  C8  UNL     1      25.645   0.533  52.031  1.00  0.00     0.036 C 
HETATM   15  C4  UNL     1      25.151   0.497  53.420  1.00  0.00    -0.051 C 
HETATM   16  C3  UNL     1      23.945   0.108  53.796  1.00  0.00     0.005 C 
HETATM   17  C5  UNL     1      26.144   0.947  54.452  1.00  0.00     0.202 C 
HETATM   18  O1  UNL     1      27.301   0.211  54.298  1.00  0.00    -0.387 OA
HETATM   19  C6  UNL     1      27.178  -0.846  53.403  1.00  0.00     0.168 C 
HETATM   20  C7  UNL     1      26.916  -0.313  51.996  1.00  0.00     0.037 C 
BRANCH  16  21
HETATM   21  C2  UNL     1      22.902  -0.347  52.891  1.00  0.00    -0.010 C 
HETATM   22  C1  UNL     1      21.717  -0.730  53.317  1.00  0.00     0.011 C 
ENDBRANCH  16  21
ENDBRANCH  13  14
ENDBRANCH   1  13
BRANCH   9  23
HETATM   23  N2  UNL     1      18.991   2.370  51.798  1.00  0.00    -0.341 N 
HETATM   24  H20 UNL     1      18.766   3.225  52.380  1.00  0.00     0.167 HD
BRANCH  23  25
HETATM   25  C17 UNL     1      18.028   1.340  51.539  1.00  0.00     0.034 A 
HETATM   26  C18 UNL     1      18.267   0.151  52.211  1.00  0.00     0.029 A 
HETATM   27  C19 UNL     1      17.380  -0.886  52.010  1.00  0.00     0.004 A 
HETATM   28  C20 UNL     1      16.291  -0.755  51.172  1.00  0.00     0.019 A 
HETATM   29  C21 UNL     1      16.054   0.434  50.500  1.00  0.00     0.013 A 
HETATM   30 BR1  UNL     1      14.556   0.643  49.335  1.00  0.00    -0.051 Br
HETATM   31  C22 UNL     1      16.935   1.481  50.693  1.00  0.00     0.048 A 
ENDBRANCH  23  25
ENDBRANCH   9  23
TORSDOF 5
ENDMDL
MODEL 8
REMARK VINA RESULT:      -8.4      4.760      7.690
REMARK  5 active torsions:
REMARK  status: ('A' for Active; 'I' for Inactive)
REMARK    1  A    between atoms: C2_2  and  C3_3 
REMARK    2  A    between atoms: C8_9  and  C9_10 
REMARK    3  A    between atoms: C9_10  and  N1_11 
REMARK    4  A    between atoms: C16_19  and  N2_20 
REMARK    5  A    between atoms: N2_20  and  C17_21 
ROOT
HETATM    1  N1  UNL     1      23.626   1.879  52.536  1.00  0.00    -0.350 N 
HETATM    2  C10 UNL     1      24.537   0.800  52.466  1.00  0.00     0.201 A 
HETATM    3  O2  UNL     1      25.705   1.246  52.333  1.00  0.00    -0.344 OA
HETATM    4  C11 UNL     1      25.467  -0.305  52.396  1.00  0.00     0.184 A 
HETATM    5  C12 UNL     1      26.762  -0.133  52.256  1.00  0.00     0.040 C 
HETATM    6  C13 UNL     1      22.771   0.730  52.656  1.00  0.00     0.244 A 
HETATM    7  C14 UNL     1      21.803   0.596  51.572  1.00  0.00     0.026 C 
HETATM    8  C15 UNL     1      20.558   0.278  51.255  1.00  0.00     0.050 C 
HETATM    9  C16 UNL     1      19.602  -0.140  52.275  1.00  0.00     0.129 C 
HETATM   10  N3  UNL     1      19.709  -0.147  53.586  1.00  0.00    -0.225 NA
HETATM   11  C23 UNL     1      20.920   0.307  54.232  1.00  0.00     0.232 C 
HETATM   12  N4  UNL     1      22.114   0.655  53.934  1.00  0.00    -0.252 NA
ENDROOT
BRANCH   1  13
HETATM   13  C9  UNL     1      24.134   3.224  52.446  1.00  0.00     0.131 C 
BRANCH  13  14
HETATM   14  C8  UNL     1      23.516   3.990  51.295  1.00  0.00     0.036 C 
HETATM   15  C4  UNL     1      24.235   3.762  50.027  1.00  0.00    -0.051 C 
HETATM   16  C3  UNL     1      23.740   3.159  48.961  1.00  0.00     0.005 C 
HETATM   17  C5  UNL     1      25.644   4.281  50.003  1.00  0.00     0.202 C 
HETATM   18  O1  UNL     1      25.626   5.615  50.351  1.00  0.00    -0.387 OA
HETATM   19  C6  UNL     1      24.347   6.157  50.430  1.00  0.00     0.168 C 
HETATM   20  C7  UNL     1      23.567   5.492  51.563  1.00  0.00     0.037 C 
BRANCH  16  21
HETATM   21  C2  UNL     1      22.395   2.616  48.867  1.00  0.00    -0.010 C 
HETATM   22  C1  UNL     1      22.062   1.706  47.976  1.00  0.00     0.011 C 
ENDBRANCH  16  21
ENDBRANCH  13  14
ENDBRANCH   1  13
BRANCH   9  23
HETATM   23  N2  UNL     1      18.363  -0.609  51.773  1.00  0.00    -0.341 N 
HETATM   24  H20 UNL     1      18.140  -1.630  51.943  1.00  0.00     0.167 HD
BRANCH  23  25
HETATM   25  C17 UNL     1      17.470   0.268  51.074  1.00  0.00     0.034 A 
HETATM   26  C18 UNL     1      16.965  -0.253  49.892  1.00  0.00     0.029 A 
HETATM   27  C19 UNL     1      16.098   0.537  49.165  1.00  0.00     0.004 A 
HETATM   28  C20 UNL     1      15.739   1.800  49.590  1.00  0.00     0.019 A 
HETATM   29  C21 UNL     1      16.245   2.319  50.772  1.00  0.00     0.013 A 
HETATM   30 BR1  UNL     1      15.766   4.062  51.384  1.00  0.00    -0.051 Br
HETATM   31  C22 UNL     1      17.115   1.538  51.510  1.00  0.00     0.048 A 
ENDBRANCH  23  25
ENDBRANCH   9  23
TORSDOF 5
ENDMDL
MODEL 9
REMARK VINA RESULT:      -8.3      2.627      5.323
REMARK  5 active torsions:
REMARK  status: ('A' for Active; 'I' for Inactive)
REMARK    1  A    between atoms: C2_2  and  C3_3 
REMARK    2  A    between atoms: C8_9  and  C9_10 
REMARK    3  A    between atoms: C9_10  and  N1_11 
REMARK    4  A    between atoms: C16_19  and  N2_20 
REMARK    5  A    between atoms: N2_20  and  C17_21 
ROOT
HETATM    1  N1  UNL     1      24.736   1.224  53.129  1.00  0.00    -0.350 N 
HETATM    2  C10 UNL     1      26.105   1.498  53.353  1.00  0.00     0.201 A 
HETATM    3  O2  UNL     1      26.620   0.553  54.002  1.00  0.00    -0.344 OA
HETATM    4  C11 UNL     1      27.505   1.780  53.579  1.00  0.00     0.184 A 
HETATM    5  C12 UNL     1      28.294   0.961  54.235  1.00  0.00     0.040 C 
HETATM    6  C13 UNL     1      24.916   2.497  52.487  1.00  0.00     0.244 A 
HETATM    7  C14 UNL     1      24.122   3.573  53.072  1.00  0.00     0.026 C 
HETATM    8  C15 UNL     1      23.386   4.644  52.823  1.00  0.00     0.050 C 
HETATM    9  C16 UNL     1      23.159   5.103  51.457  1.00  0.00     0.129 C 
HETATM   10  N3  UNL     1      23.468   4.540  50.310  1.00  0.00    -0.225 NA
HETATM   11  C23 UNL     1      24.146   3.263  50.272  1.00  0.00     0.232 C 
HETATM   12  N4  UNL     1      24.717   2.437  51.064  1.00  0.00    -0.252 NA
ENDROOT
BRANCH   1  13
HETATM   13  C9  UNL     1      24.179  -0.001  53.644  1.00  0.00     0.131 C 
BRANCH  13  14
HETATM   14  C8  UNL     1      22.860  -0.347  52.986  1.00  0.00     0.036 C 
HETATM   15  C4  UNL     1      21.743   0.448  53.530  1.00  0.00    -0.051 C 
HETATM   16  C3  UNL     1      21.033   1.337  52.857  1.00  0.00     0.005 C 
HETATM   17  C5  UNL     1      21.429   0.184  54.974  1.00  0.00     0.202 C 
HETATM   18  O1  UNL     1      21.223  -1.170  55.137  1.00  0.00    -0.387 OA
HETATM   19  C6  UNL     1      21.161  -1.877  53.940  1.00  0.00     0.168 C 
HETATM   20  C7  UNL     1      22.510  -1.814  53.226  1.00  0.00     0.037 C 
BRANCH  16  21
HETATM   21  C2  UNL     1      21.244   1.678  51.459  1.00  0.00    -0.010 C 
HETATM   22  C1  UNL     1      20.657   1.026  50.479  1.00  0.00     0.011 C 
ENDBRANCH  16  21
ENDBRANCH  13  14
ENDBRANCH   1  13
BRANCH   9  23
HETATM   23  N2  UNL     1      22.496   6.352  51.352  1.00  0.00    -0.341 N 
HETATM   24  H20 UNL     1      21.638   6.484  51.957  1.00  0.00     0.167 HD
BRANCH  23  25
HETATM   25  C17 UNL     1      22.979   7.372  50.467  1.00  0.00     0.034 A 
HETATM   26  C18 UNL     1      24.319   7.688  50.636  1.00  0.00     0.029 A 
HETATM   27  C19 UNL     1      24.853   8.663  49.818  1.00  0.00     0.004 A 
HETATM   28  C20 UNL     1      24.090   9.305  48.864  1.00  0.00     0.019 A 
HETATM   29  C21 UNL     1      22.751   8.989  48.697  1.00  0.00     0.013 A 
HETATM   30 BR1  UNL     1      21.673   9.860  47.385  1.00  0.00    -0.051 Br
HETATM   31  C22 UNL     1      22.204   8.013  49.510  1.00  0.00     0.048 A 
ENDBRANCH  23  25
ENDBRANCH   9  23
TORSDOF 5
ENDMDL
