MODEL 1
REMARK VINA RESULT:      -8.9      0.000      0.000
REMARK  7 active torsions:
REMARK  status: ('A' for Active; 'I' for Inactive)
REMARK    1  A    between atoms: N1_2  and  C3_4 
REMARK    2  A    between atoms: C3_4  and  C4_5 
REMARK    3  A    between atoms: C4_5  and  P1_6 
REMARK    4  A    between atoms: P1_6  and  C5_7 
REMARK       I    between atoms: C5_7  and  N2_9 
REMARK    5  A    between atoms: C8_12  and  N3_13 
REMARK    6  A    between atoms: N3_13  and  C9_14 
REMARK    7  A    between atoms: C17_26  and  C18_27 
ROOT
HETATM    1  C5  UNL     1      22.209   2.341  50.403  1.00  0.00     0.253 C 
HETATM    2  O1  UNL     1      20.933   2.303  50.482  1.00  0.00    -0.267 OA
HETATM    3  N2  UNL     1      22.687   1.604  51.512  1.00  0.00    -0.339 N 
HETATM    4  C6  UNL     1      21.535   1.132  52.247  1.00  0.00     0.171 C 
HETATM    5  C7  UNL     1      22.098   0.220  53.274  1.00  0.00     0.033 A 
HETATM    6  C8  UNL     1      21.293  -0.412  54.094  1.00  0.00     0.139 A 
HETATM    7  N4  UNL     1      21.758  -1.297  55.097  1.00  0.00    -0.226 NA
HETATM    8  C15 UNL     1      23.046  -1.519  55.245  1.00  0.00     0.209 A 
HETATM    9  N5  UNL     1      23.929  -0.845  54.371  1.00  0.00    -0.350 N 
HETATM   10  C16 UNL     1      23.518   0.044  53.356  1.00  0.00     0.049 A 
HETATM   11  C17 UNL     1      24.557   0.550  52.723  1.00  0.00    -0.028 C 
HETATM   12  C22 UNL     1      24.096   1.510  51.637  1.00  0.00     0.163 C 
HETATM   13  H17 UNL     1      24.875  -1.098  54.611  1.00  0.00     0.166 HD
ENDROOT
BRANCH   6  14
HETATM   14  N3  UNL     1      19.889  -0.223  53.995  1.00  0.00    -0.340 N 
HETATM   15  H12 UNL     1      19.562   0.536  54.633  1.00  0.00     0.167 HD
BRANCH  14  16
HETATM   16  C9  UNL     1      18.766  -0.738  53.300  1.00  0.00     0.035 A 
HETATM   17  C10 UNL     1      18.031  -0.216  52.259  1.00  0.00     0.032 A 
HETATM   18  C11 UNL     1      16.959  -0.922  51.751  1.00  0.00     0.046 A 
HETATM   19  C12 UNL     1      16.616  -2.135  52.270  1.00  0.00     0.138 A 
HETATM   20  F1  UNL     1      15.543  -2.724  51.681  1.00  0.00    -0.204 F 
HETATM   21  C13 UNL     1      17.324  -2.707  53.320  1.00  0.00     0.074 A 
HETATM   22 CL1  UNL     1      16.831  -4.257  53.931  1.00  0.00    -0.081 Cl
HETATM   23  C14 UNL     1      18.407  -1.985  53.827  1.00  0.00     0.056 A 
ENDBRANCH  14  16
ENDBRANCH   6  14
BRANCH  11  24
HETATM   24  C18 UNL     1      25.976   0.476  52.686  1.00  0.00     0.044 C 
HETATM   25  C19 UNL     1      26.657   1.342  53.768  1.00  0.00     0.037 C 
HETATM   26  C20 UNL     1      27.304   0.296  54.648  1.00  0.00     0.168 C 
HETATM   27  O2  UNL     1      27.115  -0.957  54.092  1.00  0.00    -0.390 OA
HETATM   28  C21 UNL     1      26.803  -0.734  52.750  1.00  0.00     0.176 C 
ENDBRANCH  11  24
BRANCH   1  29
HETATM   29  P1  UNL     1      22.766   3.291  48.956  1.00  0.00     0.043 P 
BRANCH  29  30
HETATM   30  C4  UNL     1      23.840   4.533  49.142  1.00  0.00     0.024 C 
BRANCH  30  31
HETATM   31  C3  UNL     1      25.130   5.129  49.504  1.00  0.00     0.300 C 
BRANCH  31  32
HETATM   32  N1  UNL     1      26.259   4.368  49.024  1.00  0.00     0.083 N 
HETATM   33  C1  UNL     1      27.388   5.199  48.711  1.00  0.00     0.309 C 
HETATM   34  C2  UNL     1      26.631   3.446  50.071  1.00  0.00     0.309 C 
ENDBRANCH  31  32
ENDBRANCH  30  31
ENDBRANCH  29  30
ENDBRANCH   1  29
TORSDOF 7
ENDMDL
MODEL 2
REMARK VINA RESULT:      -8.8      1.037      1.455
REMARK  7 active torsions:
REMARK  status: ('A' for Active; 'I' for Inactive)
REMARK    1  A    between atoms: N1_2  and  C3_4 
REMARK    2  A    between atoms: C3_4  and  C4_5 
REMARK    3  A    between atoms: C4_5  and  P1_6 
REMARK    4  A    between atoms: P1_6  and  C5_7 
REMARK       I    between atoms: C5_7  and  N2_9 
REMARK    5  A    between atoms: C8_12  and  N3_13 
REMARK    6  A    between atoms: N3_13  and  C9_14 
REMARK    7  A    between atoms: C17_26  and  C18_27 
ROOT
HETATM    1  C5  UNL     1      21.935   2.129  50.264  1.00  0.00     0.253 C 
HETATM    2  O1  UNL     1      20.661   2.010  50.250  1.00  0.00    -0.267 OA
HETATM    3  N2  UNL     1      22.374   1.432  51.414  1.00  0.00    -0.339 N 
HETATM    4  C6  UNL     1      21.204   0.893  52.067  1.00  0.00     0.171 C 
HETATM    5  C7  UNL     1      21.745   0.026  53.144  1.00  0.00     0.033 A 
HETATM    6  C8  UNL     1      20.923  -0.650  53.910  1.00  0.00     0.139 A 
HETATM    7  N4  UNL     1      21.369  -1.497  54.955  1.00  0.00    -0.226 NA
HETATM    8  C15 UNL     1      22.653  -1.636  55.200  1.00  0.00     0.209 A 
HETATM    9  N5  UNL     1      23.554  -0.912  54.384  1.00  0.00    -0.350 N 
HETATM   10  C16 UNL     1      23.164  -0.059  53.332  1.00  0.00     0.049 A 
HETATM   11  C17 UNL     1      24.213   0.507  52.770  1.00  0.00    -0.028 C 
HETATM   12  C22 UNL     1      23.774   1.429  51.643  1.00  0.00     0.163 C 
HETATM   13  H17 UNL     1      24.494  -1.104  54.696  1.00  0.00     0.166 HD
ENDROOT
BRANCH   6  14
HETATM   14  N3  UNL     1      19.522  -0.552  53.706  1.00  0.00    -0.340 N 
HETATM   15  H12 UNL     1      19.193   0.435  53.802  1.00  0.00     0.167 HD
BRANCH  14  16
HETATM   16  C9  UNL     1      18.403  -1.370  53.409  1.00  0.00     0.035 A 
HETATM   17  C10 UNL     1      18.086  -2.649  53.809  1.00  0.00     0.032 A 
HETATM   18  C11 UNL     1      16.918  -3.239  53.370  1.00  0.00     0.046 A 
HETATM   19  C12 UNL     1      16.070  -2.568  52.540  1.00  0.00     0.138 A 
HETATM   20  F1  UNL     1      14.957  -3.261  52.183  1.00  0.00    -0.204 F 
HETATM   21  C13 UNL     1      16.341  -1.276  52.107  1.00  0.00     0.074 A 
HETATM   22 CL1  UNL     1      15.214  -0.482  51.049  1.00  0.00    -0.081 Cl
HETATM   23  C14 UNL     1      17.525  -0.688  52.555  1.00  0.00     0.056 A 
ENDBRANCH  14  16
ENDBRANCH   6  14
BRANCH  11  24
HETATM   24  C18 UNL     1      25.633   0.524  52.838  1.00  0.00     0.044 C 
HETATM   25  C19 UNL     1      26.174   1.348  54.027  1.00  0.00     0.037 C 
HETATM   26  C20 UNL     1      26.824   0.282  54.880  1.00  0.00     0.168 C 
HETATM   27  O2  UNL     1      26.759  -0.936  54.226  1.00  0.00    -0.390 OA
HETATM   28  C21 UNL     1      26.532  -0.635  52.882  1.00  0.00     0.176 C 
ENDBRANCH  11  24
BRANCH   1  29
HETATM   29  P1  UNL     1      22.536   3.102  48.850  1.00  0.00     0.043 P 
BRANCH  29  30
HETATM   30  C4  UNL     1      23.925   3.988  48.983  1.00  0.00     0.024 C 
BRANCH  30  31
HETATM   31  C3  UNL     1      24.745   5.107  49.460  1.00  0.00     0.300 C 
BRANCH  31  32
HETATM   32  N1  UNL     1      26.116   4.734  49.715  1.00  0.00     0.083 N 
HETATM   33  C1  UNL     1      26.328   3.317  49.607  1.00  0.00     0.309 C 
HETATM   34  C2  UNL     1      26.933   5.407  48.733  1.00  0.00     0.309 C 
ENDBRANCH  31  32
ENDBRANCH  30  31
ENDBRANCH  29  30
ENDBRANCH   1  29
TORSDOF 7
ENDMDL
MODEL 3
REMARK VINA RESULT:      -8.2      1.798      2.356
REMARK  7 active torsions:
REMARK  status: ('A' for Active; 'I' for Inactive)
REMARK    1  A    between atoms: N1_2  and  C3_4 
REMARK    2  A    between atoms: C3_4  and  C4_5 
REMARK    3  A    between atoms: C4_5  and  P1_6 
REMARK    4  A    between atoms: P1_6  and  C5_7 
REMARK       I    between atoms: C5_7  and  N2_9 
REMARK    5  A    between atoms: C8_12  and  N3_13 
REMARK    6  A    between atoms: N3_13  and  C9_14 
REMARK    7  A    between atoms: C17_26  and  C18_27 
ROOT
HETATM    1  C5  UNL     1      24.551   3.976  50.620  1.00  0.00     0.253 C 
HETATM    2  O1  UNL     1      23.289   4.166  50.539  1.00  0.00    -0.267 OA
HETATM    3  N2  UNL     1      24.723   2.919  51.545  1.00  0.00    -0.339 N 
HETATM    4  C6  UNL     1      23.408   2.517  51.992  1.00  0.00     0.171 C 
HETATM    5  C7  UNL     1      23.648   1.297  52.802  1.00  0.00     0.033 A 
HETATM    6  C8  UNL     1      22.633   0.656  53.329  1.00  0.00     0.139 A 
HETATM    7  N4  UNL     1      22.787  -0.515  54.113  1.00  0.00    -0.226 NA
HETATM    8  C15 UNL     1      23.983  -1.010  54.345  1.00  0.00     0.209 A 
HETATM    9  N5  UNL     1      25.089  -0.330  53.786  1.00  0.00    -0.350 N 
HETATM   10  C16 UNL     1      24.991   0.836  52.999  1.00  0.00     0.049 A 
HETATM   11  C17 UNL     1      26.185   1.267  52.644  1.00  0.00    -0.028 C 
HETATM   12  C22 UNL     1      26.061   2.528  51.802  1.00  0.00     0.163 C 
HETATM   13  H17 UNL     1      25.933  -0.811  54.058  1.00  0.00     0.166 HD
ENDROOT
BRANCH   6  14
HETATM   14  N3  UNL     1      21.311   1.130  53.122  1.00  0.00    -0.340 N 
HETATM   15  H12 UNL     1      21.189   2.094  53.506  1.00  0.00     0.167 HD
BRANCH  14  16
HETATM   16  C9  UNL     1      20.081   0.715  52.554  1.00  0.00     0.035 A 
HETATM   17  C10 UNL     1      19.346   1.235  51.512  1.00  0.00     0.032 A 
HETATM   18  C11 UNL     1      18.154   0.642  51.145  1.00  0.00     0.046 A 
HETATM   19  C12 UNL     1      17.693  -0.458  51.807  1.00  0.00     0.138 A 
HETATM   20  F1  UNL     1      16.509  -0.943  51.347  1.00  0.00    -0.204 F 
HETATM   21  C13 UNL     1      18.395  -1.022  52.864  1.00  0.00     0.074 A 
HETATM   22 CL1  UNL     1      17.747  -2.424  53.660  1.00  0.00    -0.081 Cl
HETATM   23  C14 UNL     1      19.599  -0.415  53.227  1.00  0.00     0.056 A 
ENDBRANCH  14  16
ENDBRANCH   6  14
BRANCH  11  24
HETATM   24  C18 UNL     1      27.563   0.932  52.753  1.00  0.00     0.044 C 
HETATM   25  C19 UNL     1      28.296   1.730  53.853  1.00  0.00     0.037 C 
HETATM   26  C20 UNL     1      28.653   0.646  54.845  1.00  0.00     0.168 C 
HETATM   27  O2  UNL     1      28.280  -0.586  54.337  1.00  0.00    -0.390 OA
HETATM   28  C21 UNL     1      28.136  -0.402  52.960  1.00  0.00     0.176 C 
ENDBRANCH  11  24
BRANCH   1  29
HETATM   29  P1  UNL     1      25.476   5.116  49.546  1.00  0.00     0.043 P 
BRANCH  29  30
HETATM   30  C4  UNL     1      26.993   4.720  49.027  1.00  0.00     0.024 C 
BRANCH  30  31
HETATM   31  C3  UNL     1      28.278   4.972  48.365  1.00  0.00     0.300 C 
BRANCH  31  32
HETATM   32  N1  UNL     1      28.729   6.335  48.509  1.00  0.00     0.083 N 
HETATM   33  C1  UNL     1      30.158   6.452  48.419  1.00  0.00     0.309 C 
HETATM   34  C2  UNL     1      28.128   7.101  47.444  1.00  0.00     0.309 C 
ENDBRANCH  31  32
ENDBRANCH  30  31
ENDBRANCH  29  30
ENDBRANCH   1  29
TORSDOF 7
ENDMDL
MODEL 4
REMARK VINA RESULT:      -8.1      1.929      2.439
REMARK  7 active torsions:
REMARK  status: ('A' for Active; 'I' for Inactive)
REMARK    1  A    between atoms: N1_2  and  C3_4 
REMARK    2  A    between atoms: C3_4  and  C4_5 
REMARK    3  A    between atoms: C4_5  and  P1_6 
REMARK    4  A    between atoms: P1_6  and  C5_7 
REMARK       I    between atoms: C5_7  and  N2_9 
REMARK    5  A    between atoms: C8_12  and  N3_13 
REMARK    6  A    between atoms: N3_13  and  C9_14 
REMARK    7  A    between atoms: C17_26  and  C18_27 
ROOT
HETATM    1  C5  UNL     1      24.272   3.521  50.734  1.00  0.00     0.253 C 
HETATM    2  O1  UNL     1      23.002   3.667  50.717  1.00  0.00    -0.267 OA
HETATM    3  N2  UNL     1      24.533   2.519  51.699  1.00  0.00    -0.339 N 
HETATM    4  C6  UNL     1      23.260   2.100  52.241  1.00  0.00     0.171 C 
HETATM    5  C7  UNL     1      23.588   0.931  53.096  1.00  0.00     0.033 A 
HETATM    6  C8  UNL     1      22.627   0.286  53.712  1.00  0.00     0.139 A 
HETATM    7  N4  UNL     1      22.865  -0.837  54.543  1.00  0.00    -0.226 NA
HETATM    8  C15 UNL     1      24.089  -1.281  54.729  1.00  0.00     0.209 A 
HETATM    9  N5  UNL     1      25.138  -0.596  54.074  1.00  0.00    -0.350 N 
HETATM   10  C16 UNL     1      24.955   0.524  53.237  1.00  0.00     0.049 A 
HETATM   11  C17 UNL     1      26.111   0.974  52.792  1.00  0.00    -0.028 C 
HETATM   12  C22 UNL     1      25.896   2.185  51.897  1.00  0.00     0.163 C 
HETATM   13  H17 UNL     1      26.011  -1.035  54.320  1.00  0.00     0.166 HD
ENDROOT
BRANCH   6  14
HETATM   14  N3  UNL     1      21.280   0.706  53.559  1.00  0.00    -0.340 N 
HETATM   15  H12 UNL     1      21.046   1.480  54.221  1.00  0.00     0.167 HD
BRANCH  14  16
HETATM   16  C9  UNL     1      20.128   0.415  52.787  1.00  0.00     0.035 A 
HETATM   17  C10 UNL     1      19.640   0.994  51.636  1.00  0.00     0.032 A 
HETATM   18  C11 UNL     1      18.473   0.524  51.069  1.00  0.00     0.046 A 
HETATM   19  C12 UNL     1      17.792  -0.513  51.637  1.00  0.00     0.138 A 
HETATM   20  F1  UNL     1      16.660  -0.878  50.980  1.00  0.00    -0.204 F 
HETATM   21  C13 UNL     1      18.241  -1.133  52.797  1.00  0.00     0.074 A 
HETATM   22 CL1  UNL     1      17.322  -2.448  53.464  1.00  0.00    -0.081 Cl
HETATM   23  C14 UNL     1      19.422  -0.649  53.363  1.00  0.00     0.056 A 
ENDBRANCH  14  16
ENDBRANCH   6  14
BRANCH  11  24
HETATM   24  C18 UNL     1      27.503   0.688  52.838  1.00  0.00     0.044 C 
HETATM   25  C19 UNL     1      28.260   1.526  53.891  1.00  0.00     0.037 C 
HETATM   26  C20 UNL     1      28.703   0.468  54.876  1.00  0.00     0.168 C 
HETATM   27  O2  UNL     1      28.350  -0.783  54.401  1.00  0.00    -0.390 OA
HETATM   28  C21 UNL     1      28.134  -0.621  53.031  1.00  0.00     0.176 C 
ENDBRANCH  11  24
BRANCH   1  29
HETATM   29  P1  UNL     1      25.095   4.633  49.553  1.00  0.00     0.043 P 
BRANCH  29  30
HETATM   30  C4  UNL     1      24.276   5.921  48.919  1.00  0.00     0.024 C 
BRANCH  30  31
HETATM   31  C3  UNL     1      23.090   6.745  48.666  1.00  0.00     0.300 C 
BRANCH  31  32
HETATM   32  N1  UNL     1      22.782   7.642  49.755  1.00  0.00     0.083 N 
HETATM   33  C1  UNL     1      22.034   6.999  50.799  1.00  0.00     0.309 C 
HETATM   34  C2  UNL     1      24.037   8.108  50.295  1.00  0.00     0.309 C 
ENDBRANCH  31  32
ENDBRANCH  30  31
ENDBRANCH  29  30
ENDBRANCH   1  29
TORSDOF 7
ENDMDL
MODEL 5
REMARK VINA RESULT:      -8.0      1.826      2.186
REMARK  7 active torsions:
REMARK  status: ('A' for Active; 'I' for Inactive)
REMARK    1  A    between atoms: N1_2  and  C3_4 
REMARK    2  A    between atoms: C3_4  and  C4_5 
REMARK    3  A    between atoms: C4_5  and  P1_6 
REMARK    4  A    between atoms: P1_6  and  C5_7 
REMARK       I    between atoms: C5_7  and  N2_9 
REMARK    5  A    between atoms: C8_12  and  N3_13 
REMARK    6  A    between atoms: N3_13  and  C9_14 
REMARK    7  A    between atoms: C17_26  and  C18_27 
ROOT
HETATM    1  C5  UNL     1      24.365   2.892  50.778  1.00  0.00     0.253 C 
HETATM    2  O1  UNL     1      23.166   3.204  50.462  1.00  0.00    -0.267 OA
HETATM    3  N2  UNL     1      24.255   1.962  51.839  1.00  0.00    -0.339 N 
HETATM    4  C6  UNL     1      22.847   1.771  52.102  1.00  0.00     0.171 C 
HETATM    5  C7  UNL     1      22.801   0.657  53.082  1.00  0.00     0.033 A 
HETATM    6  C8  UNL     1      21.643   0.209  53.503  1.00  0.00     0.139 A 
HETATM    7  N4  UNL     1      21.522  -0.851  54.436  1.00  0.00    -0.226 NA
HETATM    8  C15 UNL     1      22.594  -1.434  54.926  1.00  0.00     0.209 A 
HETATM    9  N5  UNL     1      23.852  -0.962  54.484  1.00  0.00    -0.350 N 
HETATM   10  C16 UNL     1      24.027   0.086  53.558  1.00  0.00     0.049 A 
HETATM   11  C17 UNL     1      25.306   0.333  53.361  1.00  0.00    -0.028 C 
HETATM   12  C22 UNL     1      25.477   1.470  52.364  1.00  0.00     0.163 C 
HETATM   13  H17 UNL     1      24.574  -1.488  54.951  1.00  0.00     0.166 HD
ENDROOT
BRANCH   6  14
HETATM   14  N3  UNL     1      20.440   0.788  53.020  1.00  0.00    -0.340 N 
HETATM   15  H12 UNL     1      20.244   1.701  53.489  1.00  0.00     0.167 HD
BRANCH  14  16
HETATM   16  C9  UNL     1      19.401   0.529  52.092  1.00  0.00     0.035 A 
HETATM   17  C10 UNL     1      19.171   1.027  50.829  1.00  0.00     0.032 A 
HETATM   18  C11 UNL     1      18.064   0.614  50.116  1.00  0.00     0.046 A 
HETATM   19  C12 UNL     1      17.189  -0.286  50.650  1.00  0.00     0.138 A 
HETATM   20  F1  UNL     1      16.142  -0.608  49.845  1.00  0.00    -0.204 F 
HETATM   21  C13 UNL     1      17.374  -0.820  51.919  1.00  0.00     0.074 A 
HETATM   22 CL1  UNL     1      16.219  -1.963  52.535  1.00  0.00    -0.081 Cl
HETATM   23  C14 UNL     1      18.496  -0.396  52.633  1.00  0.00     0.056 A 
ENDBRANCH  14  16
ENDBRANCH   6  14
BRANCH  11  24
HETATM   24  C18 UNL     1      26.596  -0.130  53.741  1.00  0.00     0.044 C 
HETATM   25  C19 UNL     1      27.700   0.252  52.731  1.00  0.00     0.037 C 
HETATM   26  C20 UNL     1      28.551   1.205  53.540  1.00  0.00     0.168 C 
HETATM   27  O2  UNL     1      28.070   1.267  54.836  1.00  0.00    -0.390 OA
HETATM   28  C21 UNL     1      27.290   0.121  55.008  1.00  0.00     0.176 C 
ENDBRANCH  11  24
BRANCH   1  29
HETATM   29  P1  UNL     1      25.583   3.765  49.747  1.00  0.00     0.043 P 
BRANCH  29  30
HETATM   30  C4  UNL     1      25.443   5.393  49.497  1.00  0.00     0.024 C 
BRANCH  30  31
HETATM   31  C3  UNL     1      25.292   6.791  49.913  1.00  0.00     0.300 C 
BRANCH  31  32
HETATM   32  N1  UNL     1      26.510   7.554  49.784  1.00  0.00     0.083 N 
HETATM   33  C1  UNL     1      27.210   7.267  48.563  1.00  0.00     0.309 C 
HETATM   34  C2  UNL     1      26.146   8.950  49.799  1.00  0.00     0.309 C 
ENDBRANCH  31  32
ENDBRANCH  30  31
ENDBRANCH  29  30
ENDBRANCH   1  29
TORSDOF 7
ENDMDL
MODEL 6
REMARK VINA RESULT:      -7.8      5.813      8.520
REMARK  7 active torsions:
REMARK  status: ('A' for Active; 'I' for Inactive)
REMARK    1  A    between atoms: N1_2  and  C3_4 
REMARK    2  A    between atoms: C3_4  and  C4_5 
REMARK    3  A    between atoms: C4_5  and  P1_6 
REMARK    4  A    between atoms: P1_6  and  C5_7 
REMARK       I    between atoms: C5_7  and  N2_9 
REMARK    5  A    between atoms: C8_12  and  N3_13 
REMARK    6  A    between atoms: N3_13  and  C9_14 
REMARK    7  A    between atoms: C17_26  and  C18_27 
ROOT
HETATM    1  C5  UNL     1      27.518   5.743  48.620  1.00  0.00     0.253 C 
HETATM    2  O1  UNL     1      28.143   4.630  48.696  1.00  0.00    -0.267 OA
HETATM    3  N2  UNL     1      26.299   5.549  49.311  1.00  0.00    -0.339 N 
HETATM    4  C6  UNL     1      26.290   4.189  49.799  1.00  0.00     0.171 C 
HETATM    5  C7  UNL     1      25.086   4.113  50.665  1.00  0.00     0.033 A 
HETATM    6  C8  UNL     1      24.811   2.999  51.299  1.00  0.00     0.139 A 
HETATM    7  N4  UNL     1      23.681   2.854  52.142  1.00  0.00    -0.226 NA
HETATM    8  C15 UNL     1      22.849   3.856  52.320  1.00  0.00     0.209 A 
HETATM    9  N5  UNL     1      23.130   5.065  51.643  1.00  0.00    -0.350 N 
HETATM   10  C16 UNL     1      24.239   5.262  50.795  1.00  0.00     0.049 A 
HETATM   11  C17 UNL     1      24.226   6.472  50.275  1.00  0.00    -0.028 C 
HETATM   12  C22 UNL     1      25.425   6.665  49.359  1.00  0.00     0.163 C 
HETATM   13  H17 UNL     1      22.405   5.731  51.860  1.00  0.00     0.166 HD
ENDROOT
BRANCH   6  14
HETATM   14  N3  UNL     1      25.663   1.873  51.157  1.00  0.00    -0.340 N 
HETATM   15  H12 UNL     1      25.664   1.519  50.174  1.00  0.00     0.167 HD
BRANCH  14  16
HETATM   16  C9  UNL     1      26.530   1.056  51.926  1.00  0.00     0.035 A 
HETATM   17  C10 UNL     1      26.603  -0.313  52.057  1.00  0.00     0.032 A 
HETATM   18  C11 UNL     1      27.550  -0.877  52.888  1.00  0.00     0.046 A 
HETATM   19  C12 UNL     1      28.419  -0.090  53.585  1.00  0.00     0.138 A 
HETATM   20  F1  UNL     1      29.299  -0.770  54.366  1.00  0.00    -0.204 F 
HETATM   21  C13 UNL     1      28.388   1.295  53.489  1.00  0.00     0.074 A 
HETATM   22 CL1  UNL     1      29.528   2.234  54.408  1.00  0.00    -0.081 Cl
HETATM   23  C14 UNL     1      27.427   1.856  52.647  1.00  0.00     0.056 A 
ENDBRANCH  14  16
ENDBRANCH   6  14
BRANCH  11  24
HETATM   24  C18 UNL     1      23.483   7.684  50.306  1.00  0.00     0.044 C 
HETATM   25  C19 UNL     1      23.948   8.708  49.247  1.00  0.00     0.037 C 
HETATM   26  C20 UNL     1      22.744   8.788  48.336  1.00  0.00     0.168 C 
HETATM   27  O2  UNL     1      21.719   8.018  48.856  1.00  0.00    -0.390 OA
HETATM   28  C21 UNL     1      22.028   7.835  50.206  1.00  0.00     0.176 C 
ENDBRANCH  11  24
BRANCH   1  29
HETATM   29  P1  UNL     1      28.467   6.987  47.692  1.00  0.00     0.043 P 
BRANCH  29  30
HETATM   30  C4  UNL     1      30.118   6.935  47.686  1.00  0.00     0.024 C 
BRANCH  30  31
HETATM   31  C3  UNL     1      31.446   7.004  47.066  1.00  0.00     0.300 C 
BRANCH  31  32
HETATM   32  N1  UNL     1      32.517   6.725  47.992  1.00  0.00     0.083 N 
HETATM   33  C1  UNL     1      32.997   7.910  48.649  1.00  0.00     0.309 C 
HETATM   34  C2  UNL     1      32.000   5.816  48.986  1.00  0.00     0.309 C 
ENDBRANCH  31  32
ENDBRANCH  30  31
ENDBRANCH  29  30
ENDBRANCH   1  29
TORSDOF 7
ENDMDL
MODEL 7
REMARK VINA RESULT:      -7.8      4.151      7.025
REMARK  7 active torsions:
REMARK  status: ('A' for Active; 'I' for Inactive)
REMARK    1  A    between atoms: N1_2  and  C3_4 
REMARK    2  A    between atoms: C3_4  and  C4_5 
REMARK    3  A    between atoms: C4_5  and  P1_6 
REMARK    4  A    between atoms: P1_6  and  C5_7 
REMARK       I    between atoms: C5_7  and  N2_9 
REMARK    5  A    between atoms: C8_12  and  N3_13 
REMARK    6  A    between atoms: N3_13  and  C9_14 
REMARK    7  A    between atoms: C17_26  and  C18_27 
ROOT
HETATM    1  C5  UNL     1      23.128   2.908  49.887  1.00  0.00     0.253 C 
HETATM    2  O1  UNL     1      24.294   3.071  50.387  1.00  0.00    -0.267 OA
HETATM    3  N2  UNL     1      22.524   1.878  50.645  1.00  0.00    -0.339 N 
HETATM    4  C6  UNL     1      23.478   1.461  51.647  1.00  0.00     0.171 C 
HETATM    5  C7  UNL     1      22.720   0.525  52.516  1.00  0.00     0.033 A 
HETATM    6  C8  UNL     1      23.304  -0.009  53.561  1.00  0.00     0.139 A 
HETATM    7  N4  UNL     1      22.643  -0.909  54.433  1.00  0.00    -0.226 NA
HETATM    8  C15 UNL     1      21.390  -1.248  54.218  1.00  0.00     0.209 A 
HETATM    9  N5  UNL     1      20.746  -0.682  53.095  1.00  0.00    -0.350 N 
HETATM   10  C16 UNL     1      21.357   0.218  52.197  1.00  0.00     0.049 A 
HETATM   11  C17 UNL     1      20.529   0.552  51.227  1.00  0.00    -0.028 C 
HETATM   12  C22 UNL     1      21.206   1.517  50.266  1.00  0.00     0.163 C 
HETATM   13  H17 UNL     1      19.805  -1.041  53.049  1.00  0.00     0.166 HD
ENDROOT
BRANCH   6  14
HETATM   14  N3  UNL     1      24.654   0.309  53.859  1.00  0.00    -0.340 N 
HETATM   15  H12 UNL     1      24.720   1.159  54.463  1.00  0.00     0.167 HD
BRANCH  14  16
HETATM   16  C9  UNL     1      25.968  -0.157  53.600  1.00  0.00     0.035 A 
HETATM   17  C10 UNL     1      26.415  -1.308  52.990  1.00  0.00     0.032 A 
HETATM   18  C11 UNL     1      27.770  -1.538  52.860  1.00  0.00     0.046 A 
HETATM   19  C12 UNL     1      28.676  -0.635  53.332  1.00  0.00     0.138 A 
HETATM   20  F1  UNL     1      29.976  -0.982  53.141  1.00  0.00    -0.204 F 
HETATM   21  C13 UNL     1      28.279   0.542  53.955  1.00  0.00     0.074 A 
HETATM   22 CL1  UNL     1      29.490   1.647  54.531  1.00  0.00    -0.081 Cl
HETATM   23  C14 UNL     1      26.907   0.765  54.081  1.00  0.00     0.056 A 
ENDBRANCH  14  16
ENDBRANCH   6  14
BRANCH  11  24
HETATM   24  C18 UNL     1      19.193   0.342  50.789  1.00  0.00     0.044 C 
HETATM   25  C19 UNL     1      18.158   0.439  51.930  1.00  0.00     0.037 C 
HETATM   26  C20 UNL     1      17.372   1.671  51.538  1.00  0.00     0.168 C 
HETATM   27  O2  UNL     1      17.818   2.133  50.313  1.00  0.00    -0.390 OA
HETATM   28  C21 UNL     1      18.487   1.059  49.722  1.00  0.00     0.176 C 
ENDBRANCH  11  24
BRANCH   1  29
HETATM   29  P1  UNL     1      22.829   4.039  48.495  1.00  0.00     0.043 P 
BRANCH  29  30
HETATM   30  C4  UNL     1      23.201   5.643  48.633  1.00  0.00     0.024 C 
BRANCH  30  31
HETATM   31  C3  UNL     1      24.084   6.781  48.908  1.00  0.00     0.300 C 
BRANCH  31  32
HETATM   32  N1  UNL     1      24.965   6.556  50.029  1.00  0.00     0.083 N 
HETATM   33  C1  UNL     1      25.981   7.566  50.139  1.00  0.00     0.309 C 
HETATM   34  C2  UNL     1      24.154   6.574  51.222  1.00  0.00     0.309 C 
ENDBRANCH  31  32
ENDBRANCH  30  31
ENDBRANCH  29  30
ENDBRANCH   1  29
TORSDOF 7
ENDMDL
MODEL 8
REMARK VINA RESULT:      -7.8      2.020      2.518
REMARK  7 active torsions:
REMARK  status: ('A' for Active; 'I' for Inactive)
REMARK    1  A    between atoms: N1_2  and  C3_4 
REMARK    2  A    between atoms: C3_4  and  C4_5 
REMARK    3  A    between atoms: C4_5  and  P1_6 
REMARK    4  A    between atoms: P1_6  and  C5_7 
REMARK       I    between atoms: C5_7  and  N2_9 
REMARK    5  A    between atoms: C8_12  and  N3_13 
REMARK    6  A    between atoms: N3_13  and  C9_14 
REMARK    7  A    between atoms: C17_26  and  C18_27 
ROOT
HETATM    1  C5  UNL     1      20.663   3.394  51.463  1.00  0.00     0.253 C 
HETATM    2  O1  UNL     1      19.429   3.103  51.630  1.00  0.00    -0.267 OA
HETATM    3  N2  UNL     1      21.390   2.422  52.190  1.00  0.00    -0.339 N 
HETATM    4  C6  UNL     1      20.430   1.530  52.800  1.00  0.00     0.171 C 
HETATM    5  C7  UNL     1      21.253   0.439  53.380  1.00  0.00     0.033 A 
HETATM    6  C8  UNL     1      20.667  -0.567  53.983  1.00  0.00     0.139 A 
HETATM    7  N4  UNL     1      21.388  -1.642  54.559  1.00  0.00    -0.226 NA
HETATM    8  C15 UNL     1      22.702  -1.667  54.509  1.00  0.00     0.209 A 
HETATM    9  N5  UNL     1      23.350  -0.589  53.865  1.00  0.00    -0.350 N 
HETATM   10  C16 UNL     1      22.681   0.503  53.275  1.00  0.00     0.049 A 
HETATM   11  C17 UNL     1      23.540   1.372  52.780  1.00  0.00    -0.028 C 
HETATM   12  C22 UNL     1      22.802   2.545  52.154  1.00  0.00     0.163 C 
HETATM   13  H17 UNL     1      24.347  -0.735  53.917  1.00  0.00     0.166 HD
ENDROOT
BRANCH   6  14
HETATM   14  N3  UNL     1      19.252  -0.611  54.076  1.00  0.00    -0.340 N 
HETATM   15  H12 UNL     1      18.908  -0.056  54.892  1.00  0.00     0.167 HD
BRANCH  14  16
HETATM   16  C9  UNL     1      18.132  -1.170  53.411  1.00  0.00     0.035 A 
HETATM   17  C10 UNL     1      17.247  -0.620  52.511  1.00  0.00     0.032 A 
HETATM   18  C11 UNL     1      16.217  -1.384  52.002  1.00  0.00     0.046 A 
HETATM   19  C12 UNL     1      16.063  -2.685  52.382  1.00  0.00     0.138 A 
HETATM   20  F1  UNL     1      15.010  -3.325  51.807  1.00  0.00    -0.204 F 
HETATM   21  C13 UNL     1      16.927  -3.289  53.286  1.00  0.00     0.074 A 
HETATM   22 CL1  UNL     1      16.670  -4.951  53.724  1.00  0.00    -0.081 Cl
HETATM   23  C14 UNL     1      17.965  -2.507  53.796  1.00  0.00     0.056 A 
ENDBRANCH  14  16
ENDBRANCH   6  14
BRANCH  11  24
HETATM   24  C18 UNL     1      24.937   1.570  52.601  1.00  0.00     0.044 C 
HETATM   25  C19 UNL     1      25.636   2.135  53.856  1.00  0.00     0.037 C 
HETATM   26  C20 UNL     1      26.540   0.990  54.256  1.00  0.00     0.168 C 
HETATM   27  O2  UNL     1      26.450  -0.020  53.313  1.00  0.00    -0.390 OA
HETATM   28  C21 UNL     1      25.924   0.577  52.166  1.00  0.00     0.176 C 
ENDBRANCH  11  24
BRANCH   1  29
HETATM   29  P1  UNL     1      20.873   4.863  50.412  1.00  0.00     0.043 P 
BRANCH  29  30
HETATM   30  C4  UNL     1      21.722   4.757  48.998  1.00  0.00     0.024 C 
BRANCH  30  31
HETATM   31  C3  UNL     1      21.923   4.922  47.555  1.00  0.00     0.300 C 
BRANCH  31  32
HETATM   32  N1  UNL     1      21.189   3.958  46.769  1.00  0.00     0.083 N 
HETATM   33  C1  UNL     1      19.805   4.311  46.620  1.00  0.00     0.309 C 
HETATM   34  C2  UNL     1      21.804   3.912  45.464  1.00  0.00     0.309 C 
ENDBRANCH  31  32
ENDBRANCH  30  31
ENDBRANCH  29  30
ENDBRANCH   1  29
TORSDOF 7
ENDMDL
MODEL 9
REMARK VINA RESULT:      -7.7      5.433      9.614
REMARK  7 active torsions:
REMARK  status: ('A' for Active; 'I' for Inactive)
REMARK    1  A    between atoms: N1_2  and  C3_4 
REMARK    2  A    between atoms: C3_4  and  C4_5 
REMARK    3  A    between atoms: C4_5  and  P1_6 
REMARK    4  A    between atoms: P1_6  and  C5_7 
REMARK       I    between atoms: C5_7  and  N2_9 
REMARK    5  A    between atoms: C8_12  and  N3_13 
REMARK    6  A    between atoms: N3_13  and  C9_14 
REMARK    7  A    between atoms: C17_26  and  C18_27 
ROOT
HETATM    1  C5  UNL     1      24.845   1.603  52.247  1.00  0.00     0.253 C 
HETATM    2  O1  UNL     1      25.875   2.360  52.273  1.00  0.00    -0.267 OA
HETATM    3  N2  UNL     1      23.962   2.184  51.307  1.00  0.00    -0.339 N 
HETATM    4  C6  UNL     1      24.603   3.372  50.789  1.00  0.00     0.171 C 
HETATM    5  C7  UNL     1      23.717   3.820  49.685  1.00  0.00     0.033 A 
HETATM    6  C8  UNL     1      24.045   4.872  48.974  1.00  0.00     0.139 A 
HETATM    7  N4  UNL     1      23.249   5.356  47.907  1.00  0.00    -0.226 NA
HETATM    8  C15 UNL     1      22.126   4.753  47.585  1.00  0.00     0.209 A 
HETATM    9  N5  UNL     1      21.756   3.618  48.343  1.00  0.00    -0.350 N 
HETATM   10  C16 UNL     1      22.511   3.095  49.412  1.00  0.00     0.049 A 
HETATM   11  C17 UNL     1      21.906   2.057  49.953  1.00  0.00    -0.028 C 
HETATM   12  C22 UNL     1      22.731   1.510  51.108  1.00  0.00     0.163 C 
HETATM   13  H17 UNL     1      20.874   3.274  47.996  1.00  0.00     0.166 HD
ENDROOT
BRANCH   6  14
HETATM   14  N3  UNL     1      25.244   5.575  49.261  1.00  0.00    -0.340 N 
HETATM   15  H12 UNL     1      25.142   6.166  50.117  1.00  0.00     0.167 HD
BRANCH  14  16
HETATM   16  C9  UNL     1      26.559   5.741  48.757  1.00  0.00     0.035 A 
HETATM   17  C10 UNL     1      27.643   4.892  48.763  1.00  0.00     0.032 A 
HETATM   18  C11 UNL     1      28.838   5.296  48.203  1.00  0.00     0.046 A 
HETATM   19  C12 UNL     1      28.959   6.533  47.641  1.00  0.00     0.138 A 
HETATM   20  F1  UNL     1      30.187   6.806  47.126  1.00  0.00    -0.204 F 
HETATM   21  C13 UNL     1      27.897   7.428  47.609  1.00  0.00     0.074 A 
HETATM   22 CL1  UNL     1      28.124   8.987  46.876  1.00  0.00    -0.081 Cl
HETATM   23  C14 UNL     1      26.693   7.010  48.178  1.00  0.00     0.056 A 
ENDBRANCH  14  16
ENDBRANCH   6  14
BRANCH  11  24
HETATM   24  C18 UNL     1      20.750   1.244  49.801  1.00  0.00     0.044 C 
HETATM   25  C19 UNL     1      20.479   0.338  51.022  1.00  0.00     0.037 C 
HETATM   26  C20 UNL     1      19.180   0.903  51.552  1.00  0.00     0.168 C 
HETATM   27  O2  UNL     1      18.728   1.897  50.702  1.00  0.00    -0.390 OA
HETATM   28  C21 UNL     1      19.388   1.690  49.489  1.00  0.00     0.176 C 
ENDBRANCH  11  24
BRANCH   1  29
HETATM   29  P1  UNL     1      25.012   0.199  53.391  1.00  0.00     0.043 P 
BRANCH  29  30
HETATM   30  C4  UNL     1      26.435  -0.636  53.479  1.00  0.00     0.024 C 
BRANCH  30  31
HETATM   31  C3  UNL     1      27.813  -0.954  53.089  1.00  0.00     0.300 C 
BRANCH  31  32
HETATM   32  N1  UNL     1      28.778  -0.635  54.114  1.00  0.00     0.083 N 
HETATM   33  C1  UNL     1      30.130  -0.851  53.679  1.00  0.00     0.309 C 
HETATM   34  C2  UNL     1      28.608   0.760  54.444  1.00  0.00     0.309 C 
ENDBRANCH  31  32
ENDBRANCH  30  31
ENDBRANCH  29  30
ENDBRANCH   1  29
TORSDOF 7
ENDMDL
