MODEL 1
REMARK VINA RESULT:      -9.1      0.000      0.000
REMARK  2 active torsions:
REMARK  status: ('A' for Active; 'I' for Inactive)
REMARK    1  A    between atoms: C4_4  and  N1_5 
REMARK    2  A    between atoms: N1_5  and  C5_6 
ROOT
HETATM    1  C1  UNL     1      28.892  -2.395  53.147  1.00  0.00     0.017 C 
HETATM    2  C2  UNL     1      28.614  -1.224  53.289  1.00  0.00    -0.080 C 
HETATM    3  C3  UNL     1      28.301   0.169  53.442  1.00  0.00     0.025 A 
HETATM    4  C4  UNL     1      27.150   0.831  53.407  1.00  0.00     0.048 A 
HETATM    5  C16 UNL     1      27.382   2.245  53.604  1.00  0.00     0.027 A 
HETATM    6  C17 UNL     1      28.677   2.419  53.759  1.00  0.00    -0.019 A 
HETATM    7  C18 UNL     1      29.414   1.150  53.683  1.00  0.00     0.077 A 
ENDROOT
BRANCH   4   8
HETATM    8  N1  UNL     1      25.933   0.153  53.189  1.00  0.00    -0.339 N 
HETATM    9  H2  UNL     1      25.634  -0.110  52.217  1.00  0.00     0.167 HD
BRANCH   8  10
HETATM   10  C5  UNL     1      24.827  -0.366  53.943  1.00  0.00     0.144 A 
HETATM   11  N2  UNL     1      25.262  -0.996  55.046  1.00  0.00    -0.223 NA
HETATM   12  C6  UNL     1      24.339  -1.553  55.857  1.00  0.00     0.236 A 
HETATM   13  N3  UNL     1      23.000  -1.509  55.614  1.00  0.00    -0.241 NA
HETATM   14  C7  UNL     1      22.602  -0.867  54.495  1.00  0.00     0.077 A 
HETATM   15  C8  UNL     1      21.274  -0.765  54.143  1.00  0.00     0.072 A 
HETATM   16  C13 UNL     1      23.496  -0.284  53.637  1.00  0.00     0.075 A 
HETATM   17  C9  UNL     1      20.809  -0.129  53.008  1.00  0.00     0.106 A 
HETATM   18  O1  UNL     1      19.615   0.014  52.604  1.00  0.00    -0.353 OA
HETATM   19  C11 UNL     1      21.800   0.434  52.200  1.00  0.00     0.136 A 
HETATM   20  C10 UNL     1      18.384   0.160  52.188  1.00  0.00     0.210 C 
HETATM   21  C12 UNL     1      23.173   0.379  52.478  1.00  0.00     0.121 A 
HETATM   22  O3  UNL     1      21.535   1.126  51.003  1.00  0.00    -0.344 OA
HETATM   23  O2  UNL     1      24.112   0.949  51.647  1.00  0.00    -0.345 OA
HETATM   24  C14 UNL     1      23.772   2.035  50.785  1.00  0.00     0.202 C 
HETATM   25  C15 UNL     1      22.311   2.255  50.624  1.00  0.00     0.202 C 
ENDBRANCH   8  10
ENDBRANCH   4   8
TORSDOF 2
ENDMDL
MODEL 2
REMARK VINA RESULT:      -8.8      0.945      2.011
REMARK  2 active torsions:
REMARK  status: ('A' for Active; 'I' for Inactive)
REMARK    1  A    between atoms: C4_4  and  N1_5 
REMARK    2  A    between atoms: N1_5  and  C5_6 
ROOT
HETATM    1  C1  UNL     1      28.947   2.480  53.814  1.00  0.00     0.017 C 
HETATM    2  C2  UNL     1      28.722   1.305  53.620  1.00  0.00    -0.080 C 
HETATM    3  C3  UNL     1      28.469  -0.092  53.405  1.00  0.00     0.025 A 
HETATM    4  C4  UNL     1      27.342  -0.792  53.341  1.00  0.00     0.048 A 
HETATM    5  C16 UNL     1      27.637  -2.192  53.120  1.00  0.00     0.027 A 
HETATM    6  C17 UNL     1      28.944  -2.318  53.051  1.00  0.00    -0.019 A 
HETATM    7  C18 UNL     1      29.630  -1.028  53.214  1.00  0.00     0.077 A 
ENDROOT
BRANCH   4   8
HETATM    8  N1  UNL     1      26.090  -0.162  53.493  1.00  0.00    -0.339 N 
HETATM    9  H2  UNL     1      25.937   0.816  53.142  1.00  0.00     0.167 HD
BRANCH   8  10
HETATM   10  C5  UNL     1      24.789  -0.443  54.032  1.00  0.00     0.144 A 
HETATM   11  N2  UNL     1      24.887  -1.228  55.117  1.00  0.00    -0.223 NA
HETATM   12  C6  UNL     1      23.744  -1.594  55.734  1.00  0.00     0.236 A 
HETATM   13  N3  UNL     1      22.508  -1.210  55.314  1.00  0.00    -0.241 NA
HETATM   14  C7  UNL     1      22.450  -0.422  54.219  1.00  0.00     0.077 A 
HETATM   15  C8  UNL     1      21.254   0.022  53.699  1.00  0.00     0.072 A 
HETATM   16  C13 UNL     1      23.579  -0.021  53.555  1.00  0.00     0.075 A 
HETATM   17  C9  UNL     1      21.134   0.822  52.579  1.00  0.00     0.106 A 
HETATM   18  O1  UNL     1      20.084   1.275  52.030  1.00  0.00    -0.353 OA
HETATM   19  C11 UNL     1      22.342   1.176  51.974  1.00  0.00     0.136 A 
HETATM   20  C10 UNL     1      19.001   1.742  51.464  1.00  0.00     0.210 C 
HETATM   21  C12 UNL     1      23.604   0.772  52.434  1.00  0.00     0.121 A 
HETATM   22  O3  UNL     1      22.436   1.986  50.827  1.00  0.00    -0.344 OA
HETATM   23  O2  UNL     1      24.769   1.148  51.800  1.00  0.00    -0.345 OA
HETATM   24  C14 UNL     1      24.828   2.336  51.010  1.00  0.00     0.202 C 
HETATM   25  C15 UNL     1      23.502   2.914  50.672  1.00  0.00     0.202 C 
ENDBRANCH   8  10
ENDBRANCH   4   8
TORSDOF 2
ENDMDL
MODEL 3
REMARK VINA RESULT:      -8.8      1.792      3.865
REMARK  2 active torsions:
REMARK  status: ('A' for Active; 'I' for Inactive)
REMARK    1  A    between atoms: C4_4  and  N1_5 
REMARK    2  A    between atoms: N1_5  and  C5_6 
ROOT
HETATM    1  C1  UNL     1      29.435   1.835  54.511  1.00  0.00     0.017 C 
HETATM    2  C2  UNL     1      28.982   0.811  54.048  1.00  0.00    -0.080 C 
HETATM    3  C3  UNL     1      28.453  -0.414  53.518  1.00  0.00     0.025 A 
HETATM    4  C4  UNL     1      27.253  -0.735  53.048  1.00  0.00     0.048 A 
HETATM    5  C16 UNL     1      27.231  -2.125  52.646  1.00  0.00     0.027 A 
HETATM    6  C17 UNL     1      28.425  -2.626  52.877  1.00  0.00    -0.019 A 
HETATM    7  C18 UNL     1      29.340  -1.626  53.443  1.00  0.00     0.077 A 
ENDROOT
BRANCH   4   8
HETATM    8  N1  UNL     1      26.215   0.218  53.006  1.00  0.00    -0.339 N 
HETATM    9  H2  UNL     1      25.545   0.316  53.808  1.00  0.00     0.167 HD
BRANCH   8  10
HETATM   10  C5  UNL     1      25.703   1.229  52.124  1.00  0.00     0.144 A 
HETATM   11  N2  UNL     1      26.695   1.771  51.400  1.00  0.00    -0.223 NA
HETATM   12  C6  UNL     1      26.374   2.750  50.529  1.00  0.00     0.236 A 
HETATM   13  N3  UNL     1      25.106   3.212  50.350  1.00  0.00    -0.241 NA
HETATM   14  C7  UNL     1      24.136   2.643  51.097  1.00  0.00     0.077 A 
HETATM   15  C8  UNL     1      22.819   3.035  51.008  1.00  0.00     0.072 A 
HETATM   16  C13 UNL     1      24.406   1.645  51.996  1.00  0.00     0.075 A 
HETATM   17  C9  UNL     1      21.787   2.495  51.751  1.00  0.00     0.106 A 
HETATM   18  O1  UNL     1      20.553   2.790  51.738  1.00  0.00    -0.353 OA
HETATM   19  C11 UNL     1      22.165   1.484  52.638  1.00  0.00     0.136 A 
HETATM   20  C10 UNL     1      19.282   3.094  51.724  1.00  0.00     0.210 C 
HETATM   21  C12 UNL     1      23.479   1.022  52.796  1.00  0.00     0.121 A 
HETATM   22  O3  UNL     1      21.266   0.805  53.482  1.00  0.00    -0.344 OA
HETATM   23  O2  UNL     1      23.802   0.021  53.687  1.00  0.00    -0.345 OA
HETATM   24  C14 UNL     1      22.831  -0.941  54.099  1.00  0.00     0.202 C 
HETATM   25  C15 UNL     1      21.429  -0.579  53.764  1.00  0.00     0.202 C 
ENDBRANCH   8  10
ENDBRANCH   4   8
TORSDOF 2
ENDMDL
MODEL 4
REMARK VINA RESULT:      -8.7      2.906      4.925
REMARK  2 active torsions:
REMARK  status: ('A' for Active; 'I' for Inactive)
REMARK    1  A    between atoms: C4_4  and  N1_5 
REMARK    2  A    between atoms: N1_5  and  C5_6 
ROOT
HETATM    1  C1  UNL     1      23.377   5.833  51.181  1.00  0.00     0.017 C 
HETATM    2  C2  UNL     1      24.387   5.612  50.548  1.00  0.00    -0.080 C 
HETATM    3  C3  UNL     1      25.592   5.367  49.808  1.00  0.00     0.025 A 
HETATM    4  C4  UNL     1      26.318   4.270  49.627  1.00  0.00     0.048 A 
HETATM    5  C16 UNL     1      27.466   4.562  48.796  1.00  0.00     0.027 A 
HETATM    6  C17 UNL     1      27.417   5.839  48.483  1.00  0.00    -0.019 A 
HETATM    7  C18 UNL     1      26.243   6.503  49.067  1.00  0.00     0.077 A 
ENDROOT
BRANCH   4   8
HETATM    8  N1  UNL     1      25.938   3.047  50.217  1.00  0.00    -0.339 N 
HETATM    9  H2  UNL     1      25.288   2.391  49.718  1.00  0.00     0.167 HD
BRANCH   8  10
HETATM   10  C5  UNL     1      26.171   2.302  51.423  1.00  0.00     0.144 A 
HETATM   11  N2  UNL     1      27.440   2.456  51.834  1.00  0.00    -0.223 NA
HETATM   12  C6  UNL     1      27.821   1.805  52.953  1.00  0.00     0.236 A 
HETATM   13  N3  UNL     1      26.991   1.007  53.678  1.00  0.00    -0.241 NA
HETATM   14  C7  UNL     1      25.723   0.876  53.232  1.00  0.00     0.077 A 
HETATM   15  C8  UNL     1      24.797   0.089  53.879  1.00  0.00     0.072 A 
HETATM   16  C13 UNL     1      25.283   1.515  52.102  1.00  0.00     0.075 A 
HETATM   17  C9  UNL     1      23.490  -0.088  53.465  1.00  0.00     0.106 A 
HETATM   18  O1  UNL     1      22.573  -0.789  53.992  1.00  0.00    -0.353 OA
HETATM   19  C11 UNL     1      23.140   0.605  52.304  1.00  0.00     0.136 A 
HETATM   20  C10 UNL     1      21.628  -1.511  54.535  1.00  0.00     0.210 C 
HETATM   21  C12 UNL     1      24.016   1.428  51.581  1.00  0.00     0.121 A 
HETATM   22  O3  UNL     1      21.860   0.561  51.721  1.00  0.00    -0.344 OA
HETATM   23  O2  UNL     1      23.621   2.091  50.438  1.00  0.00    -0.345 OA
HETATM   24  C14 UNL     1      22.250   2.417  50.211  1.00  0.00     0.202 C 
HETATM   25  C15 UNL     1      21.296   1.711  51.105  1.00  0.00     0.202 C 
ENDBRANCH   8  10
ENDBRANCH   4   8
TORSDOF 2
ENDMDL
MODEL 5
REMARK VINA RESULT:      -8.7      1.933      3.792
REMARK  2 active torsions:
REMARK  status: ('A' for Active; 'I' for Inactive)
REMARK    1  A    between atoms: C4_4  and  N1_5 
REMARK    2  A    between atoms: N1_5  and  C5_6 
ROOT
HETATM    1  C1  UNL     1      26.436  -2.322  52.081  1.00  0.00     0.017 C 
HETATM    2  C2  UNL     1      27.148  -1.471  52.567  1.00  0.00    -0.080 C 
HETATM    3  C3  UNL     1      28.007  -0.468  53.130  1.00  0.00     0.025 A 
HETATM    4  C4  UNL     1      27.842   0.835  53.331  1.00  0.00     0.048 A 
HETATM    5  C16 UNL     1      29.034   1.404  53.923  1.00  0.00     0.027 A 
HETATM    6  C17 UNL     1      29.906   0.431  54.074  1.00  0.00    -0.019 A 
HETATM    7  C18 UNL     1      29.379  -0.859  53.607  1.00  0.00     0.077 A 
ENDROOT
BRANCH   4   8
HETATM    8  N1  UNL     1      26.639   1.475  52.969  1.00  0.00    -0.339 N 
HETATM    9  H2  UNL     1      25.877   1.621  53.676  1.00  0.00     0.167 HD
BRANCH   8  10
HETATM   10  C5  UNL     1      26.028   2.070  51.814  1.00  0.00     0.144 A 
HETATM   11  N2  UNL     1      26.920   2.814  51.140  1.00  0.00    -0.223 NA
HETATM   12  C6  UNL     1      26.493   3.453  50.030  1.00  0.00     0.236 A 
HETATM   13  N3  UNL     1      25.216   3.382  49.566  1.00  0.00    -0.241 NA
HETATM   14  C7  UNL     1      24.349   2.624  50.271  1.00  0.00     0.077 A 
HETATM   15  C8  UNL     1      23.030   2.485  49.900  1.00  0.00     0.072 A 
HETATM   16  C13 UNL     1      24.728   1.954  51.404  1.00  0.00     0.075 A 
HETATM   17  C9  UNL     1      22.097   1.731  50.587  1.00  0.00     0.106 A 
HETATM   18  O1  UNL     1      20.870   1.545  50.324  1.00  0.00    -0.353 OA
HETATM   19  C11 UNL     1      22.583   1.086  51.727  1.00  0.00     0.136 A 
HETATM   20  C10 UNL     1      19.605   1.354  50.053  1.00  0.00     0.210 C 
HETATM   21  C12 UNL     1      23.907   1.172  52.179  1.00  0.00     0.121 A 
HETATM   22  O3  UNL     1      21.796   0.271  52.561  1.00  0.00    -0.344 OA
HETATM   23  O2  UNL     1      24.338   0.517  53.313  1.00  0.00    -0.345 OA
HETATM   24  C14 UNL     1      23.673  -0.654  53.785  1.00  0.00     0.202 C 
HETATM   25  C15 UNL     1      22.341  -0.892  53.173  1.00  0.00     0.202 C 
ENDBRANCH   8  10
ENDBRANCH   4   8
TORSDOF 2
ENDMDL
MODEL 6
REMARK VINA RESULT:      -8.5      1.175      1.894
REMARK  2 active torsions:
REMARK  status: ('A' for Active; 'I' for Inactive)
REMARK    1  A    between atoms: C4_4  and  N1_5 
REMARK    2  A    between atoms: N1_5  and  C5_6 
ROOT
HETATM    1  C1  UNL     1      26.516   2.929  50.668  1.00  0.00     0.017 C 
HETATM    2  C2  UNL     1      26.801   2.256  51.634  1.00  0.00    -0.080 C 
HETATM    3  C3  UNL     1      27.146   1.477  52.789  1.00  0.00     0.025 A 
HETATM    4  C4  UNL     1      26.446   0.626  53.530  1.00  0.00     0.048 A 
HETATM    5  C16 UNL     1      27.265   0.111  54.607  1.00  0.00     0.027 A 
HETATM    6  C17 UNL     1      28.456   0.658  54.499  1.00  0.00    -0.019 A 
HETATM    7  C18 UNL     1      28.538   1.574  53.352  1.00  0.00     0.077 A 
ENDROOT
BRANCH   4   8
HETATM    8  N1  UNL     1      25.097   0.346  53.229  1.00  0.00    -0.339 N 
HETATM    9  H2  UNL     1      24.688   0.618  52.301  1.00  0.00     0.167 HD
BRANCH   8  10
HETATM   10  C5  UNL     1      23.950  -0.264  53.840  1.00  0.00     0.144 A 
HETATM   11  N2  UNL     1      24.306  -0.932  54.950  1.00  0.00    -0.223 NA
HETATM   12  C6  UNL     1      23.336  -1.574  55.634  1.00  0.00     0.236 A 
HETATM   13  N3  UNL     1      22.028  -1.579  55.259  1.00  0.00    -0.241 NA
HETATM   14  C7  UNL     1      21.710  -0.898  54.138  1.00  0.00     0.077 A 
HETATM   15  C8  UNL     1      20.420  -0.840  53.658  1.00  0.00     0.072 A 
HETATM   16  C13 UNL     1      22.654  -0.228  53.405  1.00  0.00     0.075 A 
HETATM   17  C9  UNL     1      20.038  -0.166  52.513  1.00  0.00     0.106 A 
HETATM   18  O1  UNL     1      18.884  -0.058  51.997  1.00  0.00    -0.353 OA
HETATM   19  C11 UNL     1      21.074   0.485  51.838  1.00  0.00     0.136 A 
HETATM   20  C10 UNL     1      17.695   0.053  51.465  1.00  0.00     0.210 C 
HETATM   21  C12 UNL     1      22.413   0.480  52.253  1.00  0.00     0.121 A 
HETATM   22  O3  UNL     1      20.893   1.228  50.657  1.00  0.00    -0.344 OA
HETATM   23  O2  UNL     1      23.400   1.138  51.550  1.00  0.00    -0.345 OA
HETATM   24  C14 UNL     1      23.090   2.251  50.712  1.00  0.00     0.202 C 
HETATM   25  C15 UNL     1      21.644   2.411  50.414  1.00  0.00     0.202 C 
ENDBRANCH   8  10
ENDBRANCH   4   8
TORSDOF 2
ENDMDL
MODEL 7
REMARK VINA RESULT:      -8.1      3.441      5.769
REMARK  2 active torsions:
REMARK  status: ('A' for Active; 'I' for Inactive)
REMARK    1  A    between atoms: C4_4  and  N1_5 
REMARK    2  A    between atoms: N1_5  and  C5_6 
ROOT
HETATM    1  C1  UNL     1      23.637   6.443  51.137  1.00  0.00     0.017 C 
HETATM    2  C2  UNL     1      24.608   6.124  50.486  1.00  0.00    -0.080 C 
HETATM    3  C3  UNL     1      25.770   5.761  49.725  1.00  0.00     0.025 A 
HETATM    4  C4  UNL     1      26.347   4.589  49.485  1.00  0.00     0.048 A 
HETATM    5  C16 UNL     1      27.522   4.770  48.660  1.00  0.00     0.027 A 
HETATM    6  C17 UNL     1      27.638   6.056  48.409  1.00  0.00    -0.019 A 
HETATM    7  C18 UNL     1      26.561   6.837  49.034  1.00  0.00     0.077 A 
ENDROOT
BRANCH   4   8
HETATM    8  N1  UNL     1      25.813   3.399  50.020  1.00  0.00    -0.339 N 
HETATM    9  H2  UNL     1      26.437   2.693  50.483  1.00  0.00     0.167 HD
BRANCH   8  10
HETATM   10  C5  UNL     1      24.543   2.745  50.164  1.00  0.00     0.144 A 
HETATM   11  N2  UNL     1      23.724   3.076  49.153  1.00  0.00    -0.223 NA
HETATM   12  C6  UNL     1      22.481   2.550  49.152  1.00  0.00     0.236 A 
HETATM   13  N3  UNL     1      22.021   1.709  50.118  1.00  0.00    -0.241 NA
HETATM   14  C7  UNL     1      22.873   1.399  51.118  1.00  0.00     0.077 A 
HETATM   15  C8  UNL     1      22.515   0.564  52.153  1.00  0.00     0.072 A 
HETATM   16  C13 UNL     1      24.145   1.905  51.168  1.00  0.00     0.075 A 
HETATM   17  C9  UNL     1      23.341   0.220  53.206  1.00  0.00     0.106 A 
HETATM   18  O1  UNL     1      23.100  -0.535  54.197  1.00  0.00    -0.353 OA
HETATM   19  C11 UNL     1      24.617   0.787  53.165  1.00  0.00     0.136 A 
HETATM   20  C10 UNL     1      22.851  -1.312  55.218  1.00  0.00     0.210 C 
HETATM   21  C12 UNL     1      25.067   1.646  52.152  1.00  0.00     0.121 A 
HETATM   22  O3  UNL     1      25.607   0.560  54.139  1.00  0.00    -0.344 OA
HETATM   23  O2  UNL     1      26.338   2.181  52.157  1.00  0.00    -0.345 OA
HETATM   24  C14 UNL     1      27.409   1.530  52.840  1.00  0.00     0.202 C 
HETATM   25  C15 UNL     1      26.979   0.462  53.779  1.00  0.00     0.202 C 
ENDBRANCH   8  10
ENDBRANCH   4   8
TORSDOF 2
ENDMDL
MODEL 8
REMARK VINA RESULT:      -8.1      2.654      6.189
REMARK  2 active torsions:
REMARK  status: ('A' for Active; 'I' for Inactive)
REMARK    1  A    between atoms: C4_4  and  N1_5 
REMARK    2  A    between atoms: N1_5  and  C5_6 
ROOT
HETATM    1  C1  UNL     1      21.224   0.766  50.145  1.00  0.00     0.017 C 
HETATM    2  C2  UNL     1      21.384   0.395  51.288  1.00  0.00    -0.080 C 
HETATM    3  C3  UNL     1      21.573  -0.065  52.635  1.00  0.00     0.025 A 
HETATM    4  C4  UNL     1      22.455   0.264  53.572  1.00  0.00     0.048 A 
HETATM    5  C16 UNL     1      22.224  -0.515  54.770  1.00  0.00     0.027 A 
HETATM    6  C17 UNL     1      21.198  -1.306  54.539  1.00  0.00    -0.019 A 
HETATM    7  C18 UNL     1      20.658  -1.124  53.185  1.00  0.00     0.077 A 
ENDROOT
BRANCH   4   8
HETATM    8  N1  UNL     1      23.443   1.238  53.324  1.00  0.00    -0.339 N 
HETATM    9  H2  UNL     1      23.388   2.184  53.778  1.00  0.00     0.167 HD
BRANCH   8  10
HETATM   10  C5  UNL     1      24.652   1.392  52.565  1.00  0.00     0.144 A 
HETATM   11  N2  UNL     1      25.481   0.359  52.783  1.00  0.00    -0.223 NA
HETATM   12  C6  UNL     1      26.672   0.363  52.149  1.00  0.00     0.236 A 
HETATM   13  N3  UNL     1      27.071   1.355  51.307  1.00  0.00    -0.241 NA
HETATM   14  C7  UNL     1      26.211   2.378  51.113  1.00  0.00     0.077 A 
HETATM   15  C8  UNL     1      26.510   3.441  50.290  1.00  0.00     0.072 A 
HETATM   16  C13 UNL     1      24.990   2.424  51.732  1.00  0.00     0.075 A 
HETATM   17  C9  UNL     1      25.674   4.517  50.061  1.00  0.00     0.106 A 
HETATM   18  O1  UNL     1      25.863   5.534  49.327  1.00  0.00    -0.353 OA
HETATM   19  C11 UNL     1      24.453   4.469  50.738  1.00  0.00     0.136 A 
HETATM   20  C10 UNL     1      26.058   6.581  48.569  1.00  0.00     0.210 C 
HETATM   21  C12 UNL     1      24.064   3.429  51.594  1.00  0.00     0.121 A 
HETATM   22  O3  UNL     1      23.462   5.463  50.637  1.00  0.00    -0.344 OA
HETATM   23  O2  UNL     1      22.846   3.429  52.240  1.00  0.00    -0.345 OA
HETATM   24  C14 UNL     1      21.732   4.149  51.714  1.00  0.00     0.202 C 
HETATM   25  C15 UNL     1      22.081   5.125  50.649  1.00  0.00     0.202 C 
ENDBRANCH   8  10
ENDBRANCH   4   8
TORSDOF 2
ENDMDL
MODEL 9
REMARK VINA RESULT:      -7.8      2.186      2.962
REMARK  2 active torsions:
REMARK  status: ('A' for Active; 'I' for Inactive)
REMARK    1  A    between atoms: C4_4  and  N1_5 
REMARK    2  A    between atoms: N1_5  and  C5_6 
ROOT
HETATM    1  C1  UNL     1      26.500   2.731  50.407  1.00  0.00     0.017 C 
HETATM    2  C2  UNL     1      26.596   2.059  51.410  1.00  0.00    -0.080 C 
HETATM    3  C3  UNL     1      26.726   1.275  52.606  1.00  0.00     0.025 A 
HETATM    4  C4  UNL     1      25.843   0.897  53.523  1.00  0.00     0.048 A 
HETATM    5  C16 UNL     1      26.495   0.119  54.554  1.00  0.00     0.027 A 
HETATM    6  C17 UNL     1      27.771   0.035  54.243  1.00  0.00    -0.019 A 
HETATM    7  C18 UNL     1      28.078   0.737  52.989  1.00  0.00     0.077 A 
ENDROOT
BRANCH   4   8
HETATM    8  N1  UNL     1      24.487   1.269  53.416  1.00  0.00    -0.339 N 
HETATM    9  H2  UNL     1      24.214   2.279  53.324  1.00  0.00     0.167 HD
BRANCH   8  10
HETATM   10  C5  UNL     1      23.190   0.654  53.385  1.00  0.00     0.144 A 
HETATM   11  N2  UNL     1      23.238  -0.577  53.920  1.00  0.00    -0.223 NA
HETATM   12  C6  UNL     1      22.095  -1.293  53.952  1.00  0.00     0.236 A 
HETATM   13  N3  UNL     1      20.907  -0.834  53.474  1.00  0.00    -0.241 NA
HETATM   14  C7  UNL     1      20.898   0.407  52.944  1.00  0.00     0.077 A 
HETATM   15  C8  UNL     1      19.755   0.973  52.422  1.00  0.00     0.072 A 
HETATM   16  C13 UNL     1      22.029   1.178  52.885  1.00  0.00     0.075 A 
HETATM   17  C9  UNL     1      19.689   2.234  51.860  1.00  0.00     0.106 A 
HETATM   18  O1  UNL     1      18.691   2.833  51.358  1.00  0.00    -0.353 OA
HETATM   19  C11 UNL     1      20.895   2.939  51.850  1.00  0.00     0.136 A 
HETATM   20  C10 UNL     1      17.661   3.451  50.840  1.00  0.00     0.210 C 
HETATM   21  C12 UNL     1      22.105   2.443  52.357  1.00  0.00     0.121 A 
HETATM   22  O3  UNL     1      21.039   4.237  51.326  1.00  0.00    -0.344 OA
HETATM   23  O2  UNL     1      23.270   3.179  52.322  1.00  0.00    -0.345 OA
HETATM   24  C14 UNL     1      23.240   4.605  52.273  1.00  0.00     0.202 C 
HETATM   25  C15 UNL     1      21.912   5.179  51.935  1.00  0.00     0.202 C 
ENDBRANCH   8  10
ENDBRANCH   4   8
TORSDOF 2
ENDMDL
