MODEL 1
REMARK VINA RESULT:      -9.8      0.000      0.000
REMARK  1 active torsions:
REMARK  status: ('A' for Active; 'I' for Inactive)
REMARK    1  A    between atoms: C2_2  and  C3_3 
ROOT
HETATM    1  C3  UNL     1      25.901   3.687  49.895  1.00  0.00     0.002 C 
HETATM    2  C4  UNL     1      26.029   2.618  50.724  1.00  0.00     0.011 C 
HETATM    3  C5  UNL     1      25.988   1.461  51.649  1.00  0.00     0.090 C 
HETATM    4  C6  UNL     1      26.352   1.906  53.055  1.00  0.00     0.057 C 
HETATM    5  C7  UNL     1      26.736   2.306  54.246  1.00  0.00     0.161 C 
HETATM    6  O1  UNL     1      28.070   2.662  54.032  1.00  0.00    -0.361 OA
HETATM    7  C8  UNL     1      28.936   1.658  53.482  1.00  0.00     0.180 C 
HETATM    8  C9  UNL     1      29.033   0.402  54.257  1.00  0.00     0.032 C 
HETATM    9  C10 UNL     1      29.992  -0.520  53.485  1.00  0.00     0.014 C 
HETATM   10  C11 UNL     1      27.728  -0.327  54.356  1.00  0.00     0.202 C 
HETATM   11  O2  UNL     1      26.839   0.369  55.127  1.00  0.00    -0.286 OA
HETATM   12  N1  UNL     1      25.562   0.146  54.712  1.00  0.00    -0.111 NA
HETATM   13  N2  UNL     1      25.393   0.842  53.481  1.00  0.00    -0.284 N 
HETATM   14  C12 UNL     1      24.723   1.030  52.256  1.00  0.00     0.144 C 
HETATM   15  O3  UNL     1      23.638   1.956  52.305  1.00  0.00     0.000 OA
HETATM   16  C13 UNL     1      23.618   2.877  51.184  1.00  0.00     0.056 A 
HETATM   17  C14 UNL     1      23.292   1.772  50.424  1.00  0.00    -0.028 A 
HETATM   18  C15 UNL     1      23.460   2.877  49.682  1.00  0.00     0.058 A 
HETATM   19  C16 UNL     1      23.770   3.795  50.657  1.00  0.00     0.083 A 
HETATM   20  C17 UNL     1      24.077   4.727  51.575  1.00  0.00     0.027 A 
HETATM   21  C18 UNL     1      23.899   3.578  52.303  1.00  0.00     0.162 A 
HETATM   22  F1  UNL     1      24.134   4.064  53.507  1.00  0.00    -0.234 F 
HETATM   23  N3  UNL     1      24.607   4.364  49.609  1.00  0.00    -0.378 N 
HETATM   24  H17 UNL     1      24.962   0.587  55.461  1.00  0.00     0.180 HD
HETATM   25  H22 UNL     1      24.501   5.037  48.835  1.00  0.00     0.160 HD
ENDROOT
BRANCH   1  26
HETATM   26  C2  UNL     1      26.993   4.412  49.140  1.00  0.00     0.052 C 
HETATM   27  C1  UNL     1      26.539   5.823  48.832  1.00  0.00     0.011 C 
ENDBRANCH   1  26
TORSDOF 1
ENDMDL
MODEL 2
REMARK VINA RESULT:      -8.7      2.117      5.955
REMARK  1 active torsions:
REMARK  status: ('A' for Active; 'I' for Inactive)
REMARK    1  A    between atoms: C2_2  and  C3_3 
ROOT
HETATM    1  C3  UNL     1      24.128  -0.430  53.840  1.00  0.00     0.002 C 
HETATM    2  C4  UNL     1      24.222   0.460  52.817  1.00  0.00     0.011 C 
HETATM    3  C5  UNL     1      24.505   1.404  51.711  1.00  0.00     0.090 C 
HETATM    4  C6  UNL     1      24.503   2.831  52.230  1.00  0.00     0.057 C 
HETATM    5  C7  UNL     1      24.427   4.058  52.695  1.00  0.00     0.161 C 
HETATM    6  O1  UNL     1      23.079   4.169  53.046  1.00  0.00    -0.361 OA
HETATM    7  C8  UNL     1      22.111   3.907  52.018  1.00  0.00     0.180 C 
HETATM    8  C9  UNL     1      22.223   4.746  50.806  1.00  0.00     0.032 C 
HETATM    9  C10 UNL     1      21.109   4.290  49.848  1.00  0.00     0.014 C 
HETATM   10  C11 UNL     1      23.518   4.552  50.076  1.00  0.00     0.202 C 
HETATM   11  O2  UNL     1      24.566   5.036  50.807  1.00  0.00    -0.286 OA
HETATM   12  N1  UNL     1      25.700   4.325  50.557  1.00  0.00    -0.111 NA
HETATM   13  N2  UNL     1      25.547   3.057  51.186  1.00  0.00    -0.284 N 
HETATM   14  C12 UNL     1      25.885   1.694  51.306  1.00  0.00     0.144 C 
HETATM   15  O3  UNL     1      26.940   1.420  52.228  1.00  0.00     0.000 OA
HETATM   16  C13 UNL     1      26.669   0.283  53.089  1.00  0.00     0.056 A 
HETATM   17  C14 UNL     1      26.803  -0.476  51.944  1.00  0.00    -0.028 A 
HETATM   18  C15 UNL     1      26.444  -1.207  53.009  1.00  0.00     0.058 A 
HETATM   19  C16 UNL     1      26.381  -0.235  53.978  1.00  0.00     0.083 A 
HETATM   20  C17 UNL     1      26.307   0.680  54.959  1.00  0.00     0.027 A 
HETATM   21  C18 UNL     1      26.672   1.399  53.849  1.00  0.00     0.162 A 
HETATM   22  F1  UNL     1      26.745   2.596  54.399  1.00  0.00    -0.234 F 
HETATM   23  N3  UNL     1      25.302  -1.067  54.495  1.00  0.00    -0.378 N 
HETATM   24  H17 UNL     1      26.465   4.875  51.034  1.00  0.00     0.180 HD
HETATM   25  H22 UNL     1      25.204  -1.877  55.125  1.00  0.00     0.160 HD
ENDROOT
BRANCH   1  26
HETATM   26  C2  UNL     1      22.875  -0.922  54.529  1.00  0.00     0.052 C 
HETATM   27  C1  UNL     1      21.680  -0.155  54.007  1.00  0.00     0.011 C 
ENDBRANCH   1  26
TORSDOF 1
ENDMDL
MODEL 3
REMARK VINA RESULT:      -8.6      1.870      2.350
REMARK  1 active torsions:
REMARK  status: ('A' for Active; 'I' for Inactive)
REMARK    1  A    between atoms: C2_2  and  C3_3 
ROOT
HETATM    1  C3  UNL     1      25.903   4.534  49.203  1.00  0.00     0.002 C 
HETATM    2  C4  UNL     1      25.346   3.449  49.803  1.00  0.00     0.011 C 
HETATM    3  C5  UNL     1      24.582   2.357  50.450  1.00  0.00     0.090 C 
HETATM    4  C6  UNL     1      24.756   2.421  51.957  1.00  0.00     0.057 C 
HETATM    5  C7  UNL     1      24.979   2.461  53.252  1.00  0.00     0.161 C 
HETATM    6  O1  UNL     1      26.342   2.165  53.335  1.00  0.00    -0.361 OA
HETATM    7  C8  UNL     1      26.783   0.936  52.736  1.00  0.00     0.180 C 
HETATM    8  C9  UNL     1      26.131  -0.291  53.240  1.00  0.00     0.032 C 
HETATM    9  C10 UNL     1      26.741  -1.468  52.460  1.00  0.00     0.014 C 
HETATM   10  C11 UNL     1      24.656  -0.322  52.974  1.00  0.00     0.202 C 
HETATM   11  O2  UNL     1      24.007   0.623  53.717  1.00  0.00    -0.286 OA
HETATM   12  N1  UNL     1      22.903   1.078  53.064  1.00  0.00    -0.111 NA
HETATM   13  N2  UNL     1      23.357   1.899  51.993  1.00  0.00    -0.284 N 
HETATM   14  C12 UNL     1      23.152   2.513  50.742  1.00  0.00     0.144 C 
HETATM   15  O3  UNL     1      22.607   3.830  50.805  1.00  0.00     0.000 OA
HETATM   16  C13 UNL     1      23.262   4.766  49.910  1.00  0.00     0.056 A 
HETATM   17  C14 UNL     1      22.676   4.037  48.896  1.00  0.00    -0.028 A 
HETATM   18  C15 UNL     1      23.485   5.004  48.436  1.00  0.00     0.058 A 
HETATM   19  C16 UNL     1      23.923   5.554  49.616  1.00  0.00     0.083 A 
HETATM   20  C17 UNL     1      24.378   6.124  50.745  1.00  0.00     0.027 A 
HETATM   21  C18 UNL     1      23.546   5.126  51.181  1.00  0.00     0.162 A 
HETATM   22  F1  UNL     1      23.674   5.309  52.481  1.00  0.00    -0.234 F 
HETATM   23  N3  UNL     1      25.149   5.769  48.858  1.00  0.00    -0.378 N 
HETATM   24  H17 UNL     1      22.397   1.666  53.781  1.00  0.00     0.180 HD
HETATM   25  H22 UNL     1      25.537   6.491  48.234  1.00  0.00     0.160 HD
ENDROOT
BRANCH   1  26
HETATM   26  C2  UNL     1      27.347   4.733  48.802  1.00  0.00     0.052 C 
HETATM   27  C1  UNL     1      27.541   6.152  48.309  1.00  0.00     0.011 C 
ENDBRANCH   1  26
TORSDOF 1
ENDMDL
MODEL 4
REMARK VINA RESULT:      -8.1      7.224      9.135
REMARK  1 active torsions:
REMARK  status: ('A' for Active; 'I' for Inactive)
REMARK    1  A    between atoms: C2_2  and  C3_3 
ROOT
HETATM    1  C3  UNL     1      29.039   6.706  48.290  1.00  0.00     0.002 C 
HETATM    2  C4  UNL     1      30.315   6.265  48.441  1.00  0.00     0.011 C 
HETATM    3  C5  UNL     1      31.756   5.958  48.594  1.00  0.00     0.090 C 
HETATM    4  C6  UNL     1      32.340   5.521  47.263  1.00  0.00     0.057 C 
HETATM    5  C7  UNL     1      32.802   5.083  46.113  1.00  0.00     0.161 C 
HETATM    6  O1  UNL     1      32.104   3.884  45.942  1.00  0.00    -0.361 OA
HETATM    7  C8  UNL     1      32.213   2.908  46.990  1.00  0.00     0.180 C 
HETATM    8  C9  UNL     1      33.586   2.465  47.312  1.00  0.00     0.032 C 
HETATM    9  C10 UNL     1      33.465   1.442  48.454  1.00  0.00     0.014 C 
HETATM   10  C11 UNL     1      34.454   3.574  47.823  1.00  0.00     0.202 C 
HETATM   11  O2  UNL     1      34.714   4.484  46.837  1.00  0.00    -0.286 OA
HETATM   12  N1  UNL     1      34.872   5.731  47.358  1.00  0.00    -0.111 NA
HETATM   13  N2  UNL     1      33.583   6.186  47.757  1.00  0.00    -0.284 N 
HETATM   14  C12 UNL     1      32.761   7.026  48.534  1.00  0.00     0.144 C 
HETATM   15  O3  UNL     1      32.410   8.261  47.911  1.00  0.00     0.000 OA
HETATM   16  C13 UNL     1      31.008   8.603  48.065  1.00  0.00     0.056 A 
HETATM   17  C14 UNL     1      31.314   8.792  49.398  1.00  0.00    -0.028 A 
HETATM   18  C15 UNL     1      30.006   8.942  49.143  1.00  0.00     0.058 A 
HETATM   19  C16 UNL     1      29.980   8.705  47.789  1.00  0.00     0.083 A 
HETATM   20  C17 UNL     1      29.906   8.482  46.466  1.00  0.00     0.027 A 
HETATM   21  C18 UNL     1      31.237   8.334  46.762  1.00  0.00     0.162 A 
HETATM   22  F1  UNL     1      31.683   8.056  45.552  1.00  0.00    -0.234 F 
HETATM   23  N3  UNL     1      28.673   8.135  48.090  1.00  0.00    -0.378 N 
HETATM   24  H17 UNL     1      35.226   6.311  46.549  1.00  0.00     0.180 HD
HETATM   25  H22 UNL     1      27.702   8.469  48.176  1.00  0.00     0.160 HD
ENDROOT
BRANCH   1  26
HETATM   26  C2  UNL     1      27.770   5.884  48.259  1.00  0.00     0.052 C 
HETATM   27  C1  UNL     1      26.572   6.810  48.225  1.00  0.00     0.011 C 
ENDBRANCH   1  26
TORSDOF 1
ENDMDL
MODEL 5
REMARK VINA RESULT:      -8.1      8.455     10.544
REMARK  1 active torsions:
REMARK  status: ('A' for Active; 'I' for Inactive)
REMARK    1  A    between atoms: C2_2  and  C3_3 
ROOT
HETATM    1  C3  UNL     1      34.028   5.312  45.113  1.00  0.00     0.002 C 
HETATM    2  C4  UNL     1      33.673   6.154  46.119  1.00  0.00     0.011 C 
HETATM    3  C5  UNL     1      33.293   6.927  47.324  1.00  0.00     0.090 C 
HETATM    4  C6  UNL     1      31.787   7.115  47.369  1.00  0.00     0.057 C 
HETATM    5  C7  UNL     1      30.488   7.319  47.345  1.00  0.00     0.161 C 
HETATM    6  O1  UNL     1      30.328   8.133  46.222  1.00  0.00    -0.361 OA
HETATM    7  C8  UNL     1      31.080   9.356  46.186  1.00  0.00     0.180 C 
HETATM    8  C9  UNL     1      30.852  10.280  47.318  1.00  0.00     0.032 C 
HETATM    9  C10 UNL     1      31.758  11.501  47.081  1.00  0.00     0.014 C 
HETATM   10  C11 UNL     1      31.257   9.699  48.639  1.00  0.00     0.202 C 
HETATM   11  O2  UNL     1      30.430   8.670  48.992  1.00  0.00    -0.286 OA
HETATM   12  N1  UNL     1      31.099   7.745  49.734  1.00  0.00    -0.111 NA
HETATM   13  N2  UNL     1      31.970   7.047  48.850  1.00  0.00    -0.284 N 
HETATM   14  C12 UNL     1      33.115   6.259  48.618  1.00  0.00     0.144 C 
HETATM   15  O3  UNL     1      32.883   4.851  48.635  1.00  0.00     0.000 OA
HETATM   16  C13 UNL     1      33.543   4.148  47.550  1.00  0.00     0.056 A 
HETATM   17  C14 UNL     1      34.716   4.464  48.205  1.00  0.00    -0.028 A 
HETATM   18  C15 UNL     1      34.930   3.845  47.035  1.00  0.00     0.058 A 
HETATM   19  C16 UNL     1      33.638   3.654  46.607  1.00  0.00     0.083 A 
HETATM   20  C17 UNL     1      32.392   3.445  46.148  1.00  0.00     0.027 A 
HETATM   21  C18 UNL     1      32.210   4.082  47.349  1.00  0.00     0.162 A 
HETATM   22  F1  UNL     1      30.891   4.118  47.360  1.00  0.00    -0.234 F 
HETATM   23  N3  UNL     1      34.231   3.848  45.290  1.00  0.00    -0.378 N 
HETATM   24  H17 UNL     1      30.344   7.095  50.086  1.00  0.00     0.180 HD
HETATM   25  H22 UNL     1      34.687   3.268  44.571  1.00  0.00     0.160 HD
ENDROOT
BRANCH   1  26
HETATM   26  C2  UNL     1      34.253   5.649  43.656  1.00  0.00     0.052 C 
HETATM   27  C1  UNL     1      33.405   4.739  42.793  1.00  0.00     0.011 C 
ENDBRANCH   1  26
TORSDOF 1
ENDMDL
MODEL 6
REMARK VINA RESULT:      -7.8      7.945     10.533
REMARK  1 active torsions:
REMARK  status: ('A' for Active; 'I' for Inactive)
REMARK    1  A    between atoms: C2_2  and  C3_3 
ROOT
HETATM    1  C3  UNL     1      32.479   2.782  46.544  1.00  0.00     0.002 C 
HETATM    2  C4  UNL     1      32.272   4.115  46.385  1.00  0.00     0.011 C 
HETATM    3  C5  UNL     1      32.227   5.586  46.210  1.00  0.00     0.090 C 
HETATM    4  C6  UNL     1      31.995   6.263  47.549  1.00  0.00     0.057 C 
HETATM    5  C7  UNL     1      31.727   6.817  48.710  1.00  0.00     0.161 C 
HETATM    6  O1  UNL     1      30.434   6.357  48.975  1.00  0.00    -0.361 OA
HETATM    7  C8  UNL     1      29.427   6.628  47.988  1.00  0.00     0.180 C 
HETATM    8  C9  UNL     1      29.225   8.054  47.655  1.00  0.00     0.032 C 
HETATM    9  C10 UNL     1      28.123   8.106  46.583  1.00  0.00     0.014 C 
HETATM   10  C11 UNL     1      30.439   8.692  47.051  1.00  0.00     0.202 C 
HETATM   11  O2  UNL     1      31.445   8.795  47.970  1.00  0.00    -0.286 OA
HETATM   12  N1  UNL     1      32.662   8.710  47.367  1.00  0.00    -0.111 NA
HETATM   13  N2  UNL     1      32.843   7.352  46.979  1.00  0.00    -0.284 N 
HETATM   14  C12 UNL     1      33.463   6.375  46.174  1.00  0.00     0.144 C 
HETATM   15  O3  UNL     1      34.651   5.811  46.729  1.00  0.00     0.000 OA
HETATM   16  C13 UNL     1      34.718   4.368  46.594  1.00  0.00     0.056 A 
HETATM   17  C14 UNL     1      34.870   4.611  45.243  1.00  0.00    -0.028 A 
HETATM   18  C15 UNL     1      34.793   3.302  45.526  1.00  0.00     0.058 A 
HETATM   19  C16 UNL     1      34.647   3.343  46.892  1.00  0.00     0.083 A 
HETATM   20  C17 UNL     1      34.502   3.334  48.228  1.00  0.00     0.027 A 
HETATM   21  C18 UNL     1      34.583   4.664  47.904  1.00  0.00     0.162 A 
HETATM   22  F1  UNL     1      34.474   5.174  49.116  1.00  0.00    -0.234 F 
HETATM   23  N3  UNL     1      33.826   2.161  46.665  1.00  0.00    -0.378 N 
HETATM   24  H17 UNL     1      33.350   8.963  48.128  1.00  0.00     0.180 HD
HETATM   25  H22 UNL     1      33.968   1.143  46.586  1.00  0.00     0.160 HD
ENDROOT
BRANCH   1  26
HETATM   26  C2  UNL     1      31.441   1.689  46.663  1.00  0.00     0.052 C 
HETATM   27  C1  UNL     1      32.133   0.343  46.715  1.00  0.00     0.011 C 
ENDBRANCH   1  26
TORSDOF 1
ENDMDL
MODEL 7
REMARK VINA RESULT:      -7.7      7.927      9.656
REMARK  1 active torsions:
REMARK  status: ('A' for Active; 'I' for Inactive)
REMARK    1  A    between atoms: C2_2  and  C3_3 
ROOT
HETATM    1  C3  UNL     1      31.668  11.032  46.467  1.00  0.00     0.002 C 
HETATM    2  C4  UNL     1      31.308   9.737  46.668  1.00  0.00     0.011 C 
HETATM    3  C5  UNL     1      30.773   8.390  46.978  1.00  0.00     0.090 C 
HETATM    4  C6  UNL     1      31.495   7.807  48.180  1.00  0.00     0.057 C 
HETATM    5  C7  UNL     1      32.182   7.301  49.180  1.00  0.00     0.161 C 
HETATM    6  O1  UNL     1      33.459   7.160  48.630  1.00  0.00    -0.361 OA
HETATM    7  C8  UNL     1      33.574   6.380  47.430  1.00  0.00     0.180 C 
HETATM    8  C9  UNL     1      33.082   4.989  47.522  1.00  0.00     0.032 C 
HETATM    9  C10 UNL     1      33.290   4.354  46.137  1.00  0.00     0.014 C 
HETATM   10  C11 UNL     1      31.615   4.905  47.814  1.00  0.00     0.202 C 
HETATM   11  O2  UNL     1      31.343   5.345  49.079  1.00  0.00    -0.286 OA
HETATM   12  N1  UNL     1      30.105   5.907  49.141  1.00  0.00    -0.111 NA
HETATM   13  N2  UNL     1      30.180   7.162  48.471  1.00  0.00    -0.284 N 
HETATM   14  C12 UNL     1      29.564   8.233  47.795  1.00  0.00     0.144 C 
HETATM   15  O3  UNL     1      29.160   9.315  48.633  1.00  0.00     0.000 OA
HETATM   16  C13 UNL     1      29.493  10.619  48.089  1.00  0.00     0.056 A 
HETATM   17  C14 UNL     1      28.532  10.345  47.137  1.00  0.00    -0.028 A 
HETATM   18  C15 UNL     1      29.169  11.503  46.909  1.00  0.00     0.058 A 
HETATM   19  C16 UNL     1      30.044  11.527  47.968  1.00  0.00     0.083 A 
HETATM   20  C17 UNL     1      30.917  11.594  48.988  1.00  0.00     0.027 A 
HETATM   21  C18 UNL     1      30.247  10.415  49.191  1.00  0.00     0.162 A 
HETATM   22  F1  UNL     1      30.856  10.023  50.293  1.00  0.00    -0.234 F 
HETATM   23  N3  UNL     1      30.914  12.195  47.008  1.00  0.00    -0.378 N 
HETATM   24  H17 UNL     1      29.936   6.057  50.172  1.00  0.00     0.180 HD
HETATM   25  H22 UNL     1      31.086  13.158  46.684  1.00  0.00     0.160 HD
ENDROOT
BRANCH   1  26
HETATM   26  C2  UNL     1      32.871  11.555  45.715  1.00  0.00     0.052 C 
HETATM   27  C1  UNL     1      33.678  10.389  45.185  1.00  0.00     0.011 C 
ENDBRANCH   1  26
TORSDOF 1
ENDMDL
MODEL 8
REMARK VINA RESULT:      -7.5      2.997      6.628
REMARK  1 active torsions:
REMARK  status: ('A' for Active; 'I' for Inactive)
REMARK    1  A    between atoms: C2_2  and  C3_3 
ROOT
HETATM    1  C3  UNL     1      24.104   0.744  52.656  1.00  0.00     0.002 C 
HETATM    2  C4  UNL     1      23.204   1.223  51.758  1.00  0.00     0.011 C 
HETATM    3  C5  UNL     1      22.341   1.880  50.749  1.00  0.00     0.090 C 
HETATM    4  C6  UNL     1      21.285   2.727  51.437  1.00  0.00     0.057 C 
HETATM    5  C7  UNL     1      20.342   3.397  52.061  1.00  0.00     0.161 C 
HETATM    6  O1  UNL     1      19.611   2.383  52.685  1.00  0.00    -0.361 OA
HETATM    7  C8  UNL     1      19.086   1.343  51.847  1.00  0.00     0.180 C 
HETATM    8  C9  UNL     1      18.195   1.789  50.755  1.00  0.00     0.032 C 
HETATM    9  C10 UNL     1      17.767   0.526  49.989  1.00  0.00     0.014 C 
HETATM   10  C11 UNL     1      18.884   2.676  49.763  1.00  0.00     0.202 C 
HETATM   11  O2  UNL     1      19.205   3.880  50.326  1.00  0.00    -0.286 OA
HETATM   12  N1  UNL     1      20.335   4.390  49.765  1.00  0.00    -0.111 NA
HETATM   13  N2  UNL     1      21.429   3.613  50.243  1.00  0.00    -0.284 N 
HETATM   14  C12 UNL     1      22.749   3.140  50.117  1.00  0.00     0.144 C 
HETATM   15  O3  UNL     1      23.736   3.941  50.767  1.00  0.00     0.000 OA
HETATM   16  C13 UNL     1      24.709   3.163  51.510  1.00  0.00     0.056 A 
HETATM   17  C14 UNL     1      25.152   2.739  50.274  1.00  0.00    -0.028 A 
HETATM   18  C15 UNL     1      25.792   2.135  51.286  1.00  0.00     0.058 A 
HETATM   19  C16 UNL     1      25.174   2.720  52.365  1.00  0.00     0.083 A 
HETATM   20  C17 UNL     1      24.599   3.266  53.450  1.00  0.00     0.027 A 
HETATM   21  C18 UNL     1      23.964   3.863  52.392  1.00  0.00     0.162 A 
HETATM   22  F1  UNL     1      23.143   4.646  53.065  1.00  0.00    -0.234 F 
HETATM   23  N3  UNL     1      25.393   1.415  52.976  1.00  0.00    -0.378 N 
HETATM   24  H17 UNL     1      20.397   5.373  50.146  1.00  0.00     0.180 HD
HETATM   25  H22 UNL     1      26.141   0.941  53.504  1.00  0.00     0.160 HD
ENDROOT
BRANCH   1  26
HETATM   26  C2  UNL     1      23.990  -0.497  53.513  1.00  0.00     0.052 C 
HETATM   27  C1  UNL     1      22.559  -0.656  53.979  1.00  0.00     0.011 C 
ENDBRANCH   1  26
TORSDOF 1
ENDMDL
MODEL 9
REMARK VINA RESULT:      -7.3      6.573      9.165
REMARK  1 active torsions:
REMARK  status: ('A' for Active; 'I' for Inactive)
REMARK    1  A    between atoms: C2_2  and  C3_3 
ROOT
HETATM    1  C3  UNL     1      28.360   6.263  48.429  1.00  0.00     0.002 C 
HETATM    2  C4  UNL     1      29.671   6.615  48.487  1.00  0.00     0.011 C 
HETATM    3  C5  UNL     1      31.043   7.171  48.531  1.00  0.00     0.090 C 
HETATM    4  C6  UNL     1      31.697   7.054  47.166  1.00  0.00     0.057 C 
HETATM    5  C7  UNL     1      32.261   6.878  45.991  1.00  0.00     0.161 C 
HETATM    6  O1  UNL     1      32.343   5.487  45.898  1.00  0.00    -0.361 OA
HETATM    7  C8  UNL     1      33.036   4.799  46.951  1.00  0.00     0.180 C 
HETATM    8  C9  UNL     1      34.438   5.214  47.172  1.00  0.00     0.032 C 
HETATM    9  C10 UNL     1      34.971   4.366  48.338  1.00  0.00     0.014 C 
HETATM   10  C11 UNL     1      34.565   6.646  47.593  1.00  0.00     0.202 C 
HETATM   11  O2  UNL     1      34.218   7.487  46.573  1.00  0.00    -0.286 OA
HETATM   12  N1  UNL     1      33.681   8.640  47.058  1.00  0.00    -0.111 NA
HETATM   13  N2  UNL     1      32.382   8.325  47.548  1.00  0.00    -0.284 N 
HETATM   14  C12 UNL     1      31.276   8.611  48.372  1.00  0.00     0.144 C 
HETATM   15  O3  UNL     1      30.261   9.403  47.757  1.00  0.00     0.000 OA
HETATM   16  C13 UNL     1      28.918   8.918  48.015  1.00  0.00     0.056 A 
HETATM   17  C14 UNL     1      29.140   9.323  49.316  1.00  0.00    -0.028 A 
HETATM   18  C15 UNL     1      27.960   8.705  49.162  1.00  0.00     0.058 A 
HETATM   19  C16 UNL     1      27.995   8.415  47.819  1.00  0.00     0.083 A 
HETATM   20  C17 UNL     1      27.986   8.111  46.510  1.00  0.00     0.027 A 
HETATM   21  C18 UNL     1      29.186   8.745  46.703  1.00  0.00     0.162 A 
HETATM   22  F1  UNL     1      29.644   8.691  45.467  1.00  0.00    -0.234 F 
HETATM   23  N3  UNL     1      27.248   7.234  48.232  1.00  0.00    -0.378 N 
HETATM   24  H17 UNL     1      33.606   9.270  46.213  1.00  0.00     0.180 HD
HETATM   25  H22 UNL     1      26.263   6.976  48.389  1.00  0.00     0.160 HD
ENDROOT
BRANCH   1  26
HETATM   26  C2  UNL     1      27.766   4.875  48.513  1.00  0.00     0.052 C 
HETATM   27  C1  UNL     1      26.380   4.957  49.115  1.00  0.00     0.011 C 
ENDBRANCH   1  26
TORSDOF 1
ENDMDL
