MODEL 1
REMARK VINA RESULT:      -8.4      0.000      0.000
REMARK  5 active torsions:
REMARK  status: ('A' for Active; 'I' for Inactive)
REMARK    1  A    between atoms: C2_2  and  C3_3 
REMARK    2  A    between atoms: C3_3  and  C4_4 
REMARK    3  A    between atoms: C4_4  and  C5_5 
REMARK    4  A    between atoms: C7_8  and  C8_9 
REMARK    5  A    between atoms: N3_14  and  C11_15 
ROOT
HETATM    1  C8  UNL     1      25.973   0.745  53.341  1.00  0.00     0.147 A 
HETATM    2  C9  UNL     1      26.076   0.632  51.845  1.00  0.00     0.055 C 
HETATM    3  C10 UNL     1      26.978  -0.037  54.119  1.00  0.00     0.239 A 
HETATM    4  F1  UNL     1      28.318  -0.008  54.325  1.00  0.00    -0.184 F 
HETATM    5  N2  UNL     1      26.184  -0.907  54.657  1.00  0.00    -0.140 NA
HETATM    6  N3  UNL     1      25.146  -0.258  53.976  1.00  0.00    -0.222 N 
ENDROOT
BRANCH   6   7
HETATM    7  C11 UNL     1      23.741  -0.402  53.848  1.00  0.00     0.191 A 
HETATM    8  N4  UNL     1      22.887  -0.143  53.118  1.00  0.00    -0.222 NA
HETATM    9  C12 UNL     1      21.604  -0.366  53.171  1.00  0.00     0.076 A 
HETATM   10  C13 UNL     1      20.589  -0.006  52.206  1.00  0.00    -0.007 A 
HETATM   11  C19 UNL     1      21.221  -1.087  54.414  1.00  0.00     0.086 A 
HETATM   12  C14 UNL     1      20.936   0.660  51.055  1.00  0.00     0.014 A 
HETATM   13  C18 UNL     1      19.253  -0.276  52.334  1.00  0.00     0.014 A 
HETATM   14  C15 UNL     1      20.094   1.059  50.067  1.00  0.00     0.001 A 
HETATM   15  C16 UNL     1      18.763   0.755  50.260  1.00  0.00     0.000 A 
HETATM   16  C17 UNL     1      18.323   0.090  51.382  1.00  0.00     0.001 A 
HETATM   17  S1  UNL     1      22.887  -1.296  55.282  1.00  0.00    -0.060 SA
ENDBRANCH   6   7
BRANCH   1  18
HETATM   18  C7  UNL     1      25.771   2.120  53.867  1.00  0.00     0.041 C 
HETATM   19  C6  UNL     1      24.849   2.880  53.297  1.00  0.00     0.027 A 
HETATM   20  C5  UNL     1      23.813   3.198  52.366  1.00  0.00     0.131 A 
HETATM   21  N1  UNL     1      24.251   4.195  53.370  1.00  0.00    -0.382 N 
HETATM   22  H9  UNL     1      24.117   5.157  53.747  1.00  0.00     0.160 HD
BRANCH  20  23
HETATM   23  C4  UNL     1      24.085   3.694  50.955  1.00  0.00     0.035 C 
BRANCH  23  24
HETATM   24  C3  UNL     1      23.699   2.584  49.998  1.00  0.00     0.028 C 
BRANCH  24  25
HETATM   25  C2  UNL     1      22.947   3.192  48.872  1.00  0.00    -0.037 C 
HETATM   26  C1  UNL     1      22.546   2.546  47.761  1.00  0.00     0.007 C 
ENDBRANCH  24  25
ENDBRANCH  23  24
ENDBRANCH  20  23
ENDBRANCH   1  18
TORSDOF 5
ENDMDL
MODEL 2
REMARK VINA RESULT:      -8.0      2.715      4.387
REMARK  5 active torsions:
REMARK  status: ('A' for Active; 'I' for Inactive)
REMARK    1  A    between atoms: C2_2  and  C3_3 
REMARK    2  A    between atoms: C3_3  and  C4_4 
REMARK    3  A    between atoms: C4_4  and  C5_5 
REMARK    4  A    between atoms: C7_8  and  C8_9 
REMARK    5  A    between atoms: N3_14  and  C11_15 
ROOT
HETATM    1  C8  UNL     1      24.975   3.987  49.999  1.00  0.00     0.147 A 
HETATM    2  C9  UNL     1      23.962   3.327  49.104  1.00  0.00     0.055 C 
HETATM    3  C10 UNL     1      26.280   4.326  49.360  1.00  0.00     0.239 A 
HETATM    4  F1  UNL     1      26.729   5.187  48.413  1.00  0.00    -0.184 F 
HETATM    5  N2  UNL     1      27.039   3.493  49.997  1.00  0.00    -0.140 NA
HETATM    6  N3  UNL     1      25.882   3.081  50.671  1.00  0.00    -0.222 N 
ENDROOT
BRANCH   6   7
HETATM    7  C11 UNL     1      25.547   2.137  51.674  1.00  0.00     0.191 A 
HETATM    8  N4  UNL     1      24.638   1.548  52.068  1.00  0.00    -0.222 NA
HETATM    9  C12 UNL     1      24.516   0.689  53.040  1.00  0.00     0.076 A 
HETATM   10  C13 UNL     1      23.329  -0.013  53.476  1.00  0.00    -0.007 A 
HETATM   11  C19 UNL     1      25.810   0.459  53.736  1.00  0.00     0.086 A 
HETATM   12  C14 UNL     1      22.131   0.194  52.837  1.00  0.00     0.014 A 
HETATM   13  C18 UNL     1      23.281  -0.906  54.512  1.00  0.00     0.014 A 
HETATM   14  C15 UNL     1      20.943  -0.392  53.136  1.00  0.00     0.001 A 
HETATM   15  C16 UNL     1      20.967  -1.280  54.191  1.00  0.00     0.000 A 
HETATM   16  C17 UNL     1      22.121  -1.551  54.889  1.00  0.00     0.001 A 
HETATM   17  S1  UNL     1      26.982   1.596  52.784  1.00  0.00    -0.060 SA
ENDBRANCH   6   7
BRANCH   1  18
HETATM   18  C7  UNL     1      24.451   5.074  50.867  1.00  0.00     0.041 C 
HETATM   19  C6  UNL     1      23.296   4.882  51.484  1.00  0.00     0.027 A 
HETATM   20  C5  UNL     1      22.118   4.164  51.854  1.00  0.00     0.131 A 
HETATM   21  N1  UNL     1      22.363   5.525  52.383  1.00  0.00    -0.382 N 
HETATM   22  H9  UNL     1      22.005   6.293  52.989  1.00  0.00     0.160 HD
BRANCH  20  23
HETATM   23  C4  UNL     1      20.860   4.132  51.001  1.00  0.00     0.035 C 
BRANCH  23  24
HETATM   24  C3  UNL     1      20.235   2.759  51.157  1.00  0.00     0.028 C 
BRANCH  24  25
HETATM   25  C2  UNL     1      20.206   2.115  49.821  1.00  0.00    -0.037 C 
HETATM   26  C1  UNL     1      20.992   1.097  49.427  1.00  0.00     0.007 C 
ENDBRANCH  24  25
ENDBRANCH  23  24
ENDBRANCH  20  23
ENDBRANCH   1  18
TORSDOF 5
ENDMDL
MODEL 3
REMARK VINA RESULT:      -7.6      3.542      5.940
REMARK  5 active torsions:
REMARK  status: ('A' for Active; 'I' for Inactive)
REMARK    1  A    between atoms: C2_2  and  C3_3 
REMARK    2  A    between atoms: C3_3  and  C4_4 
REMARK    3  A    between atoms: C4_4  and  C5_5 
REMARK    4  A    between atoms: C7_8  and  C8_9 
REMARK    5  A    between atoms: N3_14  and  C11_15 
ROOT
HETATM    1  C8  UNL     1      20.506   3.629  51.070  1.00  0.00     0.147 A 
HETATM    2  C9  UNL     1      21.396   4.759  51.506  1.00  0.00     0.055 C 
HETATM    3  C10 UNL     1      19.053   3.798  51.366  1.00  0.00     0.239 A 
HETATM    4  F1  UNL     1      18.041   4.601  50.953  1.00  0.00    -0.184 F 
HETATM    5  N2  UNL     1      18.918   2.865  52.253  1.00  0.00    -0.140 NA
HETATM    6  N3  UNL     1      20.281   2.604  52.067  1.00  0.00    -0.222 N 
ENDROOT
BRANCH   6   7
HETATM    7  C11 UNL     1      21.245   1.702  52.585  1.00  0.00     0.191 A 
HETATM    8  N4  UNL     1      22.369   1.461  52.500  1.00  0.00    -0.222 NA
HETATM    9  C12 UNL     1      23.108   0.557  53.078  1.00  0.00     0.076 A 
HETATM   10  C13 UNL     1      24.526   0.318  52.917  1.00  0.00    -0.007 A 
HETATM   11  C19 UNL     1      22.314  -0.292  54.006  1.00  0.00     0.086 A 
HETATM   12  C14 UNL     1      25.265   1.099  52.063  1.00  0.00     0.014 A 
HETATM   13  C18 UNL     1      25.235  -0.658  53.563  1.00  0.00     0.014 A 
HETATM   14  C15 UNL     1      26.595   0.989  51.813  1.00  0.00     0.001 A 
HETATM   15  C16 UNL     1      27.248  -0.015  52.498  1.00  0.00     0.000 A 
HETATM   16  C17 UNL     1      26.589  -0.845  53.375  1.00  0.00     0.001 A 
HETATM   17  S1  UNL     1      20.580   0.439  53.830  1.00  0.00    -0.060 SA
ENDBRANCH   6   7
BRANCH   1  18
HETATM   18  C7  UNL     1      20.763   3.100  49.705  1.00  0.00     0.041 C 
HETATM   19  C6  UNL     1      22.020   2.953  49.317  1.00  0.00     0.027 A 
HETATM   20  C5  UNL     1      23.442   3.009  49.449  1.00  0.00     0.131 A 
HETATM   21  N1  UNL     1      22.824   2.520  48.195  1.00  0.00    -0.382 N 
HETATM   22  H9  UNL     1      22.995   2.149  47.237  1.00  0.00     0.160 HD
BRANCH  20  23
HETATM   23  C4  UNL     1      24.253   4.270  49.199  1.00  0.00     0.035 C 
BRANCH  23  24
HETATM   24  C3  UNL     1      25.695   3.966  49.556  1.00  0.00     0.028 C 
BRANCH  24  25
HETATM   25  C2  UNL     1      26.544   5.041  48.985  1.00  0.00    -0.037 C 
HETATM   26  C1  UNL     1      27.827   4.903  48.604  1.00  0.00     0.007 C 
ENDBRANCH  24  25
ENDBRANCH  23  24
ENDBRANCH  20  23
ENDBRANCH   1  18
TORSDOF 5
ENDMDL
MODEL 4
REMARK VINA RESULT:      -7.5      3.433      4.758
REMARK  5 active torsions:
REMARK  status: ('A' for Active; 'I' for Inactive)
REMARK    1  A    between atoms: C2_2  and  C3_3 
REMARK    2  A    between atoms: C3_3  and  C4_4 
REMARK    3  A    between atoms: C4_4  and  C5_5 
REMARK    4  A    between atoms: C7_8  and  C8_9 
REMARK    5  A    between atoms: N3_14  and  C11_15 
ROOT
HETATM    1  C8  UNL     1      24.991   4.242  50.075  1.00  0.00     0.147 A 
HETATM    2  C9  UNL     1      23.802   3.875  49.230  1.00  0.00     0.055 C 
HETATM    3  C10 UNL     1      26.272   4.444  49.336  1.00  0.00     0.239 A 
HETATM    4  F1  UNL     1      26.776   5.335  48.446  1.00  0.00    -0.184 F 
HETATM    5  N2  UNL     1      26.928   3.424  49.788  1.00  0.00    -0.140 NA
HETATM    6  N3  UNL     1      25.784   3.123  50.537  1.00  0.00    -0.222 N 
ENDROOT
BRANCH   6   7
HETATM    7  C11 UNL     1      25.381   2.124  51.460  1.00  0.00     0.191 A 
HETATM    8  N4  UNL     1      24.426   1.608  51.846  1.00  0.00    -0.222 NA
HETATM    9  C12 UNL     1      24.245   0.672  52.734  1.00  0.00     0.076 A 
HETATM   10  C13 UNL     1      23.002   0.072  53.166  1.00  0.00    -0.007 A 
HETATM   11  C19 UNL     1      25.531   0.221  53.328  1.00  0.00     0.086 A 
HETATM   12  C14 UNL     1      21.810   0.484  52.621  1.00  0.00     0.014 A 
HETATM   13  C18 UNL     1      22.892  -0.913  54.111  1.00  0.00     0.014 A 
HETATM   14  C15 UNL     1      20.574   0.013  52.929  1.00  0.00     0.001 A 
HETATM   15  C16 UNL     1      20.537  -0.978  53.889  1.00  0.00     0.000 A 
HETATM   16  C17 UNL     1      21.680  -1.453  54.489  1.00  0.00     0.001 A 
HETATM   17  S1  UNL     1      26.789   1.306  52.427  1.00  0.00    -0.060 SA
ENDBRANCH   6   7
BRANCH   1  18
HETATM   18  C7  UNL     1      24.746   5.279  51.110  1.00  0.00     0.041 C 
HETATM   19  C6  UNL     1      24.316   6.468  50.717  1.00  0.00     0.027 A 
HETATM   20  C5  UNL     1      23.900   7.459  49.775  1.00  0.00     0.131 A 
HETATM   21  N1  UNL     1      23.935   7.768  51.223  1.00  0.00    -0.382 N 
HETATM   22  H9  UNL     1      23.765   8.488  51.957  1.00  0.00     0.160 HD
BRANCH  20  23
HETATM   23  C4  UNL     1      24.873   8.341  49.009  1.00  0.00     0.035 C 
BRANCH  23  24
HETATM   24  C3  UNL     1      24.963   7.802  47.595  1.00  0.00     0.028 C 
BRANCH  24  25
HETATM   25  C2  UNL     1      23.710   7.060  47.308  1.00  0.00    -0.037 C 
HETATM   26  C1  UNL     1      22.994   7.147  46.172  1.00  0.00     0.007 C 
ENDBRANCH  24  25
ENDBRANCH  23  24
ENDBRANCH  20  23
ENDBRANCH   1  18
TORSDOF 5
ENDMDL
MODEL 5
REMARK VINA RESULT:      -7.4      3.793      7.439
REMARK  5 active torsions:
REMARK  status: ('A' for Active; 'I' for Inactive)
REMARK    1  A    between atoms: C2_2  and  C3_3 
REMARK    2  A    between atoms: C3_3  and  C4_4 
REMARK    3  A    between atoms: C4_4  and  C5_5 
REMARK    4  A    between atoms: C7_8  and  C8_9 
REMARK    5  A    between atoms: N3_14  and  C11_15 
ROOT
HETATM    1  C8  UNL     1      22.054   2.458  51.586  1.00  0.00     0.147 A 
HETATM    2  C9  UNL     1      21.840   1.777  50.262  1.00  0.00     0.055 C 
HETATM    3  C10 UNL     1      20.835   2.632  52.428  1.00  0.00     0.239 A 
HETATM    4  F1  UNL     1      19.974   1.836  53.109  1.00  0.00    -0.184 F 
HETATM    5  N2  UNL     1      20.737   3.922  52.376  1.00  0.00    -0.140 NA
HETATM    6  N3  UNL     1      21.883   3.894  51.571  1.00  0.00    -0.222 N 
ENDROOT
BRANCH   6   7
HETATM    7  C11 UNL     1      22.705   4.838  50.904  1.00  0.00     0.191 A 
HETATM    8  N4  UNL     1      23.746   4.917  50.415  1.00  0.00    -0.222 NA
HETATM    9  C12 UNL     1      24.355   5.908  49.828  1.00  0.00     0.076 A 
HETATM   10  C13 UNL     1      25.673   5.927  49.233  1.00  0.00    -0.007 A 
HETATM   11  C19 UNL     1      23.516   7.136  49.809  1.00  0.00     0.086 A 
HETATM   12  C14 UNL     1      26.453   4.796  49.247  1.00  0.00     0.014 A 
HETATM   13  C18 UNL     1      26.247   7.014  48.631  1.00  0.00     0.014 A 
HETATM   14  C15 UNL     1      27.702   4.669  48.730  1.00  0.00     0.001 A 
HETATM   15  C16 UNL     1      28.220   5.802  48.138  1.00  0.00     0.000 A 
HETATM   16  C17 UNL     1      27.511   6.980  48.078  1.00  0.00     0.001 A 
HETATM   17  S1  UNL     1      21.948   6.561  50.693  1.00  0.00    -0.060 SA
ENDBRANCH   6   7
BRANCH   1  18
HETATM   18  C7  UNL     1      23.235   1.995  52.361  1.00  0.00     0.041 C 
HETATM   19  C6  UNL     1      23.170   0.816  52.958  1.00  0.00     0.027 A 
HETATM   20  C5  UNL     1      22.565  -0.420  53.344  1.00  0.00     0.131 A 
HETATM   21  N1  UNL     1      23.940  -0.088  53.783  1.00  0.00    -0.382 N 
HETATM   22  H9  UNL     1      24.773  -0.404  54.324  1.00  0.00     0.160 HD
BRANCH  20  23
HETATM   23  C4  UNL     1      21.631  -0.554  54.537  1.00  0.00     0.035 C 
BRANCH  23  24
HETATM   24  C3  UNL     1      20.679  -1.696  54.247  1.00  0.00     0.028 C 
BRANCH  24  25
HETATM   25  C2  UNL     1      19.635  -1.197  53.317  1.00  0.00    -0.037 C 
HETATM   26  C1  UNL     1      18.311  -1.393  53.451  1.00  0.00     0.007 C 
ENDBRANCH  24  25
ENDBRANCH  23  24
ENDBRANCH  20  23
ENDBRANCH   1  18
TORSDOF 5
ENDMDL
MODEL 6
REMARK VINA RESULT:      -7.2      4.937      7.050
REMARK  5 active torsions:
REMARK  status: ('A' for Active; 'I' for Inactive)
REMARK    1  A    between atoms: C2_2  and  C3_3 
REMARK    2  A    between atoms: C3_3  and  C4_4 
REMARK    3  A    between atoms: C4_4  and  C5_5 
REMARK    4  A    between atoms: C7_8  and  C8_9 
REMARK    5  A    between atoms: N3_14  and  C11_15 
ROOT
HETATM    1  C8  UNL     1      25.312   5.933  49.296  1.00  0.00     0.147 A 
HETATM    2  C9  UNL     1      25.446   6.959  50.387  1.00  0.00     0.055 C 
HETATM    3  C10 UNL     1      24.477   6.337  48.127  1.00  0.00     0.239 A 
HETATM    4  F1  UNL     1      24.552   7.235  47.114  1.00  0.00    -0.184 F 
HETATM    5  N2  UNL     1      23.487   5.519  48.294  1.00  0.00    -0.140 NA
HETATM    6  N3  UNL     1      24.174   5.048  49.421  1.00  0.00    -0.222 N 
ENDROOT
BRANCH   6   7
HETATM    7  C11 UNL     1      23.969   4.069  50.426  1.00  0.00     0.191 A 
HETATM    8  N4  UNL     1      24.483   3.140  50.875  1.00  0.00    -0.222 NA
HETATM    9  C12 UNL     1      24.129   2.333  51.835  1.00  0.00     0.076 A 
HETATM   10  C13 UNL     1      24.836   1.178  52.344  1.00  0.00    -0.007 A 
HETATM   11  C19 UNL     1      22.822   2.722  52.428  1.00  0.00     0.086 A 
HETATM   12  C14 UNL     1      26.044   0.813  51.801  1.00  0.00     0.014 A 
HETATM   13  C18 UNL     1      24.397   0.375  53.361  1.00  0.00     0.014 A 
HETATM   14  C15 UNL     1      26.814  -0.240  52.176  1.00  0.00     0.001 A 
HETATM   15  C16 UNL     1      26.312  -1.007  53.207  1.00  0.00     0.000 A 
HETATM   16  C17 UNL     1      25.111  -0.717  53.812  1.00  0.00     0.001 A 
HETATM   17  S1  UNL     1      22.364   4.249  51.414  1.00  0.00    -0.060 SA
ENDBRANCH   6   7
BRANCH   1  18
HETATM   18  C7  UNL     1      26.571   5.248  48.902  1.00  0.00     0.041 C 
HETATM   19  C6  UNL     1      27.590   5.992  48.502  1.00  0.00     0.027 A 
HETATM   20  C5  UNL     1      28.276   7.206  48.188  1.00  0.00     0.131 A 
HETATM   21  N1  UNL     1      28.956   5.899  48.034  1.00  0.00    -0.382 N 
HETATM   22  H9  UNL     1      29.834   5.410  47.761  1.00  0.00     0.160 HD
BRANCH  20  23
HETATM   23  C4  UNL     1      28.148   7.912  46.848  1.00  0.00     0.035 C 
BRANCH  23  24
HETATM   24  C3  UNL     1      27.979   9.393  47.124  1.00  0.00     0.028 C 
BRANCH  24  25
HETATM   25  C2  UNL     1      26.588   9.614  47.592  1.00  0.00    -0.037 C 
HETATM   26  C1  UNL     1      26.237  10.260  48.719  1.00  0.00     0.007 C 
ENDBRANCH  24  25
ENDBRANCH  23  24
ENDBRANCH  20  23
ENDBRANCH   1  18
TORSDOF 5
ENDMDL
MODEL 7
REMARK VINA RESULT:      -7.1      4.130      7.682
REMARK  5 active torsions:
REMARK  status: ('A' for Active; 'I' for Inactive)
REMARK    1  A    between atoms: C2_2  and  C3_3 
REMARK    2  A    between atoms: C3_3  and  C4_4 
REMARK    3  A    between atoms: C4_4  and  C5_5 
REMARK    4  A    between atoms: C7_8  and  C8_9 
REMARK    5  A    between atoms: N3_14  and  C11_15 
ROOT
HETATM    1  C8  UNL     1      22.729   3.184  51.758  1.00  0.00     0.147 A 
HETATM    2  C9  UNL     1      23.103   2.085  50.803  1.00  0.00     0.055 C 
HETATM    3  C10 UNL     1      21.289   3.243  52.145  1.00  0.00     0.239 A 
HETATM    4  F1  UNL     1      20.418   2.485  52.857  1.00  0.00    -0.184 F 
HETATM    5  N2  UNL     1      20.970   4.356  51.566  1.00  0.00    -0.140 NA
HETATM    6  N3  UNL     1      22.302   4.419  51.137  1.00  0.00    -0.222 N 
ENDROOT
BRANCH   6   7
HETATM    7  C11 UNL     1      23.104   5.301  50.369  1.00  0.00     0.191 A 
HETATM    8  N4  UNL     1      24.166   5.377  49.929  1.00  0.00    -0.222 NA
HETATM    9  C12 UNL     1      24.747   6.303  49.221  1.00  0.00     0.076 A 
HETATM   10  C13 UNL     1      26.097   6.323  48.701  1.00  0.00    -0.007 A 
HETATM   11  C19 UNL     1      23.836   7.448  48.958  1.00  0.00     0.086 A 
HETATM   12  C14 UNL     1      26.944   5.268  48.940  1.00  0.00     0.014 A 
HETATM   13  C18 UNL     1      26.638   7.339  47.961  1.00  0.00     0.014 A 
HETATM   14  C15 UNL     1      28.229   5.151  48.517  1.00  0.00     0.001 A 
HETATM   15  C16 UNL     1      28.711   6.211  47.777  1.00  0.00     0.000 A 
HETATM   16  C17 UNL     1      27.934   7.309  47.487  1.00  0.00     0.001 A 
HETATM   17  S1  UNL     1      22.254   6.909  49.840  1.00  0.00    -0.060 SA
ENDBRANCH   6   7
BRANCH   1  18
HETATM   18  C7  UNL     1      23.649   3.372  52.911  1.00  0.00     0.041 C 
HETATM   19  C6  UNL     1      24.756   2.648  52.953  1.00  0.00     0.027 A 
HETATM   20  C5  UNL     1      25.702   1.681  52.492  1.00  0.00     0.131 A 
HETATM   21  N1  UNL     1      25.936   2.414  53.757  1.00  0.00    -0.382 N 
HETATM   22  H9  UNL     1      26.574   2.553  54.569  1.00  0.00     0.160 HD
BRANCH  20  23
HETATM   23  C4  UNL     1      25.559   0.189  52.748  1.00  0.00     0.035 C 
BRANCH  23  24
HETATM   24  C3  UNL     1      26.811  -0.487  52.225  1.00  0.00     0.028 C 
BRANCH  24  25
HETATM   25  C2  UNL     1      27.695  -0.770  53.383  1.00  0.00    -0.037 C 
HETATM   26  C1  UNL     1      29.040  -0.794  53.351  1.00  0.00     0.007 C 
ENDBRANCH  24  25
ENDBRANCH  23  24
ENDBRANCH  20  23
ENDBRANCH   1  18
TORSDOF 5
ENDMDL
MODEL 8
REMARK VINA RESULT:      -7.0      4.643      6.878
REMARK  5 active torsions:
REMARK  status: ('A' for Active; 'I' for Inactive)
REMARK    1  A    between atoms: C2_2  and  C3_3 
REMARK    2  A    between atoms: C3_3  and  C4_4 
REMARK    3  A    between atoms: C4_4  and  C5_5 
REMARK    4  A    between atoms: C7_8  and  C8_9 
REMARK    5  A    between atoms: N3_14  and  C11_15 
ROOT
HETATM    1  C8  UNL     1      19.768   1.326  51.874  1.00  0.00     0.147 A 
HETATM    2  C9  UNL     1      20.458   2.521  52.470  1.00  0.00     0.055 C 
HETATM    3  C10 UNL     1      20.302   0.860  50.560  1.00  0.00     0.239 A 
HETATM    4  F1  UNL     1      21.441   0.290  50.095  1.00  0.00    -0.184 F 
HETATM    5  N2  UNL     1      19.287   1.158  49.813  1.00  0.00    -0.140 NA
HETATM    6  N3  UNL     1      18.673   1.632  50.980  1.00  0.00    -0.222 N 
ENDROOT
BRANCH   6   7
HETATM    7  C11 UNL     1      17.433   2.225  51.332  1.00  0.00     0.191 A 
HETATM    8  N4  UNL     1      16.446   1.963  51.865  1.00  0.00    -0.222 NA
HETATM    9  C12 UNL     1      15.376   2.667  52.103  1.00  0.00     0.076 A 
HETATM   10  C13 UNL     1      14.167   2.263  52.787  1.00  0.00    -0.007 A 
HETATM   11  C19 UNL     1      15.498   4.051  51.572  1.00  0.00     0.086 A 
HETATM   12  C14 UNL     1      14.048   0.986  53.280  1.00  0.00     0.014 A 
HETATM   13  C18 UNL     1      13.079   3.065  52.998  1.00  0.00     0.014 A 
HETATM   14  C15 UNL     1      12.978   0.470  53.938  1.00  0.00     0.001 A 
HETATM   15  C16 UNL     1      11.917   1.333  54.117  1.00  0.00     0.000 A 
HETATM   16  C17 UNL     1      11.947   2.630  53.657  1.00  0.00     0.001 A 
HETATM   17  S1  UNL     1      17.224   4.031  50.803  1.00  0.00    -0.060 SA
ENDBRANCH   6   7
BRANCH   1  18
HETATM   18  C7  UNL     1      19.488   0.211  52.816  1.00  0.00     0.041 C 
HETATM   19  C6  UNL     1      20.480  -0.236  53.570  1.00  0.00     0.027 A 
HETATM   20  C5  UNL     1      21.817  -0.288  54.072  1.00  0.00     0.131 A 
HETATM   21  N1  UNL     1      20.786  -1.218  54.587  1.00  0.00    -0.382 N 
HETATM   22  H9  UNL     1      20.580  -1.999  55.245  1.00  0.00     0.160 HD
BRANCH  20  23
HETATM   23  C4  UNL     1      22.937  -1.048  53.381  1.00  0.00     0.035 C 
BRANCH  23  24
HETATM   24  C3  UNL     1      24.205  -0.231  53.530  1.00  0.00     0.028 C 
BRANCH  24  25
HETATM   25  C2  UNL     1      23.936   1.130  53.004  1.00  0.00    -0.037 C 
HETATM   26  C1  UNL     1      24.034   1.502  51.714  1.00  0.00     0.007 C 
ENDBRANCH  24  25
ENDBRANCH  23  24
ENDBRANCH  20  23
ENDBRANCH   1  18
TORSDOF 5
ENDMDL
MODEL 9
REMARK VINA RESULT:      -7.0      2.795      5.058
REMARK  5 active torsions:
REMARK  status: ('A' for Active; 'I' for Inactive)
REMARK    1  A    between atoms: C2_2  and  C3_3 
REMARK    2  A    between atoms: C3_3  and  C4_4 
REMARK    3  A    between atoms: C4_4  and  C5_5 
REMARK    4  A    between atoms: C7_8  and  C8_9 
REMARK    5  A    between atoms: N3_14  and  C11_15 
ROOT
HETATM    1  C8  UNL     1      23.821   2.423  51.985  1.00  0.00     0.147 A 
HETATM    2  C9  UNL     1      23.954   3.498  53.028  1.00  0.00     0.055 C 
HETATM    3  C10 UNL     1      24.733   2.544  50.811  1.00  0.00     0.239 A 
HETATM    4  F1  UNL     1      26.065   2.449  50.572  1.00  0.00    -0.184 F 
HETATM    5  N2  UNL     1      23.853   2.805  49.898  1.00  0.00    -0.140 NA
HETATM    6  N3  UNL     1      22.894   2.718  50.915  1.00  0.00    -0.222 N 
ENDROOT
BRANCH   6   7
HETATM    7  C11 UNL     1      21.485   2.845  51.025  1.00  0.00     0.191 A 
HETATM    8  N4  UNL     1      20.546   2.193  51.166  1.00  0.00    -0.222 NA
HETATM    9  C12 UNL     1      19.282   2.500  51.248  1.00  0.00     0.076 A 
HETATM   10  C13 UNL     1      18.152   1.614  51.427  1.00  0.00    -0.007 A 
HETATM   11  C19 UNL     1      19.063   3.966  51.135  1.00  0.00     0.086 A 
HETATM   12  C14 UNL     1      18.347   0.259  51.533  1.00  0.00     0.014 A 
HETATM   13  C18 UNL     1      16.846   2.015  51.504  1.00  0.00     0.014 A 
HETATM   14  C15 UNL     1      17.387  -0.686  51.702  1.00  0.00     0.001 A 
HETATM   15  C16 UNL     1      16.093  -0.213  51.772  1.00  0.00     0.000 A 
HETATM   16  C17 UNL     1      15.802   1.129  51.676  1.00  0.00     0.001 A 
HETATM   17  S1  UNL     1      20.825   4.617  50.922  1.00  0.00    -0.060 SA
ENDBRANCH   6   7
BRANCH   1  18
HETATM   18  C7  UNL     1      23.724   1.034  52.506  1.00  0.00     0.041 C 
HETATM   19  C6  UNL     1      24.779   0.520  53.118  1.00  0.00     0.027 A 
HETATM   20  C5  UNL     1      26.111   0.508  53.635  1.00  0.00     0.131 A 
HETATM   21  N1  UNL     1      25.241  -0.682  53.778  1.00  0.00    -0.382 N 
HETATM   22  H9  UNL     1      25.163  -1.656  54.139  1.00  0.00     0.160 HD
BRANCH  20  23
HETATM   23  C4  UNL     1      27.331   0.188  52.785  1.00  0.00     0.035 C 
BRANCH  23  24
HETATM   24  C3  UNL     1      28.467   1.068  53.267  1.00  0.00     0.028 C 
BRANCH  24  25
HETATM   25  C2  UNL     1      29.481   0.195  53.909  1.00  0.00    -0.037 C 
HETATM   26  C1  UNL     1      29.773  -1.065  53.538  1.00  0.00     0.007 C 
ENDBRANCH  24  25
ENDBRANCH  23  24
ENDBRANCH  20  23
ENDBRANCH   1  18
TORSDOF 5
ENDMDL
