MODEL 1
REMARK VINA RESULT:      -8.3      0.000      0.000
REMARK  6 active torsions:
REMARK  status: ('A' for Active; 'I' for Inactive)
REMARK    1  A    between atoms: C2_2  and  C3_3 
REMARK    2  A    between atoms: C3_3  and  C4_4 
REMARK    3  A    between atoms: C9_12  and  N3_13 
REMARK    4  A    between atoms: N3_13  and  C10_14 
REMARK    5  A    between atoms: C19_25  and  C20_26 
REMARK    6  A    between atoms: C20_26  and  O3_27 
ROOT
HETATM    1  C4  UNL     1      20.197   1.145  51.760  1.00  0.00     0.160 C 
HETATM    2  O1  UNL     1      20.847   2.085  50.945  1.00  0.00    -0.340 OA
HETATM    3  C5  UNL     1      22.199   2.301  51.006  1.00  0.00     0.105 A 
HETATM    4  C6  UNL     1      22.952   2.884  50.009  1.00  0.00     0.072 A 
HETATM    5  C7  UNL     1      24.311   3.045  50.196  1.00  0.00     0.075 A 
HETATM    6  N1  UNL     1      25.052   3.610  49.232  1.00  0.00    -0.241 NA
HETATM    7  C8  UNL     1      26.383   3.747  49.461  1.00  0.00     0.236 A 
HETATM    8  N2  UNL     1      26.936   3.330  50.615  1.00  0.00    -0.224 NA
HETATM    9  C9  UNL     1      26.213   2.757  51.602  1.00  0.00     0.142 A 
HETATM   10  C16 UNL     1      24.857   2.604  51.397  1.00  0.00     0.042 A 
HETATM   11  C17 UNL     1      24.139   2.018  52.418  1.00  0.00     0.057 A 
HETATM   12  C18 UNL     1      22.766   1.874  52.188  1.00  0.00     0.103 A 
HETATM   13  O2  UNL     1      22.036   1.284  53.209  1.00  0.00    -0.338 OA
HETATM   14  C19 UNL     1      20.601   1.307  53.203  1.00  0.00     0.182 C 
ENDROOT
BRANCH   9  15
HETATM   15  N3  UNL     1      26.922   2.362  52.770  1.00  0.00    -0.340 N 
HETATM   16  H11 UNL     1      26.730   3.098  53.485  1.00  0.00     0.167 HD
BRANCH  15  17
HETATM   17  C10 UNL     1      27.744   1.227  53.014  1.00  0.00     0.035 A 
HETATM   18  C11 UNL     1      29.017   1.426  53.524  1.00  0.00     0.029 A 
HETATM   19  C12 UNL     1      29.751   0.266  53.732  1.00  0.00     0.004 A 
HETATM   20  C13 UNL     1      29.272  -1.001  53.459  1.00  0.00     0.024 A 
HETATM   21  C14 UNL     1      27.994  -1.129  52.952  1.00  0.00     0.036 A 
HETATM   22 CL1  UNL     1      27.423  -2.744  52.621  1.00  0.00    -0.084 Cl
HETATM   23  C15 UNL     1      27.214  -0.014  52.723  1.00  0.00     0.053 A 
ENDBRANCH  15  17
ENDBRANCH   9  15
BRANCH  14  24
HETATM   24  C20 UNL     1      20.165   0.111  54.022  1.00  0.00     0.202 C 
BRANCH  24  25
HETATM   25  O3  UNL     1      21.281  -0.304  54.759  1.00  0.00    -0.393 OA
HETATM   26  C21 UNL     1      21.542  -1.661  54.518  1.00  0.00     0.201 C 
ENDBRANCH  24  25
ENDBRANCH  14  24
BRANCH   1  27
HETATM   27  C3  UNL     1      18.701   1.202  51.564  1.00  0.00     0.035 C 
BRANCH  27  28
HETATM   28  C2  UNL     1      18.167  -0.061  50.953  1.00  0.00    -0.002 C 
HETATM   29  C1  UNL     1      17.432  -0.871  51.967  1.00  0.00     0.005 C 
ENDBRANCH  27  28
ENDBRANCH   1  27
TORSDOF 6
ENDMDL
MODEL 2
REMARK VINA RESULT:      -8.2      3.618      7.751
REMARK  6 active torsions:
REMARK  status: ('A' for Active; 'I' for Inactive)
REMARK    1  A    between atoms: C2_2  and  C3_3 
REMARK    2  A    between atoms: C3_3  and  C4_4 
REMARK    3  A    between atoms: C9_12  and  N3_13 
REMARK    4  A    between atoms: N3_13  and  C10_14 
REMARK    5  A    between atoms: C19_25  and  C20_26 
REMARK    6  A    between atoms: C20_26  and  O3_27 
ROOT
HETATM    1  C4  UNL     1      27.131   0.221  54.035  1.00  0.00     0.160 C 
HETATM    2  O1  UNL     1      26.103  -0.399  54.762  1.00  0.00    -0.340 OA
HETATM    3  C5  UNL     1      24.788  -0.322  54.387  1.00  0.00     0.105 A 
HETATM    4  C6  UNL     1      23.798  -1.195  54.789  1.00  0.00     0.072 A 
HETATM    5  C7  UNL     1      22.507  -1.005  54.338  1.00  0.00     0.075 A 
HETATM    6  N1  UNL     1      21.538  -1.849  54.722  1.00  0.00    -0.241 NA
HETATM    7  C8  UNL     1      20.284  -1.622  54.253  1.00  0.00     0.236 A 
HETATM    8  N2  UNL     1      20.026  -0.587  53.433  1.00  0.00    -0.224 NA
HETATM    9  C9  UNL     1      20.982   0.278  53.030  1.00  0.00     0.142 A 
HETATM   10  C16 UNL     1      22.268   0.072  53.491  1.00  0.00     0.042 A 
HETATM   11  C17 UNL     1      23.227   0.967  53.067  1.00  0.00     0.057 A 
HETATM   12  C18 UNL     1      24.522   0.739  53.547  1.00  0.00     0.103 A 
HETATM   13  O2  UNL     1      25.494   1.633  53.126  1.00  0.00    -0.338 OA
HETATM   14  C19 UNL     1      26.793   1.659  53.737  1.00  0.00     0.182 C 
ENDROOT
BRANCH   9  15
HETATM   15  N3  UNL     1      20.574   1.329  52.163  1.00  0.00    -0.340 N 
HETATM   16  H11 UNL     1      19.841   1.861  52.683  1.00  0.00     0.167 HD
BRANCH  15  17
HETATM   17  C10 UNL     1      21.008   1.667  50.852  1.00  0.00     0.035 A 
HETATM   18  C11 UNL     1      21.155   0.654  49.919  1.00  0.00     0.029 A 
HETATM   19  C12 UNL     1      21.582   1.070  48.665  1.00  0.00     0.004 A 
HETATM   20  C13 UNL     1      21.846   2.389  48.347  1.00  0.00     0.024 A 
HETATM   21  C14 UNL     1      21.678   3.350  49.324  1.00  0.00     0.036 A 
HETATM   22 CL1  UNL     1      22.021   5.004  48.886  1.00  0.00    -0.084 Cl
HETATM   23  C15 UNL     1      21.256   2.999  50.590  1.00  0.00     0.053 A 
ENDBRANCH  15  17
ENDBRANCH   9  15
BRANCH  14  24
HETATM   24  C20 UNL     1      27.730   2.228  52.693  1.00  0.00     0.202 C 
BRANCH  24  25
HETATM   25  O3  UNL     1      27.177   1.923  51.443  1.00  0.00    -0.393 OA
HETATM   26  C21 UNL     1      26.759   3.097  50.800  1.00  0.00     0.201 C 
ENDBRANCH  24  25
ENDBRANCH  14  24
BRANCH   1  27
HETATM   27  C3  UNL     1      28.459   0.069  54.737  1.00  0.00     0.035 C 
BRANCH  27  28
HETATM   28  C2  UNL     1      29.477  -0.613  53.871  1.00  0.00    -0.002 C 
HETATM   29  C1  UNL     1      28.879  -1.788  53.173  1.00  0.00     0.005 C 
ENDBRANCH  27  28
ENDBRANCH   1  27
TORSDOF 6
ENDMDL
MODEL 3
REMARK VINA RESULT:      -8.2      2.709      4.395
REMARK  6 active torsions:
REMARK  status: ('A' for Active; 'I' for Inactive)
REMARK    1  A    between atoms: C2_2  and  C3_3 
REMARK    2  A    between atoms: C3_3  and  C4_4 
REMARK    3  A    between atoms: C9_12  and  N3_13 
REMARK    4  A    between atoms: N3_13  and  C10_14 
REMARK    5  A    between atoms: C19_25  and  C20_26 
REMARK    6  A    between atoms: C20_26  and  O3_27 
ROOT
HETATM    1  C4  UNL     1      19.039   1.083  51.522  1.00  0.00     0.160 C 
HETATM    2  O1  UNL     1      19.348   0.127  52.502  1.00  0.00    -0.340 OA
HETATM    3  C5  UNL     1      20.627  -0.085  52.946  1.00  0.00     0.105 A 
HETATM    4  C6  UNL     1      20.960  -0.688  54.140  1.00  0.00     0.072 A 
HETATM    5  C7  UNL     1      22.292  -0.842  54.470  1.00  0.00     0.075 A 
HETATM    6  N1  UNL     1      22.626  -1.426  55.630  1.00  0.00    -0.241 NA
HETATM    7  C8  UNL     1      23.948  -1.556  55.912  1.00  0.00     0.236 A 
HETATM    8  N2  UNL     1      24.887  -1.114  55.056  1.00  0.00    -0.224 NA
HETATM    9  C9  UNL     1      24.579  -0.521  53.881  1.00  0.00     0.142 A 
HETATM   10  C16 UNL     1      23.242  -0.375  53.568  1.00  0.00     0.042 A 
HETATM   11  C17 UNL     1      22.951   0.232  52.365  1.00  0.00     0.057 A 
HETATM   12  C18 UNL     1      21.590   0.368  52.069  1.00  0.00     0.103 A 
HETATM   13  O2  UNL     1      21.287   0.978  50.861  1.00  0.00    -0.338 OA
HETATM   14  C19 UNL     1      19.953   0.953  50.331  1.00  0.00     0.182 C 
ENDROOT
BRANCH   9  15
HETATM   15  N3  UNL     1      25.668  -0.099  53.069  1.00  0.00    -0.340 N 
HETATM   16  H11 UNL     1      25.242   0.300  52.204  1.00  0.00     0.167 HD
BRANCH  15  17
HETATM   17  C10 UNL     1      27.070  -0.164  53.297  1.00  0.00     0.035 A 
HETATM   18  C11 UNL     1      27.742  -1.332  52.976  1.00  0.00     0.029 A 
HETATM   19  C12 UNL     1      29.107  -1.311  53.230  1.00  0.00     0.004 A 
HETATM   20  C13 UNL     1      29.768  -0.220  53.762  1.00  0.00     0.024 A 
HETATM   21  C14 UNL     1      29.038   0.914  54.059  1.00  0.00     0.036 A 
HETATM   22 CL1  UNL     1      29.907   2.271  54.728  1.00  0.00    -0.084 Cl
HETATM   23  C15 UNL     1      27.678   0.955  53.829  1.00  0.00     0.053 A 
ENDBRANCH  15  17
ENDBRANCH   9  15
BRANCH  14  24
HETATM   24  C20 UNL     1      19.843   2.165  49.431  1.00  0.00     0.202 C 
BRANCH  24  25
HETATM   25  O3  UNL     1      20.863   3.047  49.812  1.00  0.00    -0.393 OA
HETATM   26  C21 UNL     1      20.331   4.320  50.065  1.00  0.00     0.201 C 
ENDBRANCH  24  25
ENDBRANCH  14  24
BRANCH   1  27
HETATM   27  C3  UNL     1      17.579   1.020  51.145  1.00  0.00     0.035 C 
BRANCH  27  28
HETATM   28  C2  UNL     1      17.228  -0.275  50.472  1.00  0.00    -0.002 C 
HETATM   29  C1  UNL     1      16.215  -0.057  49.398  1.00  0.00     0.005 C 
ENDBRANCH  27  28
ENDBRANCH   1  27
TORSDOF 6
ENDMDL
MODEL 4
REMARK VINA RESULT:      -8.2      3.377      7.632
REMARK  6 active torsions:
REMARK  status: ('A' for Active; 'I' for Inactive)
REMARK    1  A    between atoms: C2_2  and  C3_3 
REMARK    2  A    between atoms: C3_3  and  C4_4 
REMARK    3  A    between atoms: C9_12  and  N3_13 
REMARK    4  A    between atoms: N3_13  and  C10_14 
REMARK    5  A    between atoms: C19_25  and  C20_26 
REMARK    6  A    between atoms: C20_26  and  O3_27 
ROOT
HETATM    1  C4  UNL     1      25.948   4.890  49.292  1.00  0.00     0.160 C 
HETATM    2  O1  UNL     1      26.568   3.930  50.107  1.00  0.00    -0.340 OA
HETATM    3  C5  UNL     1      25.855   3.042  50.869  1.00  0.00     0.105 A 
HETATM    4  C6  UNL     1      26.346   1.852  51.365  1.00  0.00     0.072 A 
HETATM    5  C7  UNL     1      25.521   1.045  52.122  1.00  0.00     0.075 A 
HETATM    6  N1  UNL     1      25.989  -0.114  52.608  1.00  0.00    -0.241 NA
HETATM    7  C8  UNL     1      25.141  -0.875  53.346  1.00  0.00     0.236 A 
HETATM    8  N2  UNL     1      23.877  -0.478  53.581  1.00  0.00    -0.224 NA
HETATM    9  C9  UNL     1      23.379   0.684  53.104  1.00  0.00     0.142 A 
HETATM   10  C16 UNL     1      24.219   1.478  52.348  1.00  0.00     0.042 A 
HETATM   11  C17 UNL     1      23.690   2.659  51.872  1.00  0.00     0.057 A 
HETATM   12  C18 UNL     1      24.559   3.448  51.110  1.00  0.00     0.103 A 
HETATM   13  O2  UNL     1      24.036   4.638  50.626  1.00  0.00    -0.338 OA
HETATM   14  C19 UNL     1      24.885   5.642  50.051  1.00  0.00     0.182 C 
ENDROOT
BRANCH   9  15
HETATM   15  N3  UNL     1      22.027   0.983  53.426  1.00  0.00    -0.340 N 
HETATM   16  H11 UNL     1      22.064   1.637  54.239  1.00  0.00     0.167 HD
BRANCH  15  17
HETATM   17  C10 UNL     1      20.814   0.540  52.830  1.00  0.00     0.035 A 
HETATM   18  C11 UNL     1      20.441   1.074  51.607  1.00  0.00     0.029 A 
HETATM   19  C12 UNL     1      19.246   0.587  51.097  1.00  0.00     0.004 A 
HETATM   20  C13 UNL     1      18.468  -0.357  51.740  1.00  0.00     0.024 A 
HETATM   21  C14 UNL     1      18.898  -0.848  52.957  1.00  0.00     0.036 A 
HETATM   22 CL1  UNL     1      17.890  -2.039  53.739  1.00  0.00    -0.084 Cl
HETATM   23  C15 UNL     1      20.078  -0.404  53.517  1.00  0.00     0.053 A 
ENDBRANCH  15  17
ENDBRANCH   9  15
BRANCH  14  24
HETATM   24  C20 UNL     1      24.007   6.434  49.106  1.00  0.00     0.202 C 
BRANCH  24  25
HETATM   25  O3  UNL     1      22.908   5.623  48.798  1.00  0.00    -0.393 OA
HETATM   26  C21 UNL     1      22.681   5.623  47.414  1.00  0.00     0.201 C 
ENDBRANCH  24  25
ENDBRANCH  14  24
BRANCH   1  27
HETATM   27  C3  UNL     1      26.970   5.805  48.661  1.00  0.00     0.035 C 
BRANCH  27  28
HETATM   28  C2  UNL     1      28.281   5.110  48.433  1.00  0.00    -0.002 C 
HETATM   29  C1  UNL     1      29.326   6.081  47.997  1.00  0.00     0.005 C 
ENDBRANCH  27  28
ENDBRANCH   1  27
TORSDOF 6
ENDMDL
MODEL 5
REMARK VINA RESULT:      -8.1      2.574      4.431
REMARK  6 active torsions:
REMARK  status: ('A' for Active; 'I' for Inactive)
REMARK    1  A    between atoms: C2_2  and  C3_3 
REMARK    2  A    between atoms: C3_3  and  C4_4 
REMARK    3  A    between atoms: C9_12  and  N3_13 
REMARK    4  A    between atoms: N3_13  and  C10_14 
REMARK    5  A    between atoms: C19_25  and  C20_26 
REMARK    6  A    between atoms: C20_26  and  O3_27 
ROOT
HETATM    1  C4  UNL     1      19.339   3.595  51.595  1.00  0.00     0.160 C 
HETATM    2  O1  UNL     1      19.313   2.418  52.359  1.00  0.00    -0.340 OA
HETATM    3  C5  UNL     1      20.452   1.736  52.699  1.00  0.00     0.105 A 
HETATM    4  C6  UNL     1      20.555   0.838  53.740  1.00  0.00     0.072 A 
HETATM    5  C7  UNL     1      21.765   0.216  53.977  1.00  0.00     0.075 A 
HETATM    6  N1  UNL     1      21.875  -0.658  54.988  1.00  0.00    -0.241 NA
HETATM    7  C8  UNL     1      23.085  -1.245  55.183  1.00  0.00     0.236 A 
HETATM    8  N2  UNL     1      24.132  -0.957  54.389  1.00  0.00    -0.224 NA
HETATM    9  C9  UNL     1      24.049  -0.080  53.364  1.00  0.00     0.142 A 
HETATM   10  C16 UNL     1      22.832   0.532  53.142  1.00  0.00     0.042 A 
HETATM   11  C17 UNL     1      22.770   1.423  52.092  1.00  0.00     0.057 A 
HETATM   12  C18 UNL     1      21.526   2.030  51.886  1.00  0.00     0.103 A 
HETATM   13  O2  UNL     1      21.454   2.928  50.831  1.00  0.00    -0.338 OA
HETATM   14  C19 UNL     1      20.190   3.423  50.364  1.00  0.00     0.182 C 
ENDROOT
BRANCH   9  15
HETATM   15  N3  UNL     1      25.232   0.132  52.604  1.00  0.00    -0.340 N 
HETATM   16  H11 UNL     1      24.983  -0.099  51.616  1.00  0.00     0.167 HD
BRANCH  15  17
HETATM   17  C10 UNL     1      26.525   0.565  53.006  1.00  0.00     0.035 A 
HETATM   18  C11 UNL     1      26.740   1.920  53.204  1.00  0.00     0.029 A 
HETATM   19  C12 UNL     1      28.028   2.257  53.595  1.00  0.00     0.004 A 
HETATM   20  C13 UNL     1      29.037   1.330  53.780  1.00  0.00     0.024 A 
HETATM   21  C14 UNL     1      28.756  -0.004  53.566  1.00  0.00     0.036 A 
HETATM   22 CL1  UNL     1      30.055  -1.144  53.810  1.00  0.00    -0.084 Cl
HETATM   23  C15 UNL     1      27.494  -0.403  53.176  1.00  0.00     0.053 A 
ENDBRANCH  15  17
ENDBRANCH   9  15
BRANCH  14  24
HETATM   24  C20 UNL     1      20.483   4.761  49.720  1.00  0.00     0.202 C 
BRANCH  24  25
HETATM   25  O3  UNL     1      21.730   5.179  50.201  1.00  0.00    -0.393 OA
HETATM   26  C21 UNL     1      21.619   6.446  50.794  1.00  0.00     0.201 C 
ENDBRANCH  24  25
ENDBRANCH  14  24
BRANCH   1  27
HETATM   27  C3  UNL     1      17.940   4.064  51.275  1.00  0.00     0.035 C 
BRANCH  27  28
HETATM   28  C2  UNL     1      16.910   3.023  51.602  1.00  0.00    -0.002 C 
HETATM   29  C1  UNL     1      15.613   3.659  51.975  1.00  0.00     0.005 C 
ENDBRANCH  27  28
ENDBRANCH   1  27
TORSDOF 6
ENDMDL
MODEL 6
REMARK VINA RESULT:      -7.9      3.774      6.033
REMARK  6 active torsions:
REMARK  status: ('A' for Active; 'I' for Inactive)
REMARK    1  A    between atoms: C2_2  and  C3_3 
REMARK    2  A    between atoms: C3_3  and  C4_4 
REMARK    3  A    between atoms: C9_12  and  N3_13 
REMARK    4  A    between atoms: N3_13  and  C10_14 
REMARK    5  A    between atoms: C19_25  and  C20_26 
REMARK    6  A    between atoms: C20_26  and  O3_27 
ROOT
HETATM    1  C4  UNL     1      24.409   0.484  52.695  1.00  0.00     0.160 C 
HETATM    2  O1  UNL     1      23.361   0.895  51.857  1.00  0.00    -0.340 OA
HETATM    3  C5  UNL     1      23.469   1.973  51.019  1.00  0.00     0.105 A 
HETATM    4  C6  UNL     1      22.677   2.199  49.913  1.00  0.00     0.072 A 
HETATM    5  C7  UNL     1      22.889   3.329  49.150  1.00  0.00     0.075 A 
HETATM    6  N1  UNL     1      22.124   3.557  48.072  1.00  0.00    -0.241 NA
HETATM    7  C8  UNL     1      22.370   4.682  47.352  1.00  0.00     0.236 A 
HETATM    8  N2  UNL     1      23.347   5.535  47.709  1.00  0.00    -0.224 NA
HETATM    9  C9  UNL     1      24.133   5.330  48.789  1.00  0.00     0.142 A 
HETATM   10  C16 UNL     1      23.906   4.195  49.541  1.00  0.00     0.042 A 
HETATM   11  C17 UNL     1      24.719   4.007  50.638  1.00  0.00     0.057 A 
HETATM   12  C18 UNL     1      24.470   2.849  51.384  1.00  0.00     0.103 A 
HETATM   13  O2  UNL     1      25.283   2.650  52.490  1.00  0.00    -0.338 OA
HETATM   14  C19 UNL     1      24.973   1.648  53.469  1.00  0.00     0.182 C 
ENDROOT
BRANCH   9  15
HETATM   15  N3  UNL     1      25.128   6.311  49.054  1.00  0.00    -0.340 N 
HETATM   16  H11 UNL     1      24.668   7.031  49.654  1.00  0.00     0.167 HD
BRANCH  15  17
HETATM   17  C10 UNL     1      26.486   6.387  48.639  1.00  0.00     0.035 A 
HETATM   18  C11 UNL     1      27.259   5.238  48.685  1.00  0.00     0.029 A 
HETATM   19  C12 UNL     1      28.571   5.399  48.262  1.00  0.00     0.004 A 
HETATM   20  C13 UNL     1      29.091   6.603  47.826  1.00  0.00     0.024 A 
HETATM   21  C14 UNL     1      28.266   7.710  47.804  1.00  0.00     0.036 A 
HETATM   22 CL1  UNL     1      28.957   9.212  47.246  1.00  0.00    -0.084 Cl
HETATM   23  C15 UNL     1      26.951   7.614  48.212  1.00  0.00     0.053 A 
ENDBRANCH  15  17
ENDBRANCH   9  15
BRANCH  14  24
HETATM   24  C20 UNL     1      26.291   1.278  54.115  1.00  0.00     0.202 C 
BRANCH  24  25
HETATM   25  O3  UNL     1      27.128   2.394  53.994  1.00  0.00    -0.393 OA
HETATM   26  C21 UNL     1      28.453   1.983  53.787  1.00  0.00     0.201 C 
ENDBRANCH  24  25
ENDBRANCH  14  24
BRANCH   1  27
HETATM   27  C3  UNL     1      23.974  -0.653  53.587  1.00  0.00     0.035 C 
BRANCH  27  28
HETATM   28  C2  UNL     1      22.489  -0.866  53.543  1.00  0.00    -0.002 C 
HETATM   29  C1  UNL     1      21.919  -0.913  54.921  1.00  0.00     0.005 C 
ENDBRANCH  27  28
ENDBRANCH   1  27
TORSDOF 6
ENDMDL
MODEL 7
REMARK VINA RESULT:      -7.9      3.844      6.203
REMARK  6 active torsions:
REMARK  status: ('A' for Active; 'I' for Inactive)
REMARK    1  A    between atoms: C2_2  and  C3_3 
REMARK    2  A    between atoms: C3_3  and  C4_4 
REMARK    3  A    between atoms: C9_12  and  N3_13 
REMARK    4  A    between atoms: N3_13  and  C10_14 
REMARK    5  A    between atoms: C19_25  and  C20_26 
REMARK    6  A    between atoms: C20_26  and  O3_27 
ROOT
HETATM    1  C4  UNL     1      24.852   0.375  52.730  1.00  0.00     0.160 C 
HETATM    2  O1  UNL     1      24.283   1.652  52.609  1.00  0.00    -0.340 OA
HETATM    3  C5  UNL     1      24.751   2.585  51.721  1.00  0.00     0.105 A 
HETATM    4  C6  UNL     1      24.035   3.671  51.263  1.00  0.00     0.072 A 
HETATM    5  C7  UNL     1      24.625   4.539  50.367  1.00  0.00     0.075 A 
HETATM    6  N1  UNL     1      23.936   5.598  49.916  1.00  0.00    -0.241 NA
HETATM    7  C8  UNL     1      24.558   6.424  49.035  1.00  0.00     0.236 A 
HETATM    8  N2  UNL     1      25.819   6.187  48.632  1.00  0.00    -0.224 NA
HETATM    9  C9  UNL     1      26.536   5.128  49.070  1.00  0.00     0.142 A 
HETATM   10  C16 UNL     1      25.929   4.270  49.966  1.00  0.00     0.042 A 
HETATM   11  C17 UNL     1      26.679   3.198  50.400  1.00  0.00     0.057 A 
HETATM   12  C18 UNL     1      26.044   2.343  51.307  1.00  0.00     0.103 A 
HETATM   13  O2  UNL     1      26.790   1.260  51.749  1.00  0.00    -0.338 OA
HETATM   14  C19 UNL     1      26.351   0.460  52.857  1.00  0.00     0.182 C 
ENDROOT
BRANCH   9  15
HETATM   15  N3  UNL     1      27.858   4.995  48.564  1.00  0.00    -0.340 N 
HETATM   16  H11 UNL     1      28.050   3.969  48.530  1.00  0.00     0.167 HD
BRANCH  15  17
HETATM   17  C10 UNL     1      28.799   5.982  48.162  1.00  0.00     0.035 A 
HETATM   18  C11 UNL     1      28.348   7.070  47.432  1.00  0.00     0.029 A 
HETATM   19  C12 UNL     1      29.330   7.986  47.081  1.00  0.00     0.004 A 
HETATM   20  C13 UNL     1      30.662   7.846  47.421  1.00  0.00     0.024 A 
HETATM   21  C14 UNL     1      31.045   6.738  48.150  1.00  0.00     0.036 A 
HETATM   22 CL1  UNL     1      32.735   6.595  48.560  1.00  0.00    -0.084 Cl
HETATM   23  C15 UNL     1      30.116   5.791  48.530  1.00  0.00     0.053 A 
ENDBRANCH  15  17
ENDBRANCH   9  15
BRANCH  14  24
HETATM   24  C20 UNL     1      26.986  -0.900  52.661  1.00  0.00     0.202 C 
BRANCH  24  25
HETATM   25  O3  UNL     1      27.795  -1.135  53.780  1.00  0.00    -0.393 OA
HETATM   26  C21 UNL     1      29.130  -0.823  53.484  1.00  0.00     0.201 C 
ENDBRANCH  24  25
ENDBRANCH  14  24
BRANCH   1  27
HETATM   27  C3  UNL     1      24.215  -0.397  53.860  1.00  0.00     0.035 C 
BRANCH  27  28
HETATM   28  C2  UNL     1      22.818  -0.833  53.525  1.00  0.00    -0.002 C 
HETATM   29  C1  UNL     1      21.927  -0.718  54.715  1.00  0.00     0.005 C 
ENDBRANCH  27  28
ENDBRANCH   1  27
TORSDOF 6
ENDMDL
MODEL 8
REMARK VINA RESULT:      -7.8      2.793      5.177
REMARK  6 active torsions:
REMARK  status: ('A' for Active; 'I' for Inactive)
REMARK    1  A    between atoms: C2_2  and  C3_3 
REMARK    2  A    between atoms: C3_3  and  C4_4 
REMARK    3  A    between atoms: C9_12  and  N3_13 
REMARK    4  A    between atoms: N3_13  and  C10_14 
REMARK    5  A    between atoms: C19_25  and  C20_26 
REMARK    6  A    between atoms: C20_26  and  O3_27 
ROOT
HETATM    1  C4  UNL     1      18.726  -0.507  52.984  1.00  0.00     0.160 C 
HETATM    2  O1  UNL     1      19.938  -1.044  53.446  1.00  0.00    -0.340 OA
HETATM    3  C5  UNL     1      21.151  -0.482  53.149  1.00  0.00     0.105 A 
HETATM    4  C6  UNL     1      22.315  -0.691  53.859  1.00  0.00     0.072 A 
HETATM    5  C7  UNL     1      23.475  -0.063  53.453  1.00  0.00     0.075 A 
HETATM    6  N1  UNL     1      24.612  -0.260  54.137  1.00  0.00    -0.241 NA
HETATM    7  C8  UNL     1      25.728   0.379  53.701  1.00  0.00     0.236 A 
HETATM    8  N2  UNL     1      25.692   1.180  52.620  1.00  0.00    -0.224 NA
HETATM    9  C9  UNL     1      24.561   1.396  51.913  1.00  0.00     0.142 A 
HETATM   10  C16 UNL     1      23.410   0.760  52.334  1.00  0.00     0.042 A 
HETATM   11  C17 UNL     1      22.269   0.995  51.596  1.00  0.00     0.057 A 
HETATM   12  C18 UNL     1      21.116   0.339  52.041  1.00  0.00     0.103 A 
HETATM   13  O2  UNL     1      19.962   0.569  51.307  1.00  0.00    -0.338 OA
HETATM   14  C19 UNL     1      18.785  -0.228  51.504  1.00  0.00     0.182 C 
ENDROOT
BRANCH   9  15
HETATM   15  N3  UNL     1      24.662   2.266  50.792  1.00  0.00    -0.340 N 
HETATM   16  H11 UNL     1      24.719   1.646  49.953  1.00  0.00     0.167 HD
BRANCH  15  17
HETATM   17  C10 UNL     1      24.688   3.686  50.722  1.00  0.00     0.035 A 
HETATM   18  C11 UNL     1      23.831   4.406  51.538  1.00  0.00     0.029 A 
HETATM   19  C12 UNL     1      23.921   5.785  51.408  1.00  0.00     0.004 A 
HETATM   20  C13 UNL     1      24.790   6.415  50.536  1.00  0.00     0.024 A 
HETATM   21  C14 UNL     1      25.617   5.638  49.751  1.00  0.00     0.036 A 
HETATM   22 CL1  UNL     1      26.700   6.468  48.664  1.00  0.00    -0.084 Cl
HETATM   23  C15 UNL     1      25.575   4.261  49.835  1.00  0.00     0.053 A 
ENDBRANCH  15  17
ENDBRANCH   9  15
BRANCH  14  24
HETATM   24  C20 UNL     1      17.622   0.638  51.072  1.00  0.00     0.202 C 
BRANCH  24  25
HETATM   25  O3  UNL     1      17.830   1.905  51.630  1.00  0.00    -0.393 OA
HETATM   26  C21 UNL     1      17.350   2.899  50.765  1.00  0.00     0.201 C 
ENDBRANCH  24  25
ENDBRANCH  14  24
BRANCH   1  27
HETATM   27  C3  UNL     1      17.563  -1.391  53.363  1.00  0.00     0.035 C 
BRANCH  27  28
HETATM   28  C2  UNL     1      18.014  -2.741  53.838  1.00  0.00    -0.002 C 
HETATM   29  C1  UNL     1      17.007  -3.787  53.496  1.00  0.00     0.005 C 
ENDBRANCH  27  28
ENDBRANCH   1  27
TORSDOF 6
ENDMDL
MODEL 9
REMARK VINA RESULT:      -7.4      3.805      8.689
REMARK  6 active torsions:
REMARK  status: ('A' for Active; 'I' for Inactive)
REMARK    1  A    between atoms: C2_2  and  C3_3 
REMARK    2  A    between atoms: C3_3  and  C4_4 
REMARK    3  A    between atoms: C9_12  and  N3_13 
REMARK    4  A    between atoms: N3_13  and  C10_14 
REMARK    5  A    between atoms: C19_25  and  C20_26 
REMARK    6  A    between atoms: C20_26  and  O3_27 
ROOT
HETATM    1  C4  UNL     1      26.409   0.531  52.787  1.00  0.00     0.160 C 
HETATM    2  O1  UNL     1      25.517  -0.024  53.718  1.00  0.00    -0.340 OA
HETATM    3  C5  UNL     1      24.163  -0.055  53.511  1.00  0.00     0.105 A 
HETATM    4  C6  UNL     1      23.284  -0.904  54.152  1.00  0.00     0.072 A 
HETATM    5  C7  UNL     1      21.939  -0.833  53.852  1.00  0.00     0.075 A 
HETATM    6  N1  UNL     1      21.076  -1.654  54.469  1.00  0.00    -0.241 NA
HETATM    7  C8  UNL     1      19.763  -1.549  54.142  1.00  0.00     0.236 A 
HETATM    8  N2  UNL     1      19.344  -0.651  53.231  1.00  0.00    -0.224 NA
HETATM    9  C9  UNL     1      20.190   0.188  52.594  1.00  0.00     0.142 A 
HETATM   10  C16 UNL     1      21.533   0.103  52.906  1.00  0.00     0.042 A 
HETATM   11  C17 UNL     1      22.377   0.969  52.245  1.00  0.00     0.057 A 
HETATM   12  C18 UNL     1      23.733   0.865  52.578  1.00  0.00     0.103 A 
HETATM   13  O2  UNL     1      24.591   1.731  51.918  1.00  0.00    -0.338 OA
HETATM   14  C19 UNL     1      25.951   1.896  52.345  1.00  0.00     0.182 C 
ENDROOT
BRANCH   9  15
HETATM   15  N3  UNL     1      19.616   1.088  51.655  1.00  0.00    -0.340 N 
HETATM   16  H11 UNL     1      20.377   1.753  51.393  1.00  0.00     0.167 HD
BRANCH  15  17
HETATM   17  C10 UNL     1      18.299   1.153  51.121  1.00  0.00     0.035 A 
HETATM   18  C11 UNL     1      17.497   2.230  51.462  1.00  0.00     0.029 A 
HETATM   19  C12 UNL     1      16.229   2.216  50.899  1.00  0.00     0.004 A 
HETATM   20  C13 UNL     1      15.776   1.215  50.060  1.00  0.00     0.024 A 
HETATM   21  C14 UNL     1      16.627   0.170  49.761  1.00  0.00     0.036 A 
HETATM   22 CL1  UNL     1      16.021  -1.075  48.698  1.00  0.00    -0.084 Cl
HETATM   23  C15 UNL     1      17.901   0.127  50.289  1.00  0.00     0.053 A 
ENDBRANCH  15  17
ENDBRANCH   9  15
BRANCH  14  24
HETATM   24  C20 UNL     1      26.716   2.352  51.121  1.00  0.00     0.202 C 
BRANCH  24  25
HETATM   25  O3  UNL     1      25.787   2.948  50.260  1.00  0.00    -0.393 OA
HETATM   26  C21 UNL     1      26.393   3.987  49.539  1.00  0.00     0.201 C 
ENDBRANCH  24  25
ENDBRANCH  14  24
BRANCH   1  27
HETATM   27  C3  UNL     1      27.819   0.534  53.323  1.00  0.00     0.035 C 
BRANCH  27  28
HETATM   28  C2  UNL     1      28.444  -0.830  53.271  1.00  0.00    -0.002 C 
HETATM   29  C1  UNL     1      29.892  -0.763  53.625  1.00  0.00     0.005 C 
ENDBRANCH  27  28
ENDBRANCH   1  27
TORSDOF 6
ENDMDL
