MODEL 1
REMARK VINA RESULT:      -7.3      0.000      0.000
REMARK  7 active torsions:
REMARK  status: ('A' for Active; 'I' for Inactive)
REMARK    1  A    between atoms: C7_7  and  N1_8 
REMARK    2  A    between atoms: N1_8  and  C8_9 
REMARK    3  A    between atoms: C12_15  and  C13_16 
REMARK    4  A    between atoms: C13_16  and  C14_17 
REMARK    5  A    between atoms: C13_16  and  N4_19 
REMARK    6  A    between atoms: N4_19  and  C16_20 
REMARK    7  A    between atoms: C16_20  and  N5_22 
ROOT
HETATM    1  C1  UNL     1      29.019  -2.580  53.219  1.00  0.00     0.017 C 
HETATM    2  C2  UNL     1      28.779  -1.400  53.327  1.00  0.00    -0.080 C 
HETATM    3  C3  UNL     1      28.488  -0.004  53.480  1.00  0.00     0.021 A 
HETATM    4  C4  UNL     1      29.322   1.044  53.415  1.00  0.00     0.018 A 
HETATM    5  C5  UNL     1      28.549   2.279  53.637  1.00  0.00    -0.000 A 
HETATM    6  C6  UNL     1      27.268   1.986  53.833  1.00  0.00     0.004 A 
HETATM    7  C7  UNL     1      27.121   0.500  53.749  1.00  0.00     0.148 A 
ENDROOT
BRANCH   7   8
HETATM    8  N1  UNL     1      26.228   0.244  52.611  1.00  0.00    -0.362 N 
HETATM    9  H6  UNL     1      26.562   0.017  51.674  1.00  0.00     0.162 HD
BRANCH   8  10
HETATM   10  C8  UNL     1      24.826   0.316  52.833  1.00  0.00     0.133 A 
HETATM   11  N2  UNL     1      24.198  -0.529  53.577  1.00  0.00    -0.225 NA
HETATM   12  C9  UNL     1      22.780  -0.379  53.745  1.00  0.00     0.229 A 
HETATM   13  N3  UNL     1      22.053   0.542  53.209  1.00  0.00    -0.278 NA
HETATM   14  C10 UNL     1      22.565   1.585  52.343  1.00  0.00     0.192 A 
HETATM   15  C11 UNL     1      24.031   1.371  52.213  1.00  0.00     0.005 A 
HETATM   16  C12 UNL     1      24.593   2.292  51.426  1.00  0.00     0.010 C 
BRANCH  16  17
HETATM   17  C13 UNL     1      23.917   3.435  50.718  1.00  0.00     0.101 C 
BRANCH  17  18
HETATM   18  C14 UNL     1      23.985   3.159  49.253  1.00  0.00     0.024 C 
HETATM   19  C15 UNL     1      22.661   2.829  48.634  1.00  0.00     0.007 C 
ENDBRANCH  17  18
BRANCH  17  20
HETATM   20  N4  UNL     1      24.512   4.641  51.166  1.00  0.00    -0.387 N 
HETATM   21  H17 UNL     1      25.120   5.139  50.512  1.00  0.00     0.155 HD
BRANCH  20  22
HETATM   22  C16 UNL     1      23.764   5.423  52.094  1.00  0.00     0.308 C 
HETATM   23  C17 UNL     1      22.316   5.456  51.587  1.00  0.00     0.065 C 
BRANCH  22  24
HETATM   24  N5  UNL     1      24.236   6.809  52.008  1.00  0.00     0.100 N 
HETATM   25  H22 UNL     1      23.547   7.324  51.405  1.00  0.00     0.315 HD
HETATM   26  H23 UNL     1      25.178   6.818  51.531  1.00  0.00     0.315 HD
ENDBRANCH  22  24
ENDBRANCH  20  22
ENDBRANCH  17  20
ENDBRANCH  16  17
ENDBRANCH   8  10
ENDBRANCH   7   8
TORSDOF 7
ENDMDL
MODEL 2
REMARK VINA RESULT:      -7.3      2.003      3.644
REMARK  7 active torsions:
REMARK  status: ('A' for Active; 'I' for Inactive)
REMARK    1  A    between atoms: C7_7  and  N1_8 
REMARK    2  A    between atoms: N1_8  and  C8_9 
REMARK    3  A    between atoms: C12_15  and  C13_16 
REMARK    4  A    between atoms: C13_16  and  C14_17 
REMARK    5  A    between atoms: C13_16  and  N4_19 
REMARK    6  A    between atoms: N4_19  and  C16_20 
REMARK    7  A    between atoms: C16_20  and  N5_22 
ROOT
HETATM    1  C1  UNL     1      26.800   0.170  51.978  1.00  0.00     0.017 C 
HETATM    2  C2  UNL     1      25.842  -0.102  52.663  1.00  0.00    -0.080 C 
HETATM    3  C3  UNL     1      24.701  -0.445  53.461  1.00  0.00     0.021 A 
HETATM    4  C4  UNL     1      24.652  -0.825  54.747  1.00  0.00     0.018 A 
HETATM    5  C5  UNL     1      23.247  -1.068  55.117  1.00  0.00    -0.000 A 
HETATM    6  C6  UNL     1      22.455  -0.840  54.074  1.00  0.00     0.004 A 
HETATM    7  C7  UNL     1      23.319  -0.423  52.927  1.00  0.00     0.148 A 
ENDROOT
BRANCH   7   8
HETATM    8  N1  UNL     1      22.906   0.945  52.584  1.00  0.00    -0.362 N 
HETATM    9  H6  UNL     1      22.926   1.721  53.246  1.00  0.00     0.162 HD
BRANCH   8  10
HETATM   10  C8  UNL     1      22.455   1.194  51.259  1.00  0.00     0.133 A 
HETATM   11  N2  UNL     1      21.449   0.574  50.743  1.00  0.00    -0.225 NA
HETATM   12  C9  UNL     1      21.062   0.891  49.396  1.00  0.00     0.229 A 
HETATM   13  N3  UNL     1      21.639   1.756  48.632  1.00  0.00    -0.278 NA
HETATM   14  C10 UNL     1      22.783   2.555  49.023  1.00  0.00     0.192 A 
HETATM   15  C11 UNL     1      23.129   2.180  50.420  1.00  0.00     0.005 A 
HETATM   16  C12 UNL     1      24.179   2.870  50.868  1.00  0.00     0.010 C 
BRANCH  16  17
HETATM   17  C13 UNL     1      24.977   3.914  50.133  1.00  0.00     0.101 C 
BRANCH  17  18
HETATM   18  C14 UNL     1      26.252   3.275  49.692  1.00  0.00     0.024 C 
HETATM   19  C15 UNL     1      27.209   4.219  49.030  1.00  0.00     0.007 C 
ENDBRANCH  17  18
BRANCH  17  20
HETATM   20  N4  UNL     1      25.093   5.049  50.973  1.00  0.00    -0.387 N 
HETATM   21  H17 UNL     1      25.970   5.573  50.940  1.00  0.00     0.155 HD
BRANCH  20  22
HETATM   22  C16 UNL     1      23.898   5.782  51.235  1.00  0.00     0.308 C 
HETATM   23  C17 UNL     1      23.445   6.390  49.902  1.00  0.00     0.065 C 
BRANCH  22  24
HETATM   24  N5  UNL     1      24.241   6.926  52.085  1.00  0.00     0.100 N 
HETATM   25  H22 UNL     1      23.455   7.037  52.773  1.00  0.00     0.315 HD
HETATM   26  H23 UNL     1      24.292   7.793  51.485  1.00  0.00     0.315 HD
ENDBRANCH  22  24
ENDBRANCH  20  22
ENDBRANCH  17  20
ENDBRANCH  16  17
ENDBRANCH   8  10
ENDBRANCH   7   8
TORSDOF 7
ENDMDL
MODEL 3
REMARK VINA RESULT:      -6.8      1.935      5.006
REMARK  7 active torsions:
REMARK  status: ('A' for Active; 'I' for Inactive)
REMARK    1  A    between atoms: C7_7  and  N1_8 
REMARK    2  A    between atoms: N1_8  and  C8_9 
REMARK    3  A    between atoms: C12_15  and  C13_16 
REMARK    4  A    between atoms: C13_16  and  C14_17 
REMARK    5  A    between atoms: C13_16  and  N4_19 
REMARK    6  A    between atoms: N4_19  and  C16_20 
REMARK    7  A    between atoms: C16_20  and  N5_22 
ROOT
HETATM    1  C1  UNL     1      21.482   0.911  50.727  1.00  0.00     0.017 C 
HETATM    2  C2  UNL     1      21.574   0.291  51.761  1.00  0.00    -0.080 C 
HETATM    3  C3  UNL     1      21.680  -0.422  53.000  1.00  0.00     0.021 A 
HETATM    4  C4  UNL     1      20.847  -1.332  53.526  1.00  0.00     0.018 A 
HETATM    5  C5  UNL     1      21.390  -1.780  54.821  1.00  0.00    -0.000 A 
HETATM    6  C6  UNL     1      22.533  -1.153  55.077  1.00  0.00     0.004 A 
HETATM    7  C7  UNL     1      22.815  -0.231  53.934  1.00  0.00     0.148 A 
ENDROOT
BRANCH   7   8
HETATM    8  N1  UNL     1      24.075  -0.696  53.339  1.00  0.00    -0.362 N 
HETATM    9  H6  UNL     1      24.134  -1.479  52.687  1.00  0.00     0.162 HD
BRANCH   8  10
HETATM   10  C8  UNL     1      25.272  -0.017  53.693  1.00  0.00     0.133 A 
HETATM   11  N2  UNL     1      26.222  -0.586  54.355  1.00  0.00    -0.225 NA
HETATM   12  C9  UNL     1      27.397   0.178  54.669  1.00  0.00     0.229 A 
HETATM   13  N3  UNL     1      27.600   1.411  54.346  1.00  0.00    -0.278 NA
HETATM   14  C10 UNL     1      26.659   2.226  53.604  1.00  0.00     0.192 A 
HETATM   15  C11 UNL     1      25.473   1.378  53.313  1.00  0.00     0.005 A 
HETATM   16  C12 UNL     1      24.546   2.050  52.626  1.00  0.00     0.010 C 
BRANCH  16  17
HETATM   17  C13 UNL     1      24.601   3.481  52.162  1.00  0.00     0.101 C 
BRANCH  17  18
HETATM   18  C14 UNL     1      23.426   4.189  52.750  1.00  0.00     0.024 C 
HETATM   19  C15 UNL     1      22.534   4.835  51.734  1.00  0.00     0.007 C 
ENDBRANCH  17  18
BRANCH  17  20
HETATM   20  N4  UNL     1      24.699   3.479  50.748  1.00  0.00    -0.387 N 
HETATM   21  H17 UNL     1      23.828   3.498  50.214  1.00  0.00     0.155 HD
BRANCH  20  22
HETATM   22  C16 UNL     1      25.834   4.131  50.180  1.00  0.00     0.308 C 
HETATM   23  C17 UNL     1      25.304   5.111  49.124  1.00  0.00     0.065 C 
BRANCH  22  24
HETATM   24  N5  UNL     1      26.605   3.134  49.430  1.00  0.00     0.100 N 
HETATM   25  H22 UNL     1      26.954   3.613  48.563  1.00  0.00     0.315 HD
HETATM   26  H23 UNL     1      25.960   2.347  49.148  1.00  0.00     0.315 HD
ENDBRANCH  22  24
ENDBRANCH  20  22
ENDBRANCH  17  20
ENDBRANCH  16  17
ENDBRANCH   8  10
ENDBRANCH   7   8
TORSDOF 7
ENDMDL
MODEL 4
REMARK VINA RESULT:      -6.8      1.565      2.100
REMARK  7 active torsions:
REMARK  status: ('A' for Active; 'I' for Inactive)
REMARK    1  A    between atoms: C7_7  and  N1_8 
REMARK    2  A    between atoms: N1_8  and  C8_9 
REMARK    3  A    between atoms: C12_15  and  C13_16 
REMARK    4  A    between atoms: C13_16  and  C14_17 
REMARK    5  A    between atoms: C13_16  and  N4_19 
REMARK    6  A    between atoms: N4_19  and  C16_20 
REMARK    7  A    between atoms: C16_20  and  N5_22 
ROOT
HETATM    1  C1  UNL     1      28.947  -2.466  53.168  1.00  0.00     0.017 C 
HETATM    2  C2  UNL     1      28.638  -1.305  53.299  1.00  0.00    -0.080 C 
HETATM    3  C3  UNL     1      28.274   0.070  53.479  1.00  0.00     0.021 A 
HETATM    4  C4  UNL     1      28.949   1.176  53.132  1.00  0.00     0.018 A 
HETATM    5  C5  UNL     1      28.160   2.356  53.528  1.00  0.00    -0.000 A 
HETATM    6  C6  UNL     1      27.026   1.975  54.104  1.00  0.00     0.004 A 
HETATM    7  C7  UNL     1      27.003   0.480  54.122  1.00  0.00     0.148 A 
ENDROOT
BRANCH   7   8
HETATM    8  N1  UNL     1      25.845   0.082  53.310  1.00  0.00    -0.362 N 
HETATM    9  H6  UNL     1      25.832   0.125  52.290  1.00  0.00     0.162 HD
BRANCH   8  10
HETATM   10  C8  UNL     1      24.686  -0.388  53.984  1.00  0.00     0.133 A 
HETATM   11  N2  UNL     1      24.749  -1.181  54.999  1.00  0.00    -0.225 NA
HETATM   12  C9  UNL     1      23.525  -1.605  55.619  1.00  0.00     0.229 A 
HETATM   13  N3  UNL     1      22.337  -1.263  55.249  1.00  0.00    -0.278 NA
HETATM   14  C10 UNL     1      22.052  -0.382  54.134  1.00  0.00     0.192 A 
HETATM   15  C11 UNL     1      23.356   0.018  53.542  1.00  0.00     0.005 A 
HETATM   16  C12 UNL     1      23.191   0.836  52.500  1.00  0.00     0.010 C 
BRANCH  16  17
HETATM   17  C13 UNL     1      21.896   1.344  51.924  1.00  0.00     0.101 C 
BRANCH  17  18
HETATM   18  C14 UNL     1      21.722   0.711  50.583  1.00  0.00     0.024 C 
HETATM   19  C15 UNL     1      20.534   1.215  49.822  1.00  0.00     0.007 C 
ENDBRANCH  17  18
BRANCH  17  20
HETATM   20  N4  UNL     1      21.928   2.761  51.958  1.00  0.00    -0.387 N 
HETATM   21  H17 UNL     1      21.255   3.234  52.565  1.00  0.00     0.155 HD
BRANCH  20  22
HETATM   22  C16 UNL     1      23.199   3.382  51.776  1.00  0.00     0.308 C 
HETATM   23  C17 UNL     1      23.263   4.565  52.751  1.00  0.00     0.065 C 
BRANCH  22  24
HETATM   24  N5  UNL     1      23.226   3.982  50.438  1.00  0.00     0.100 N 
HETATM   25  H22 UNL     1      24.207   3.874  50.079  1.00  0.00     0.315 HD
HETATM   26  H23 UNL     1      23.006   5.011  50.523  1.00  0.00     0.315 HD
ENDBRANCH  22  24
ENDBRANCH  20  22
ENDBRANCH  17  20
ENDBRANCH  16  17
ENDBRANCH   8  10
ENDBRANCH   7   8
TORSDOF 7
ENDMDL
MODEL 5
REMARK VINA RESULT:      -6.8      2.814      5.111
REMARK  7 active torsions:
REMARK  status: ('A' for Active; 'I' for Inactive)
REMARK    1  A    between atoms: C7_7  and  N1_8 
REMARK    2  A    between atoms: N1_8  and  C8_9 
REMARK    3  A    between atoms: C12_15  and  C13_16 
REMARK    4  A    between atoms: C13_16  and  C14_17 
REMARK    5  A    between atoms: C13_16  and  N4_19 
REMARK    6  A    between atoms: N4_19  and  C16_20 
REMARK    7  A    between atoms: C16_20  and  N5_22 
ROOT
HETATM    1  C1  UNL     1      26.868   2.130  51.562  1.00  0.00     0.017 C 
HETATM    2  C2  UNL     1      25.743   1.744  51.776  1.00  0.00    -0.080 C 
HETATM    3  C3  UNL     1      24.410   1.272  52.009  1.00  0.00     0.021 A 
HETATM    4  C4  UNL     1      23.958   0.456  52.973  1.00  0.00     0.018 A 
HETATM    5  C5  UNL     1      22.508   0.265  52.792  1.00  0.00    -0.000 A 
HETATM    6  C6  UNL     1      22.086   0.954  51.737  1.00  0.00     0.004 A 
HETATM    7  C7  UNL     1      23.267   1.656  51.147  1.00  0.00     0.148 A 
ENDROOT
BRANCH   7   8
HETATM    8  N1  UNL     1      22.981   3.093  51.256  1.00  0.00    -0.362 N 
HETATM    9  H6  UNL     1      23.021   3.610  52.135  1.00  0.00     0.162 HD
BRANCH   8  10
HETATM   10  C8  UNL     1      22.632   3.796  50.071  1.00  0.00     0.133 A 
HETATM   11  N2  UNL     1      21.456   3.727  49.546  1.00  0.00    -0.225 NA
HETATM   12  C9  UNL     1      21.191   4.472  48.347  1.00  0.00     0.229 A 
HETATM   13  N3  UNL     1      22.037   5.222  47.726  1.00  0.00    -0.278 NA
HETATM   14  C10 UNL     1      23.407   5.433  48.152  1.00  0.00     0.192 A 
HETATM   15  C11 UNL     1      23.612   4.638  49.392  1.00  0.00     0.005 A 
HETATM   16  C12 UNL     1      24.855   4.771  49.860  1.00  0.00     0.010 C 
BRANCH  16  17
HETATM   17  C13 UNL     1      25.973   5.595  49.281  1.00  0.00     0.101 C 
BRANCH  17  18
HETATM   18  C14 UNL     1      27.085   4.661  48.934  1.00  0.00     0.024 C 
HETATM   19  C15 UNL     1      28.307   5.342  48.396  1.00  0.00     0.007 C 
ENDBRANCH  17  18
BRANCH  17  20
HETATM   20  N4  UNL     1      26.277   6.630  50.200  1.00  0.00    -0.387 N 
HETATM   21  H17 UNL     1      27.174   6.581  50.687  1.00  0.00     0.155 HD
BRANCH  20  22
HETATM   22  C16 UNL     1      25.757   7.925  49.907  1.00  0.00     0.308 C 
HETATM   23  C17 UNL     1      26.883   8.931  50.180  1.00  0.00     0.065 C 
BRANCH  22  24
HETATM   24  N5  UNL     1      24.716   8.233  50.892  1.00  0.00     0.100 N 
HETATM   25  H22 UNL     1      25.114   8.965  51.532  1.00  0.00     0.315 HD
HETATM   26  H23 UNL     1      24.512   7.364  51.455  1.00  0.00     0.315 HD
ENDBRANCH  22  24
ENDBRANCH  20  22
ENDBRANCH  17  20
ENDBRANCH  16  17
ENDBRANCH   8  10
ENDBRANCH   7   8
TORSDOF 7
ENDMDL
MODEL 6
REMARK VINA RESULT:      -6.6      2.150      3.665
REMARK  7 active torsions:
REMARK  status: ('A' for Active; 'I' for Inactive)
REMARK    1  A    between atoms: C7_7  and  N1_8 
REMARK    2  A    between atoms: N1_8  and  C8_9 
REMARK    3  A    between atoms: C12_15  and  C13_16 
REMARK    4  A    between atoms: C13_16  and  C14_17 
REMARK    5  A    between atoms: C13_16  and  N4_19 
REMARK    6  A    between atoms: N4_19  and  C16_20 
REMARK    7  A    between atoms: C16_20  and  N5_22 
ROOT
HETATM    1  C1  UNL     1      22.478  -1.238  54.826  1.00  0.00     0.017 C 
HETATM    2  C2  UNL     1      23.415  -0.851  54.166  1.00  0.00    -0.080 C 
HETATM    3  C3  UNL     1      24.529  -0.375  53.400  1.00  0.00     0.021 A 
HETATM    4  C4  UNL     1      25.694  -0.985  53.134  1.00  0.00     0.018 A 
HETATM    5  C5  UNL     1      26.519  -0.089  52.305  1.00  0.00    -0.000 A 
HETATM    6  C6  UNL     1      25.868   1.046  52.071  1.00  0.00     0.004 A 
HETATM    7  C7  UNL     1      24.539   0.958  52.753  1.00  0.00     0.148 A 
ENDROOT
BRANCH   7   8
HETATM    8  N1  UNL     1      23.530   1.038  51.688  1.00  0.00    -0.362 N 
HETATM    9  H6  UNL     1      23.566   0.476  50.837  1.00  0.00     0.162 HD
BRANCH   8  10
HETATM   10  C8  UNL     1      22.450   1.946  51.857  1.00  0.00     0.133 A 
HETATM   11  N2  UNL     1      21.361   1.621  52.467  1.00  0.00    -0.225 NA
HETATM   12  C9  UNL     1      20.322   2.604  52.591  1.00  0.00     0.229 A 
HETATM   13  N3  UNL     1      20.372   3.812  52.140  1.00  0.00    -0.278 NA
HETATM   14  C10 UNL     1      21.504   4.371  51.429  1.00  0.00     0.192 A 
HETATM   15  C11 UNL     1      22.538   3.307  51.336  1.00  0.00     0.005 A 
HETATM   16  C12 UNL     1      23.626   3.734  50.691  1.00  0.00     0.010 C 
BRANCH  16  17
HETATM   17  C13 UNL     1      23.869   5.096  50.099  1.00  0.00     0.101 C 
BRANCH  17  18
HETATM   18  C14 UNL     1      23.444   5.046  48.669  1.00  0.00     0.024 C 
HETATM   19  C15 UNL     1      22.576   6.193  48.252  1.00  0.00     0.007 C 
ENDBRANCH  17  18
BRANCH  17  20
HETATM   20  N4  UNL     1      25.219   5.447  50.349  1.00  0.00    -0.387 N 
HETATM   21  H17 UNL     1      25.611   5.199  51.260  1.00  0.00     0.155 HD
BRANCH  20  22
HETATM   22  C16 UNL     1      26.104   5.444  49.230  1.00  0.00     0.308 C 
HETATM   23  C17 UNL     1      26.908   4.139  49.299  1.00  0.00     0.065 C 
BRANCH  22  24
HETATM   24  N5  UNL     1      27.087   6.515  49.422  1.00  0.00     0.100 N 
HETATM   25  H22 UNL     1      28.031   6.094  49.234  1.00  0.00     0.315 HD
HETATM   26  H23 UNL     1      27.051   6.833  50.428  1.00  0.00     0.315 HD
ENDBRANCH  22  24
ENDBRANCH  20  22
ENDBRANCH  17  20
ENDBRANCH  16  17
ENDBRANCH   8  10
ENDBRANCH   7   8
TORSDOF 7
ENDMDL
MODEL 7
REMARK VINA RESULT:      -6.5      1.872      4.023
REMARK  7 active torsions:
REMARK  status: ('A' for Active; 'I' for Inactive)
REMARK    1  A    between atoms: C7_7  and  N1_8 
REMARK    2  A    between atoms: N1_8  and  C8_9 
REMARK    3  A    between atoms: C12_15  and  C13_16 
REMARK    4  A    between atoms: C13_16  and  C14_17 
REMARK    5  A    between atoms: C13_16  and  N4_19 
REMARK    6  A    between atoms: N4_19  and  C16_20 
REMARK    7  A    between atoms: C16_20  and  N5_22 
ROOT
HETATM    1  C1  UNL     1      26.786  -2.333  52.411  1.00  0.00     0.017 C 
HETATM    2  C2  UNL     1      27.217  -1.243  52.707  1.00  0.00    -0.080 C 
HETATM    3  C3  UNL     1      27.709   0.052  53.075  1.00  0.00     0.021 A 
HETATM    4  C4  UNL     1      28.864   0.379  53.674  1.00  0.00     0.018 A 
HETATM    5  C5  UNL     1      28.914   1.842  53.842  1.00  0.00    -0.000 A 
HETATM    6  C6  UNL     1      27.810   2.395  53.353  1.00  0.00     0.004 A 
HETATM    7  C7  UNL     1      26.945   1.296  52.822  1.00  0.00     0.148 A 
ENDROOT
BRANCH   7   8
HETATM    8  N1  UNL     1      26.807   1.549  51.381  1.00  0.00    -0.362 N 
HETATM    9  H6  UNL     1      27.276   0.994  50.665  1.00  0.00     0.162 HD
BRANCH   8  10
HETATM   10  C8  UNL     1      25.975   2.625  50.968  1.00  0.00     0.133 A 
HETATM   11  N2  UNL     1      26.443   3.685  50.402  1.00  0.00    -0.225 NA
HETATM   12  C9  UNL     1      25.527   4.722  50.017  1.00  0.00     0.229 A 
HETATM   13  N3  UNL     1      24.249   4.698  50.189  1.00  0.00    -0.278 NA
HETATM   14  C10 UNL     1      23.529   3.601  50.805  1.00  0.00     0.192 A 
HETATM   15  C11 UNL     1      24.531   2.567  51.176  1.00  0.00     0.005 A 
HETATM   16  C12 UNL     1      23.955   1.511  51.755  1.00  0.00     0.010 C 
BRANCH  16  17
HETATM   17  C13 UNL     1      22.492   1.300  52.038  1.00  0.00     0.101 C 
BRANCH  17  18
HETATM   18  C14 UNL     1      22.389   0.505  53.297  1.00  0.00     0.024 C 
HETATM   19  C15 UNL     1      23.619  -0.289  53.618  1.00  0.00     0.007 C 
ENDBRANCH  17  18
BRANCH  17  20
HETATM   20  N4  UNL     1      21.898   0.737  50.881  1.00  0.00    -0.387 N 
HETATM   21  H17 UNL     1      21.998  -0.270  50.741  1.00  0.00     0.155 HD
BRANCH  20  22
HETATM   22  C16 UNL     1      20.702   1.352  50.406  1.00  0.00     0.308 C 
HETATM   23  C17 UNL     1      19.529   0.527  50.952  1.00  0.00     0.065 C 
BRANCH  22  24
HETATM   24  N5  UNL     1      20.649   1.184  48.951  1.00  0.00     0.100 N 
HETATM   25  H22 UNL     1      19.685   1.473  48.649  1.00  0.00     0.315 HD
HETATM   26  H23 UNL     1      20.785   0.163  48.721  1.00  0.00     0.315 HD
ENDBRANCH  22  24
ENDBRANCH  20  22
ENDBRANCH  17  20
ENDBRANCH  16  17
ENDBRANCH   8  10
ENDBRANCH   7   8
TORSDOF 7
ENDMDL
MODEL 8
REMARK VINA RESULT:      -6.3      3.260      5.479
REMARK  7 active torsions:
REMARK  status: ('A' for Active; 'I' for Inactive)
REMARK    1  A    between atoms: C7_7  and  N1_8 
REMARK    2  A    between atoms: N1_8  and  C8_9 
REMARK    3  A    between atoms: C12_15  and  C13_16 
REMARK    4  A    between atoms: C13_16  and  C14_17 
REMARK    5  A    between atoms: C13_16  and  N4_19 
REMARK    6  A    between atoms: N4_19  and  C16_20 
REMARK    7  A    between atoms: C16_20  and  N5_22 
ROOT
HETATM    1  C1  UNL     1      18.784   0.156  51.436  1.00  0.00     0.017 C 
HETATM    2  C2  UNL     1      19.918   0.241  51.846  1.00  0.00    -0.080 C 
HETATM    3  C3  UNL     1      21.257   0.363  52.343  1.00  0.00     0.021 A 
HETATM    4  C4  UNL     1      21.883  -0.368  53.277  1.00  0.00     0.018 A 
HETATM    5  C5  UNL     1      23.254   0.145  53.441  1.00  0.00    -0.000 A 
HETATM    6  C6  UNL     1      23.460   1.169  52.621  1.00  0.00     0.004 A 
HETATM    7  C7  UNL     1      22.199   1.396  51.849  1.00  0.00     0.148 A 
ENDROOT
BRANCH   7   8
HETATM    8  N1  UNL     1      22.540   1.170  50.438  1.00  0.00    -0.362 N 
HETATM    9  H6  UNL     1      23.057   0.353  50.108  1.00  0.00     0.162 HD
BRANCH   8  10
HETATM   10  C8  UNL     1      22.126   2.141  49.486  1.00  0.00     0.133 A 
HETATM   11  N2  UNL     1      21.010   2.053  48.848  1.00  0.00    -0.225 NA
HETATM   12  C9  UNL     1      20.673   3.082  47.904  1.00  0.00     0.229 A 
HETATM   13  N3  UNL     1      21.398   4.112  47.624  1.00  0.00    -0.278 NA
HETATM   14  C10 UNL     1      22.683   4.394  48.231  1.00  0.00     0.192 A 
HETATM   15  C11 UNL     1      22.969   3.296  49.192  1.00  0.00     0.005 A 
HETATM   16  C12 UNL     1      24.143   3.472  49.803  1.00  0.00     0.010 C 
BRANCH  16  17
HETATM   17  C13 UNL     1      25.120   4.601  49.613  1.00  0.00     0.101 C 
BRANCH  17  18
HETATM   18  C14 UNL     1      26.442   3.997  49.271  1.00  0.00     0.024 C 
HETATM   19  C15 UNL     1      26.701   2.682  49.940  1.00  0.00     0.007 C 
ENDBRANCH  17  18
BRANCH  17  20
HETATM   20  N4  UNL     1      25.075   5.419  50.769  1.00  0.00    -0.387 N 
HETATM   21  H17 UNL     1      25.749   5.224  51.512  1.00  0.00     0.155 HD
BRANCH  20  22
HETATM   22  C16 UNL     1      24.675   6.776  50.583  1.00  0.00     0.308 C 
HETATM   23  C17 UNL     1      25.937   7.568  50.216  1.00  0.00     0.065 C 
BRANCH  22  24
HETATM   24  N5  UNL     1      24.249   7.308  51.881  1.00  0.00     0.100 N 
HETATM   25  H22 UNL     1      23.866   6.497  52.428  1.00  0.00     0.315 HD
HETATM   26  H23 UNL     1      23.475   8.008  51.724  1.00  0.00     0.315 HD
ENDBRANCH  22  24
ENDBRANCH  20  22
ENDBRANCH  17  20
ENDBRANCH  16  17
ENDBRANCH   8  10
ENDBRANCH   7   8
TORSDOF 7
ENDMDL
MODEL 9
REMARK VINA RESULT:      -6.2      2.336      4.687
REMARK  7 active torsions:
REMARK  status: ('A' for Active; 'I' for Inactive)
REMARK    1  A    between atoms: C7_7  and  N1_8 
REMARK    2  A    between atoms: N1_8  and  C8_9 
REMARK    3  A    between atoms: C12_15  and  C13_16 
REMARK    4  A    between atoms: C13_16  and  C14_17 
REMARK    5  A    between atoms: C13_16  and  N4_19 
REMARK    6  A    between atoms: N4_19  and  C16_20 
REMARK    7  A    between atoms: C16_20  and  N5_22 
ROOT
HETATM    1  C1  UNL     1      23.105   0.421  52.990  1.00  0.00     0.017 C 
HETATM    2  C2  UNL     1      24.283   0.675  53.088  1.00  0.00    -0.080 C 
HETATM    3  C3  UNL     1      25.675   0.996  53.217  1.00  0.00     0.021 A 
HETATM    4  C4  UNL     1      26.627   0.364  53.919  1.00  0.00     0.018 A 
HETATM    5  C5  UNL     1      27.903   1.077  53.735  1.00  0.00    -0.000 A 
HETATM    6  C6  UNL     1      27.730   2.124  52.935  1.00  0.00     0.004 A 
HETATM    7  C7  UNL     1      26.289   2.161  52.537  1.00  0.00     0.148 A 
ENDROOT
BRANCH   7   8
HETATM    8  N1  UNL     1      26.267   1.994  51.077  1.00  0.00    -0.362 N 
HETATM    9  H6  UNL     1      26.310   1.085  50.614  1.00  0.00     0.162 HD
BRANCH   8  10
HETATM   10  C8  UNL     1      26.182   3.162  50.272  1.00  0.00     0.133 A 
HETATM   11  N2  UNL     1      27.225   3.748  49.790  1.00  0.00    -0.225 NA
HETATM   12  C9  UNL     1      27.044   4.924  48.986  1.00  0.00     0.229 A 
HETATM   13  N3  UNL     1      25.911   5.468  48.693  1.00  0.00    -0.278 NA
HETATM   14  C10 UNL     1      24.626   4.964  49.136  1.00  0.00     0.192 A 
HETATM   15  C11 UNL     1      24.885   3.753  49.958  1.00  0.00     0.005 A 
HETATM   16  C12 UNL     1      23.750   3.217  50.413  1.00  0.00     0.010 C 
BRANCH  16  17
HETATM   17  C13 UNL     1      22.345   3.701  50.179  1.00  0.00     0.101 C 
BRANCH  17  18
HETATM   18  C14 UNL     1      21.674   3.792  51.510  1.00  0.00     0.024 C 
HETATM   19  C15 UNL     1      22.461   4.546  52.538  1.00  0.00     0.007 C 
ENDBRANCH  17  18
BRANCH  17  20
HETATM   20  N4  UNL     1      21.741   2.850  49.220  1.00  0.00    -0.387 N 
HETATM   21  H17 UNL     1      22.333   2.492  48.468  1.00  0.00     0.155 HD
BRANCH  20  22
HETATM   22  C16 UNL     1      20.681   2.013  49.678  1.00  0.00     0.308 C 
HETATM   23  C17 UNL     1      21.242   0.587  49.763  1.00  0.00     0.065 C 
BRANCH  22  24
HETATM   24  N5  UNL     1      19.655   1.963  48.632  1.00  0.00     0.100 N 
HETATM   25  H22 UNL     1      19.219   1.009  48.684  1.00  0.00     0.315 HD
HETATM   26  H23 UNL     1      20.122   2.073  47.692  1.00  0.00     0.315 HD
ENDBRANCH  22  24
ENDBRANCH  20  22
ENDBRANCH  17  20
ENDBRANCH  16  17
ENDBRANCH   8  10
ENDBRANCH   7   8
TORSDOF 7
ENDMDL
