MODEL 1
REMARK VINA RESULT:      -9.2      0.000      0.000
REMARK  3 active torsions:
REMARK  status: ('A' for Active; 'I' for Inactive)
REMARK    1  A    between atoms: N1_2  and  C2_3 
REMARK    2  A    between atoms: C14_19  and  C15_20 
REMARK    3  A    between atoms: C15_20  and  N4_21 
ROOT
HETATM    1  C2  UNL     1      24.394   2.488  50.797  1.00  0.00     0.122 C 
HETATM    2  C3  UNL     1      23.222   2.012  50.723  1.00  0.00     0.126 C 
HETATM    3  C4  UNL     1      21.990   2.347  51.255  1.00  0.00     0.028 C 
HETATM    4  C5  UNL     1      20.758   2.000  51.332  1.00  0.00     0.036 C 
HETATM    5  C6  UNL     1      21.028   0.780  50.500  1.00  0.00     0.079 C 
HETATM    6  C7  UNL     1      21.890  -0.007  51.520  1.00  0.00     0.126 C 
HETATM    7  N2  UNL     1      21.717   0.706  52.811  1.00  0.00    -0.390 N 
HETATM    8  C8  UNL     1      22.696   0.231  53.731  1.00  0.00     0.029 C 
HETATM    9  C9  UNL     1      22.104  -0.750  54.263  1.00  0.00     0.033 C 
HETATM   10  C10 UNL     1      20.820  -1.140  53.946  1.00  0.00     0.051 C 
HETATM   11  C11 UNL     1      19.642  -1.435  53.604  1.00  0.00     0.149 A 
HETATM   12  F1  UNL     1      18.406  -1.792  53.284  1.00  0.00    -0.290 F 
HETATM   13  S1  UNL     1      18.303  -0.680  52.736  1.00  0.00     0.028 SA
HETATM   14  C12 UNL     1      18.734   0.882  52.000  1.00  0.00     0.188 C 
HETATM   15  N3  UNL     1      19.490   1.803  51.523  1.00  0.00    -0.257 NA
HETATM   16  C13 UNL     1      23.815   1.117  53.573  1.00  0.00     0.055 C 
HETATM   17  C14 UNL     1      24.540   2.117  53.105  1.00  0.00     0.027 C 
HETATM   18  N5  UNL     1      24.259   3.154  52.093  1.00  0.00    -0.365 N 
HETATM   19  H9  UNL     1      21.161   1.437  53.334  1.00  0.00     0.159 HD
HETATM   20  H24 UNL     1      24.065   3.994  52.730  1.00  0.00     0.162 HD
ENDROOT
BRANCH  17  21
HETATM   21  C15 UNL     1      25.912   2.352  53.649  1.00  0.00     0.182 C 
BRANCH  21  22
HETATM   22  N4  UNL     1      26.727   1.155  53.720  1.00  0.00    -0.347 N 
HETATM   23  C16 UNL     1      26.511  -0.262  53.958  1.00  0.00     0.126 C 
HETATM   24  C17 UNL     1      27.280  -1.055  52.915  1.00  0.00     0.020 C 
HETATM   25  C18 UNL     1      28.737  -1.003  53.298  1.00  0.00     0.011 C 
HETATM   26  C19 UNL     1      29.209   0.407  53.560  1.00  0.00     0.103 C 
HETATM   27  C20 UNL     1      28.140   1.420  53.517  1.00  0.00     0.220 C 
HETATM   28  O1  UNL     1      28.566   2.585  53.279  1.00  0.00    -0.273 OA
ENDBRANCH  21  22
ENDBRANCH  17  21
BRANCH   1  29
HETATM   29  N1  UNL     1      25.659   3.089  50.942  1.00  0.00    -0.282 NA
HETATM   30  C1  UNL     1      26.502   3.278  49.990  1.00  0.00     0.145 C 
ENDBRANCH   1  29
TORSDOF 3
ENDMDL
MODEL 2
REMARK VINA RESULT:      -9.0      2.977      4.706
REMARK  3 active torsions:
REMARK  status: ('A' for Active; 'I' for Inactive)
REMARK    1  A    between atoms: N1_2  and  C2_3 
REMARK    2  A    between atoms: C14_19  and  C15_20 
REMARK    3  A    between atoms: C15_20  and  N4_21 
ROOT
HETATM    1  C2  UNL     1      21.996  -0.017  53.644  1.00  0.00     0.122 C 
HETATM    2  C3  UNL     1      21.613   0.629  52.623  1.00  0.00     0.126 C 
HETATM    3  C4  UNL     1      21.660   0.424  51.256  1.00  0.00     0.028 C 
HETATM    4  C5  UNL     1      21.380   0.936  50.115  1.00  0.00     0.036 C 
HETATM    5  C6  UNL     1      20.867   2.182  50.776  1.00  0.00     0.079 C 
HETATM    6  C7  UNL     1      22.214   2.728  51.312  1.00  0.00     0.126 C 
HETATM    7  N2  UNL     1      23.261   1.920  50.637  1.00  0.00    -0.390 N 
HETATM    8  C8  UNL     1      24.509   2.153  51.285  1.00  0.00     0.029 C 
HETATM    9  C9  UNL     1      24.954   3.150  50.649  1.00  0.00     0.033 C 
HETATM   10  C10 UNL     1      24.295   3.752  49.599  1.00  0.00     0.051 C 
HETATM   11  C11 UNL     1      23.633   4.248  48.645  1.00  0.00     0.149 A 
HETATM   12  F1  UNL     1      22.982   4.811  47.637  1.00  0.00    -0.290 F 
HETATM   13  S1  UNL     1      22.276   3.786  47.615  1.00  0.00     0.028 SA
HETATM   14  C12 UNL     1      21.504   2.262  48.110  1.00  0.00     0.188 C 
HETATM   15  N3  UNL     1      21.172   1.294  48.885  1.00  0.00    -0.257 NA
HETATM   16  C13 UNL     1      24.598   1.135  52.294  1.00  0.00     0.055 C 
HETATM   17  C14 UNL     1      24.253   0.094  53.028  1.00  0.00     0.027 C 
HETATM   18  N5  UNL     1      23.066  -0.784  53.007  1.00  0.00    -0.365 N 
HETATM   19  H9  UNL     1      23.462   1.229  49.863  1.00  0.00     0.159 HD
HETATM   20  H24 UNL     1      23.477  -1.647  52.522  1.00  0.00     0.162 HD
ENDROOT
BRANCH  17  21
HETATM   21  C15 UNL     1      25.175  -0.392  54.100  1.00  0.00     0.182 C 
BRANCH  21  22
HETATM   22  N4  UNL     1      26.563  -0.031  53.887  1.00  0.00    -0.347 N 
HETATM   23  C16 UNL     1      27.391   1.149  54.069  1.00  0.00     0.126 C 
HETATM   24  C17 UNL     1      28.686   0.736  54.750  1.00  0.00     0.020 C 
HETATM   25  C18 UNL     1      29.536   0.047  53.714  1.00  0.00     0.011 C 
HETATM   26  C19 UNL     1      28.781  -1.036  52.983  1.00  0.00     0.103 C 
HETATM   27  C20 UNL     1      27.351  -1.116  53.330  1.00  0.00     0.220 C 
HETATM   28  O1  UNL     1      26.844  -2.249  53.097  1.00  0.00    -0.273 OA
ENDBRANCH  21  22
ENDBRANCH  17  21
BRANCH   1  29
HETATM   29  N1  UNL     1      22.458  -0.806  54.715  1.00  0.00    -0.282 NA
HETATM   30  C1  UNL     1      21.959  -1.936  55.070  1.00  0.00     0.145 C 
ENDBRANCH   1  29
TORSDOF 3
ENDMDL
MODEL 3
REMARK VINA RESULT:      -8.7      3.088      4.579
REMARK  3 active torsions:
REMARK  status: ('A' for Active; 'I' for Inactive)
REMARK    1  A    between atoms: N1_2  and  C2_3 
REMARK    2  A    between atoms: C14_19  and  C15_20 
REMARK    3  A    between atoms: C15_20  and  N4_21 
ROOT
HETATM    1  C2  UNL     1      22.708   0.051  53.262  1.00  0.00     0.122 C 
HETATM    2  C3  UNL     1      22.110   0.763  52.401  1.00  0.00     0.126 C 
HETATM    3  C4  UNL     1      22.351   1.127  51.089  1.00  0.00     0.028 C 
HETATM    4  C5  UNL     1      21.918   1.825  50.104  1.00  0.00     0.036 C 
HETATM    5  C6  UNL     1      20.776   2.331  50.937  1.00  0.00     0.079 C 
HETATM    6  C7  UNL     1      21.585   3.209  51.925  1.00  0.00     0.126 C 
HETATM    7  N2  UNL     1      22.944   3.312  51.336  1.00  0.00    -0.390 N 
HETATM    8  C8  UNL     1      23.828   3.851  52.314  1.00  0.00     0.029 C 
HETATM    9  C9  UNL     1      23.715   5.094  52.117  1.00  0.00     0.033 C 
HETATM   10  C10 UNL     1      22.909   5.650  51.147  1.00  0.00     0.051 C 
HETATM   11  C11 UNL     1      22.151   6.084  50.235  1.00  0.00     0.149 A 
HETATM   12  F1  UNL     1      21.370   6.597  49.295  1.00  0.00    -0.290 F 
HETATM   13  S1  UNL     1      21.322   5.452  48.811  1.00  0.00     0.028 SA
HETATM   14  C12 UNL     1      21.452   3.685  48.649  1.00  0.00     0.188 C 
HETATM   15  N3  UNL     1      21.635   2.468  49.012  1.00  0.00    -0.257 NA
HETATM   16  C13 UNL     1      24.379   2.708  52.987  1.00  0.00     0.055 C 
HETATM   17  C14 UNL     1      24.594   1.441  53.289  1.00  0.00     0.027 C 
HETATM   18  N5  UNL     1      24.062   0.184  52.726  1.00  0.00    -0.365 N 
HETATM   19  H9  UNL     1      23.535   3.142  50.476  1.00  0.00     0.159 HD
HETATM   20  H24 UNL     1      24.902  -0.131  52.138  1.00  0.00     0.162 HD
ENDROOT
BRANCH  17  21
HETATM   21  C15 UNL     1      25.558   1.094  54.378  1.00  0.00     0.182 C 
BRANCH  21  22
HETATM   22  N4  UNL     1      26.931   0.979  53.929  1.00  0.00    -0.347 N 
HETATM   23  C16 UNL     1      28.018   1.884  53.594  1.00  0.00     0.126 C 
HETATM   24  C17 UNL     1      29.289   1.390  54.265  1.00  0.00     0.020 C 
HETATM   25  C18 UNL     1      29.771   0.195  53.484  1.00  0.00     0.011 C 
HETATM   26  C19 UNL     1      28.680  -0.826  53.268  1.00  0.00     0.103 C 
HETATM   27  C20 UNL     1      27.352  -0.399  53.742  1.00  0.00     0.220 C 
HETATM   28  O1  UNL     1      26.575  -1.364  53.985  1.00  0.00    -0.273 OA
ENDBRANCH  21  22
ENDBRANCH  17  21
BRANCH   1  29
HETATM   29  N1  UNL     1      23.446  -0.755  54.149  1.00  0.00    -0.282 NA
HETATM   30  C1  UNL     1      22.983  -1.289  55.222  1.00  0.00     0.145 C 
ENDBRANCH   1  29
TORSDOF 3
ENDMDL
MODEL 4
REMARK VINA RESULT:      -8.7      7.784     10.462
REMARK  3 active torsions:
REMARK  status: ('A' for Active; 'I' for Inactive)
REMARK    1  A    between atoms: N1_2  and  C2_3 
REMARK    2  A    between atoms: C14_19  and  C15_20 
REMARK    3  A    between atoms: C15_20  and  N4_21 
ROOT
HETATM    1  C2  UNL     1      31.275   9.799  47.518  1.00  0.00     0.122 C 
HETATM    2  C3  UNL     1      30.062   9.597  47.823  1.00  0.00     0.126 C 
HETATM    3  C4  UNL     1      29.370   9.363  48.997  1.00  0.00     0.028 C 
HETATM    4  C5  UNL     1      28.215   9.112  49.495  1.00  0.00     0.036 C 
HETATM    5  C6  UNL     1      27.605   9.093  48.123  1.00  0.00     0.079 C 
HETATM    6  C7  UNL     1      28.273   7.799  47.594  1.00  0.00     0.126 C 
HETATM    7  N2  UNL     1      28.873   7.150  48.787  1.00  0.00    -0.390 N 
HETATM    8  C8  UNL     1      29.751   6.115  48.354  1.00  0.00     0.029 C 
HETATM    9  C9  UNL     1      28.972   5.123  48.280  1.00  0.00     0.033 C 
HETATM   10  C10 UNL     1      27.631   5.170  48.591  1.00  0.00     0.051 C 
HETATM   11  C11 UNL     1      26.411   5.292  48.894  1.00  0.00     0.149 A 
HETATM   12  F1  UNL     1      25.123   5.361  49.198  1.00  0.00    -0.290 F 
HETATM   13  S1  UNL     1      25.383   6.448  49.744  1.00  0.00     0.028 SA
HETATM   14  C12 UNL     1      26.235   7.942  50.202  1.00  0.00     0.188 C 
HETATM   15  N3  UNL     1      27.136   8.854  50.169  1.00  0.00    -0.257 NA
HETATM   16  C13 UNL     1      31.038   6.743  48.243  1.00  0.00     0.055 C 
HETATM   17  C14 UNL     1      31.954   7.692  48.286  1.00  0.00     0.027 C 
HETATM   18  N5  UNL     1      31.885   9.119  48.660  1.00  0.00    -0.365 N 
HETATM   19  H9  UNL     1      28.920   7.145  49.843  1.00  0.00     0.159 HD
HETATM   20  H24 UNL     1      32.319   9.079  49.639  1.00  0.00     0.162 HD
ENDROOT
BRANCH  17  21
HETATM   21  C15 UNL     1      33.370   7.370  47.929  1.00  0.00     0.182 C 
BRANCH  21  22
HETATM   22  N4  UNL     1      33.539   6.060  47.332  1.00  0.00    -0.347 N 
HETATM   23  C16 UNL     1      33.064   5.364  46.148  1.00  0.00     0.126 C 
HETATM   24  C17 UNL     1      34.242   4.674  45.481  1.00  0.00     0.020 C 
HETATM   25  C18 UNL     1      34.577   3.461  46.309  1.00  0.00     0.011 C 
HETATM   26  C19 UNL     1      34.728   3.793  47.775  1.00  0.00     0.103 C 
HETATM   27  C20 UNL     1      34.396   5.187  48.115  1.00  0.00     0.220 C 
HETATM   28  O1  UNL     1      34.937   5.581  49.186  1.00  0.00    -0.273 OA
ENDBRANCH  21  22
ENDBRANCH  17  21
BRANCH   1  29
HETATM   29  N1  UNL     1      32.646  10.013  47.278  1.00  0.00    -0.282 NA
HETATM   30  C1  UNL     1      33.149  11.076  46.761  1.00  0.00     0.145 C 
ENDBRANCH   1  29
TORSDOF 3
ENDMDL
MODEL 5
REMARK VINA RESULT:      -8.1      5.094      7.400
REMARK  3 active torsions:
REMARK  status: ('A' for Active; 'I' for Inactive)
REMARK    1  A    between atoms: N1_2  and  C2_3 
REMARK    2  A    between atoms: C14_19  and  C15_20 
REMARK    3  A    between atoms: C15_20  and  N4_21 
ROOT
HETATM    1  C2  UNL     1      25.861   8.041  47.499  1.00  0.00     0.122 C 
HETATM    2  C3  UNL     1      25.075   7.433  48.286  1.00  0.00     0.126 C 
HETATM    3  C4  UNL     1      24.991   7.267  49.656  1.00  0.00     0.028 C 
HETATM    4  C5  UNL     1      24.336   6.696  50.599  1.00  0.00     0.036 C 
HETATM    5  C6  UNL     1      23.436   6.029  49.599  1.00  0.00     0.079 C 
HETATM    6  C7  UNL     1      24.469   5.057  48.975  1.00  0.00     0.126 C 
HETATM    7  N2  UNL     1      25.644   5.097  49.883  1.00  0.00    -0.390 N 
HETATM    8  C8  UNL     1      26.745   4.465  49.237  1.00  0.00     0.029 C 
HETATM    9  C9  UNL     1      26.596   3.258  49.581  1.00  0.00     0.033 C 
HETATM   10  C10 UNL     1      25.582   2.810  50.400  1.00  0.00     0.051 C 
HETATM   11  C11 UNL     1      24.627   2.476  51.155  1.00  0.00     0.149 A 
HETATM   12  F1  UNL     1      23.643   2.067  51.944  1.00  0.00    -0.290 F 
HETATM   13  S1  UNL     1      23.470   3.266  52.229  1.00  0.00     0.028 SA
HETATM   14  C12 UNL     1      23.541   5.042  52.156  1.00  0.00     0.188 C 
HETATM   15  N3  UNL     1      23.799   6.202  51.672  1.00  0.00    -0.257 NA
HETATM   16  C13 UNL     1      27.434   5.525  48.556  1.00  0.00     0.055 C 
HETATM   17  C14 UNL     1      27.707   6.745  48.132  1.00  0.00     0.027 C 
HETATM   18  N5  UNL     1      27.044   8.044  48.359  1.00  0.00    -0.365 N 
HETATM   19  H9  UNL     1      26.005   5.412  50.826  1.00  0.00     0.159 HD
HETATM   20  H24 UNL     1      27.711   8.475  49.080  1.00  0.00     0.162 HD
ENDROOT
BRANCH  17  21
HETATM   21  C15 UNL     1      28.906   6.976  47.269  1.00  0.00     0.182 C 
BRANCH  21  22
HETATM   22  N4  UNL     1      30.150   6.529  47.863  1.00  0.00    -0.347 N 
HETATM   23  C16 UNL     1      30.996   5.351  47.791  1.00  0.00     0.126 C 
HETATM   24  C17 UNL     1      32.441   5.796  47.629  1.00  0.00     0.020 C 
HETATM   25  C18 UNL     1      32.906   6.299  48.971  1.00  0.00     0.011 C 
HETATM   26  C19 UNL     1      31.950   7.304  49.568  1.00  0.00     0.103 C 
HETATM   27  C20 UNL     1      30.711   7.492  48.793  1.00  0.00     0.220 C 
HETATM   28  O1  UNL     1      30.152   8.604  49.010  1.00  0.00    -0.273 OA
ENDBRANCH  21  22
ENDBRANCH  17  21
BRANCH   1  29
HETATM   29  N1  UNL     1      26.787   8.746  46.707  1.00  0.00    -0.282 NA
HETATM   30  C1  UNL     1      26.798  10.020  46.538  1.00  0.00     0.145 C 
ENDBRANCH   1  29
TORSDOF 3
ENDMDL
MODEL 6
REMARK VINA RESULT:      -8.0      4.880      7.520
REMARK  3 active torsions:
REMARK  status: ('A' for Active; 'I' for Inactive)
REMARK    1  A    between atoms: N1_2  and  C2_3 
REMARK    2  A    between atoms: C14_19  and  C15_20 
REMARK    3  A    between atoms: C15_20  and  N4_21 
ROOT
HETATM    1  C2  UNL     1      22.013   6.641  50.731  1.00  0.00     0.122 C 
HETATM    2  C3  UNL     1      22.373   5.525  51.210  1.00  0.00     0.126 C 
HETATM    3  C4  UNL     1      23.209   5.120  52.234  1.00  0.00     0.028 C 
HETATM    4  C5  UNL     1      23.712   4.101  52.828  1.00  0.00     0.036 C 
HETATM    5  C6  UNL     1      23.015   3.174  51.874  1.00  0.00     0.079 C 
HETATM    6  C7  UNL     1      23.817   3.519  50.593  1.00  0.00     0.126 C 
HETATM    7  N2  UNL     1      24.985   4.307  51.062  1.00  0.00    -0.390 N 
HETATM    8  C8  UNL     1      25.613   4.911  49.935  1.00  0.00     0.029 C 
HETATM    9  C9  UNL     1      26.433   4.018  49.580  1.00  0.00     0.033 C 
HETATM   10  C10 UNL     1      26.588   2.811  50.227  1.00  0.00     0.051 C 
HETATM   11  C11 UNL     1      26.672   1.730  50.873  1.00  0.00     0.149 A 
HETATM   12  F1  UNL     1      26.805   0.576  51.512  1.00  0.00    -0.290 F 
HETATM   13  S1  UNL     1      26.166   1.100  52.442  1.00  0.00     0.028 SA
HETATM   14  C12 UNL     1      25.123   2.222  53.348  1.00  0.00     0.188 C 
HETATM   15  N3  UNL     1      24.312   3.197  53.541  1.00  0.00    -0.257 NA
HETATM   16  C13 UNL     1      24.993   6.201  49.812  1.00  0.00     0.055 C 
HETATM   17  C14 UNL     1      24.190   7.213  50.082  1.00  0.00     0.027 C 
HETATM   18  N5  UNL     1      23.181   7.422  51.139  1.00  0.00    -0.365 N 
HETATM   19  H9  UNL     1      25.548   4.611  51.904  1.00  0.00     0.159 HD
HETATM   20  H24 UNL     1      23.723   8.075  51.794  1.00  0.00     0.162 HD
ENDROOT
BRANCH  17  21
HETATM   21  C15 UNL     1      24.243   8.444  49.236  1.00  0.00     0.182 C 
BRANCH  21  22
HETATM   22  N4  UNL     1      25.460   8.568  48.458  1.00  0.00    -0.347 N 
HETATM   23  C16 UNL     1      26.856   8.881  48.715  1.00  0.00     0.126 C 
HETATM   24  C17 UNL     1      27.726   7.871  47.985  1.00  0.00     0.020 C 
HETATM   25  C18 UNL     1      27.701   8.234  46.523  1.00  0.00     0.011 C 
HETATM   26  C19 UNL     1      26.295   8.418  46.003  1.00  0.00     0.103 C 
HETATM   27  C20 UNL     1      25.252   8.335  47.040  1.00  0.00     0.220 C 
HETATM   28  O1  UNL     1      24.115   8.033  46.581  1.00  0.00    -0.273 OA
ENDBRANCH  21  22
ENDBRANCH  17  21
BRANCH   1  29
HETATM   29  N1  UNL     1      21.673   7.927  50.267  1.00  0.00    -0.282 NA
HETATM   30  C1  UNL     1      20.540   8.254  49.757  1.00  0.00     0.145 C 
ENDBRANCH   1  29
TORSDOF 3
ENDMDL
MODEL 7
REMARK VINA RESULT:      -7.8      3.221      5.650
REMARK  3 active torsions:
REMARK  status: ('A' for Active; 'I' for Inactive)
REMARK    1  A    between atoms: N1_2  and  C2_3 
REMARK    2  A    between atoms: C14_19  and  C15_20 
REMARK    3  A    between atoms: C15_20  and  N4_21 
ROOT
HETATM    1  C2  UNL     1      20.136   3.031  50.828  1.00  0.00     0.122 C 
HETATM    2  C3  UNL     1      20.497   1.990  51.453  1.00  0.00     0.126 C 
HETATM    3  C4  UNL     1      20.579   1.622  52.783  1.00  0.00     0.028 C 
HETATM    4  C5  UNL     1      20.930   0.686  53.587  1.00  0.00     0.036 C 
HETATM    5  C6  UNL     1      21.394  -0.158  52.435  1.00  0.00     0.079 C 
HETATM    6  C7  UNL     1      22.617   0.692  52.007  1.00  0.00     0.126 C 
HETATM    7  N2  UNL     1      22.832   1.656  53.116  1.00  0.00    -0.390 N 
HETATM    8  C8  UNL     1      23.744   2.660  52.680  1.00  0.00     0.029 C 
HETATM    9  C9  UNL     1      24.860   2.153  52.985  1.00  0.00     0.033 C 
HETATM   10  C10 UNL     1      25.009   0.929  53.600  1.00  0.00     0.051 C 
HETATM   11  C11 UNL     1      25.063  -0.199  54.165  1.00  0.00     0.149 A 
HETATM   12  F1  UNL     1      25.183  -1.379  54.757  1.00  0.00    -0.290 F 
HETATM   13  S1  UNL     1      23.967  -1.293  55.011  1.00  0.00     0.028 SA
HETATM   14  C12 UNL     1      22.269  -0.765  54.962  1.00  0.00     0.188 C 
HETATM   15  N3  UNL     1      21.230  -0.142  54.540  1.00  0.00    -0.257 NA
HETATM   16  C13 UNL     1      22.917   3.705  52.143  1.00  0.00     0.055 C 
HETATM   17  C14 UNL     1      21.822   4.347  51.783  1.00  0.00     0.027 C 
HETATM   18  N5  UNL     1      20.390   4.003  51.891  1.00  0.00    -0.365 N 
HETATM   19  H9  UNL     1      22.577   1.909  54.110  1.00  0.00     0.159 HD
HETATM   20  H24 UNL     1      20.110   4.617  52.724  1.00  0.00     0.162 HD
ENDROOT
BRANCH  17  21
HETATM   21  C15 UNL     1      21.932   5.700  51.156  1.00  0.00     0.182 C 
BRANCH  21  22
HETATM   22  N4  UNL     1      22.903   5.771  50.083  1.00  0.00    -0.347 N 
HETATM   23  C16 UNL     1      23.003   5.305  48.711  1.00  0.00     0.126 C 
HETATM   24  C17 UNL     1      23.505   6.446  47.842  1.00  0.00     0.020 C 
HETATM   25  C18 UNL     1      24.979   6.599  48.113  1.00  0.00     0.011 C 
HETATM   26  C19 UNL     1      25.283   6.689  49.589  1.00  0.00     0.103 C 
HETATM   27  C20 UNL     1      24.112   6.481  50.460  1.00  0.00     0.220 C 
HETATM   28  O1  UNL     1      24.248   6.990  51.608  1.00  0.00    -0.273 OA
ENDBRANCH  21  22
ENDBRANCH  17  21
BRANCH   1  29
HETATM   29  N1  UNL     1      19.716   4.232  50.223  1.00  0.00    -0.282 NA
HETATM   30  C1  UNL     1      19.208   4.330  49.047  1.00  0.00     0.145 C 
ENDBRANCH   1  29
TORSDOF 3
ENDMDL
MODEL 8
REMARK VINA RESULT:      -7.8      3.617      6.822
REMARK  3 active torsions:
REMARK  status: ('A' for Active; 'I' for Inactive)
REMARK    1  A    between atoms: N1_2  and  C2_3 
REMARK    2  A    between atoms: C14_19  and  C15_20 
REMARK    3  A    between atoms: C15_20  and  N4_21 
ROOT
HETATM    1  C2  UNL     1      22.691   5.173  51.505  1.00  0.00     0.122 C 
HETATM    2  C3  UNL     1      23.688   4.449  51.799  1.00  0.00     0.126 C 
HETATM    3  C4  UNL     1      24.446   3.503  51.133  1.00  0.00     0.028 C 
HETATM    4  C5  UNL     1      25.417   2.674  51.250  1.00  0.00     0.036 C 
HETATM    5  C6  UNL     1      25.582   3.039  52.697  1.00  0.00     0.079 C 
HETATM    6  C7  UNL     1      24.265   2.428  53.239  1.00  0.00     0.126 C 
HETATM    7  N2  UNL     1      23.742   1.582  52.136  1.00  0.00    -0.390 N 
HETATM    8  C8  UNL     1      22.398   1.219  52.435  1.00  0.00     0.029 C 
HETATM    9  C9  UNL     1      22.554   0.154  53.097  1.00  0.00     0.033 C 
HETATM   10  C10 UNL     1      23.780  -0.411  53.371  1.00  0.00     0.051 C 
HETATM   11  C11 UNL     1      24.938  -0.868  53.580  1.00  0.00     0.149 A 
HETATM   12  F1  UNL     1      26.129  -1.395  53.831  1.00  0.00    -0.290 F 
HETATM   13  S1  UNL     1      26.570  -0.637  52.948  1.00  0.00     0.028 SA
HETATM   14  C12 UNL     1      26.690   0.702  51.783  1.00  0.00     0.188 C 
HETATM   15  N3  UNL     1      26.365   1.790  51.185  1.00  0.00    -0.257 NA
HETATM   16  C13 UNL     1      21.593   2.239  51.823  1.00  0.00     0.055 C 
HETATM   17  C14 UNL     1      21.292   3.329  51.143  1.00  0.00     0.027 C 
HETATM   18  N5  UNL     1      22.132   4.327  50.451  1.00  0.00    -0.365 N 
HETATM   19  H9  UNL     1      23.961   1.137  51.202  1.00  0.00     0.159 HD
HETATM   20  H24 UNL     1      21.990   4.022  49.433  1.00  0.00     0.162 HD
ENDROOT
BRANCH  17  21
HETATM   21  C15 UNL     1      19.860   3.712  50.954  1.00  0.00     0.182 C 
BRANCH  21  22
HETATM   22  N4  UNL     1      18.976   2.583  50.743  1.00  0.00    -0.347 N 
HETATM   23  C16 UNL     1      19.013   1.329  50.010  1.00  0.00     0.126 C 
HETATM   24  C17 UNL     1      18.519   0.216  50.919  1.00  0.00     0.020 C 
HETATM   25  C18 UNL     1      17.022   0.350  51.017  1.00  0.00     0.011 C 
HETATM   26  C19 UNL     1      16.595   1.754  51.374  1.00  0.00     0.103 C 
HETATM   27  C20 UNL     1      17.702   2.726  51.425  1.00  0.00     0.220 C 
HETATM   28  O1  UNL     1      17.445   3.736  52.139  1.00  0.00    -0.273 OA
ENDBRANCH  21  22
ENDBRANCH  17  21
BRANCH   1  29
HETATM   29  N1  UNL     1      21.584   5.936  51.085  1.00  0.00    -0.282 NA
HETATM   30  C1  UNL     1      21.619   7.182  50.775  1.00  0.00     0.145 C 
ENDBRANCH   1  29
TORSDOF 3
ENDMDL
MODEL 9
REMARK VINA RESULT:      -7.7      3.121      6.220
REMARK  3 active torsions:
REMARK  status: ('A' for Active; 'I' for Inactive)
REMARK    1  A    between atoms: N1_2  and  C2_3 
REMARK    2  A    between atoms: C14_19  and  C15_20 
REMARK    3  A    between atoms: C15_20  and  N4_21 
ROOT
HETATM    1  C2  UNL     1      25.022   4.292  50.253  1.00  0.00     0.122 C 
HETATM    2  C3  UNL     1      25.253   3.547  51.251  1.00  0.00     0.126 C 
HETATM    3  C4  UNL     1      25.743   2.266  51.428  1.00  0.00     0.028 C 
HETATM    4  C5  UNL     1      26.007   1.361  52.298  1.00  0.00     0.036 C 
HETATM    5  C6  UNL     1      25.493   2.241  53.400  1.00  0.00     0.079 C 
HETATM    6  C7  UNL     1      23.990   2.225  53.024  1.00  0.00     0.126 C 
HETATM    7  N2  UNL     1      23.850   1.144  52.016  1.00  0.00    -0.390 N 
HETATM    8  C8  UNL     1      22.568   1.252  51.403  1.00  0.00     0.029 C 
HETATM    9  C9  UNL     1      21.850   0.549  52.169  1.00  0.00     0.033 C 
HETATM   10  C10 UNL     1      22.326  -0.116  53.278  1.00  0.00     0.051 C 
HETATM   11  C11 UNL     1      22.836  -0.697  54.276  1.00  0.00     0.149 A 
HETATM   12  F1  UNL     1      23.316  -1.329  55.338  1.00  0.00    -0.290 F 
HETATM   13  S1  UNL     1      24.446  -1.124  54.859  1.00  0.00     0.028 SA
HETATM   14  C12 UNL     1      25.757  -0.449  53.864  1.00  0.00     0.188 C 
HETATM   15  N3  UNL     1      26.330   0.339  53.029  1.00  0.00    -0.257 NA
HETATM   16  C13 UNL     1      22.777   2.083  50.251  1.00  0.00     0.055 C 
HETATM   17  C14 UNL     1      23.414   2.835  49.372  1.00  0.00     0.027 C 
HETATM   18  N5  UNL     1      24.829   3.240  49.256  1.00  0.00    -0.365 N 
HETATM   19  H9  UNL     1      24.321   0.317  51.556  1.00  0.00     0.159 HD
HETATM   20  H24 UNL     1      25.151   2.583  48.472  1.00  0.00     0.162 HD
ENDROOT
BRANCH  17  21
HETATM   21  C15 UNL     1      22.664   3.421  48.219  1.00  0.00     0.182 C 
BRANCH  21  22
HETATM   22  N4  UNL     1      21.226   3.430  48.401  1.00  0.00    -0.347 N 
HETATM   23  C16 UNL     1      20.124   2.508  48.185  1.00  0.00     0.126 C 
HETATM   24  C17 UNL     1      19.236   2.511  49.419  1.00  0.00     0.020 C 
HETATM   25  C18 UNL     1      18.440   3.790  49.392  1.00  0.00     0.011 C 
HETATM   26  C19 UNL     1      19.313   5.004  49.185  1.00  0.00     0.103 C 
HETATM   27  C20 UNL     1      20.729   4.690  48.923  1.00  0.00     0.220 C 
HETATM   28  O1  UNL     1      21.510   5.643  49.201  1.00  0.00    -0.273 OA
ENDBRANCH  21  22
ENDBRANCH  17  21
BRANCH   1  29
HETATM   29  N1  UNL     1      24.797   5.045  49.084  1.00  0.00    -0.282 NA
HETATM   30  C1  UNL     1      25.345   6.176  48.815  1.00  0.00     0.145 C 
ENDBRANCH   1  29
TORSDOF 3
ENDMDL
