MODEL 1
REMARK VINA RESULT:      -7.5      0.000      0.000
REMARK  5 active torsions:
REMARK  status: ('A' for Active; 'I' for Inactive)
REMARK    1  A    between atoms: C5_5  and  O1_6 
REMARK    2  A    between atoms: O1_6  and  C6_7 
REMARK    3  A    between atoms: C6_7  and  C7_8 
REMARK    4  A    between atoms: C7_8  and  C9_11 
REMARK       I    between atoms: C9_11  and  N2_13 
REMARK    5  A    between atoms: N2_13  and  C10_14 
ROOT
HETATM    1  C7  UNL     1      23.332  -0.475  53.907  1.00  0.00     0.134 C 
HETATM    2  C8  UNL     1      22.352  -1.278  54.555  1.00  0.00     0.107 C 
HETATM    3  N1  UNL     1      21.576  -1.936  55.086  1.00  0.00    -0.191 NA
ENDROOT
BRANCH   1   4
HETATM    4  C6  UNL     1      22.896   0.445  53.066  1.00  0.00     0.173 C 
BRANCH   4   5
HETATM    5  O1  UNL     1      22.419   1.070  51.951  1.00  0.00    -0.298 OA
BRANCH   5   6
HETATM    6  C5  UNL     1      23.211   1.853  51.088  1.00  0.00     0.190 A 
HETATM    7  C4  UNL     1      23.150   2.590  49.923  1.00  0.00     0.067 A 
HETATM    8  C3  UNL     1      24.413   3.095  49.694  1.00  0.00     0.037 A 
HETATM    9  C2  UNL     1      25.187   2.636  50.740  1.00  0.00     0.052 A 
HETATM   10  C1  UNL     1      26.631   3.004  50.799  1.00  0.00     0.077 C 
HETATM   11  O3  UNL     1      24.439   1.896  51.555  1.00  0.00    -0.293 OA
ENDBRANCH   5   6
ENDBRANCH   4   5
ENDBRANCH   1   4
BRANCH   1  12
HETATM   12  C9  UNL     1      24.746  -0.597  54.104  1.00  0.00     0.268 C 
HETATM   13  O2  UNL     1      25.093  -1.028  55.228  1.00  0.00    -0.266 OA
HETATM   14  N2  UNL     1      25.736  -0.275  53.149  1.00  0.00    -0.322 N 
HETATM   15  H7  UNL     1      25.306   0.069  52.267  1.00  0.00     0.169 HD
BRANCH  14  16
HETATM   16  C10 UNL     1      27.143  -0.367  53.265  1.00  0.00     0.035 A 
HETATM   17  C11 UNL     1      27.919  -1.472  53.119  1.00  0.00     0.029 A 
HETATM   18  C12 UNL     1      29.291  -1.477  53.249  1.00  0.00     0.002 A 
HETATM   19  C13 UNL     1      29.969  -0.338  53.541  1.00  0.00     0.000 A 
HETATM   20  C14 UNL     1      29.206   0.801  53.696  1.00  0.00     0.002 A 
HETATM   21  C15 UNL     1      27.836   0.778  53.560  1.00  0.00     0.029 A 
ENDBRANCH  14  16
ENDBRANCH   1  12
TORSDOF 5
ENDMDL
MODEL 2
REMARK VINA RESULT:      -7.3      1.657      4.973
REMARK  5 active torsions:
REMARK  status: ('A' for Active; 'I' for Inactive)
REMARK    1  A    between atoms: C5_5  and  O1_6 
REMARK    2  A    between atoms: O1_6  and  C6_7 
REMARK    3  A    between atoms: C6_7  and  C7_8 
REMARK    4  A    between atoms: C7_8  and  C9_11 
REMARK       I    between atoms: C9_11  and  N2_13 
REMARK    5  A    between atoms: N2_13  and  C10_14 
ROOT
HETATM    1  C7  UNL     1      27.535   0.184  53.221  1.00  0.00     0.134 C 
HETATM    2  C8  UNL     1      28.758  -0.497  53.481  1.00  0.00     0.107 C 
HETATM    3  N1  UNL     1      29.733  -1.061  53.696  1.00  0.00    -0.191 NA
ENDROOT
BRANCH   1   4
HETATM    4  C6  UNL     1      27.619   1.427  52.787  1.00  0.00     0.173 C 
BRANCH   4   5
HETATM    5  O1  UNL     1      27.650   2.526  51.979  1.00  0.00    -0.298 OA
BRANCH   5   6
HETATM    6  C5  UNL     1      26.633   2.858  51.063  1.00  0.00     0.190 A 
HETATM    7  C4  UNL     1      26.424   3.185  49.738  1.00  0.00     0.067 A 
HETATM    8  C3  UNL     1      25.069   3.386  49.577  1.00  0.00     0.037 A 
HETATM    9  C2  UNL     1      24.515   3.170  50.822  1.00  0.00     0.052 A 
HETATM   10  C1  UNL     1      23.041   3.309  51.003  1.00  0.00     0.077 C 
HETATM   11  O3  UNL     1      25.476   2.856  51.688  1.00  0.00    -0.293 OA
ENDBRANCH   5   6
ENDBRANCH   4   5
ENDBRANCH   1   4
BRANCH   1  12
HETATM   12  C9  UNL     1      26.232  -0.385  53.399  1.00  0.00     0.268 C 
HETATM   13  O2  UNL     1      26.203  -1.635  53.488  1.00  0.00    -0.266 OA
HETATM   14  N2  UNL     1      25.025   0.344  53.476  1.00  0.00    -0.322 N 
HETATM   15  H7  UNL     1      25.199   1.365  53.387  1.00  0.00     0.169 HD
BRANCH  14  16
HETATM   16  C10 UNL     1      23.706  -0.140  53.650  1.00  0.00     0.035 A 
HETATM   17  C11 UNL     1      23.229  -0.909  54.662  1.00  0.00     0.029 A 
HETATM   18  C12 UNL     1      21.924  -1.340  54.756  1.00  0.00     0.002 A 
HETATM   19  C13 UNL     1      21.008  -1.008  53.811  1.00  0.00     0.000 A 
HETATM   20  C14 UNL     1      21.464  -0.227  52.770  1.00  0.00     0.002 A 
HETATM   21  C15 UNL     1      22.775   0.190  52.699  1.00  0.00     0.029 A 
ENDBRANCH  14  16
ENDBRANCH   1  12
TORSDOF 5
ENDMDL
MODEL 3
REMARK VINA RESULT:      -7.1      1.532      2.202
REMARK  5 active torsions:
REMARK  status: ('A' for Active; 'I' for Inactive)
REMARK    1  A    between atoms: C5_5  and  O1_6 
REMARK    2  A    between atoms: O1_6  and  C6_7 
REMARK    3  A    between atoms: C6_7  and  C7_8 
REMARK    4  A    between atoms: C7_8  and  C9_11 
REMARK       I    between atoms: C9_11  and  N2_13 
REMARK    5  A    between atoms: N2_13  and  C10_14 
ROOT
HETATM    1  C7  UNL     1      23.428  -0.557  53.734  1.00  0.00     0.134 C 
HETATM    2  C8  UNL     1      22.423  -1.216  54.498  1.00  0.00     0.107 C 
HETATM    3  N1  UNL     1      21.627  -1.754  55.124  1.00  0.00    -0.191 NA
ENDROOT
BRANCH   1   4
HETATM    4  C6  UNL     1      23.025   0.169  52.709  1.00  0.00     0.173 C 
BRANCH   4   5
HETATM    5  O1  UNL     1      22.839   1.201  51.836  1.00  0.00    -0.298 OA
BRANCH   5   6
HETATM    6  C5  UNL     1      23.094   2.551  52.146  1.00  0.00     0.190 A 
HETATM    7  C4  UNL     1      23.942   3.359  52.876  1.00  0.00     0.067 A 
HETATM    8  C3  UNL     1      23.541   4.663  52.669  1.00  0.00     0.037 A 
HETATM    9  C2  UNL     1      22.459   4.583  51.816  1.00  0.00     0.052 A 
HETATM   10  C1  UNL     1      21.773   5.834  51.383  1.00  0.00     0.077 C 
HETATM   11  O3  UNL     1      22.218   3.307  51.523  1.00  0.00    -0.293 OA
ENDBRANCH   5   6
ENDBRANCH   4   5
ENDBRANCH   1   4
BRANCH   1  12
HETATM   12  C9  UNL     1      24.833  -0.631  54.002  1.00  0.00     0.268 C 
HETATM   13  O2  UNL     1      25.139  -1.017  55.153  1.00  0.00    -0.266 OA
HETATM   14  N2  UNL     1      25.858  -0.307  53.085  1.00  0.00    -0.322 N 
HETATM   15  H7  UNL     1      25.462  -0.003  52.173  1.00  0.00     0.169 HD
BRANCH  14  16
HETATM   16  C10 UNL     1      27.261  -0.353  53.269  1.00  0.00     0.035 A 
HETATM   17  C11 UNL     1      28.086   0.663  53.631  1.00  0.00     0.029 A 
HETATM   18  C12 UNL     1      29.449   0.535  53.789  1.00  0.00     0.002 A 
HETATM   19  C13 UNL     1      30.066  -0.657  53.586  1.00  0.00     0.000 A 
HETATM   20  C14 UNL     1      29.253  -1.708  53.217  1.00  0.00     0.002 A 
HETATM   21  C15 UNL     1      27.892  -1.552  53.066  1.00  0.00     0.029 A 
ENDBRANCH  14  16
ENDBRANCH   1  12
TORSDOF 5
ENDMDL
MODEL 4
REMARK VINA RESULT:      -7.1      2.667      5.488
REMARK  5 active torsions:
REMARK  status: ('A' for Active; 'I' for Inactive)
REMARK    1  A    between atoms: C5_5  and  O1_6 
REMARK    2  A    between atoms: O1_6  and  C6_7 
REMARK    3  A    between atoms: C6_7  and  C7_8 
REMARK    4  A    between atoms: C7_8  and  C9_11 
REMARK       I    between atoms: C9_11  and  N2_13 
REMARK    5  A    between atoms: N2_13  and  C10_14 
ROOT
HETATM    1  C7  UNL     1      26.536   2.081  52.482  1.00  0.00     0.134 C 
HETATM    2  C8  UNL     1      27.618   2.328  53.373  1.00  0.00     0.107 C 
HETATM    3  N1  UNL     1      28.479   2.524  54.107  1.00  0.00    -0.191 NA
ENDROOT
BRANCH   1   4
HETATM    4  C6  UNL     1      26.783   2.194  51.190  1.00  0.00     0.173 C 
BRANCH   4   5
HETATM    5  O1  UNL     1      26.772   2.619  49.894  1.00  0.00    -0.298 OA
BRANCH   5   6
HETATM    6  C5  UNL     1      26.637   3.967  49.507  1.00  0.00     0.190 A 
HETATM    7  C4  UNL     1      25.750   5.023  49.531  1.00  0.00     0.067 A 
HETATM    8  C3  UNL     1      26.372   6.092  48.920  1.00  0.00     0.037 A 
HETATM    9  C2  UNL     1      27.618   5.629  48.552  1.00  0.00     0.052 A 
HETATM   10  C1  UNL     1      28.565   6.548  47.855  1.00  0.00     0.077 C 
HETATM   11  O3  UNL     1      27.746   4.356  48.917  1.00  0.00    -0.293 OA
ENDBRANCH   5   6
ENDBRANCH   4   5
ENDBRANCH   1   4
BRANCH   1  12
HETATM   12  C9  UNL     1      25.211   1.723  52.890  1.00  0.00     0.268 C 
HETATM   13  O2  UNL     1      24.519   2.663  53.345  1.00  0.00    -0.266 OA
HETATM   14  N2  UNL     1      24.654   0.426  52.815  1.00  0.00    -0.322 N 
HETATM   15  H7  UNL     1      25.337  -0.250  52.419  1.00  0.00     0.169 HD
BRANCH  14  16
HETATM   16  C10 UNL     1      23.361  -0.008  53.194  1.00  0.00     0.035 A 
HETATM   17  C11 UNL     1      22.185   0.227  52.557  1.00  0.00     0.029 A 
HETATM   18  C12 UNL     1      20.963  -0.233  52.996  1.00  0.00     0.002 A 
HETATM   19  C13 UNL     1      20.861  -0.974  54.128  1.00  0.00     0.000 A 
HETATM   20  C14 UNL     1      22.040  -1.228  54.797  1.00  0.00     0.002 A 
HETATM   21  C15 UNL     1      23.249  -0.755  54.337  1.00  0.00     0.029 A 
ENDBRANCH  14  16
ENDBRANCH   1  12
TORSDOF 5
ENDMDL
MODEL 5
REMARK VINA RESULT:      -6.9      1.780      4.395
REMARK  5 active torsions:
REMARK  status: ('A' for Active; 'I' for Inactive)
REMARK    1  A    between atoms: C5_5  and  O1_6 
REMARK    2  A    between atoms: O1_6  and  C6_7 
REMARK    3  A    between atoms: C6_7  and  C7_8 
REMARK    4  A    between atoms: C7_8  and  C9_11 
REMARK       I    between atoms: C9_11  and  N2_13 
REMARK    5  A    between atoms: N2_13  and  C10_14 
ROOT
HETATM    1  C7  UNL     1      24.586   2.473  50.939  1.00  0.00     0.134 C 
HETATM    2  C8  UNL     1      24.382   3.564  50.046  1.00  0.00     0.107 C 
HETATM    3  N1  UNL     1      24.236   4.446  49.327  1.00  0.00    -0.191 NA
ENDROOT
BRANCH   1   4
HETATM    4  C6  UNL     1      23.511   1.861  51.397  1.00  0.00     0.173 C 
BRANCH   4   5
HETATM    5  O1  UNL     1      22.542   0.930  51.630  1.00  0.00    -0.298 OA
BRANCH   5   6
HETATM    6  C5  UNL     1      22.416   0.208  52.833  1.00  0.00     0.190 A 
HETATM    7  C4  UNL     1      21.476  -0.331  53.687  1.00  0.00     0.067 A 
HETATM    8  C3  UNL     1      22.162  -0.928  54.724  1.00  0.00     0.037 A 
HETATM    9  C2  UNL     1      23.497  -0.722  54.447  1.00  0.00     0.052 A 
HETATM   10  C1  UNL     1      24.530  -1.249  55.386  1.00  0.00     0.077 C 
HETATM   11  O3  UNL     1      23.616  -0.040  53.311  1.00  0.00    -0.293 OA
ENDBRANCH   5   6
ENDBRANCH   4   5
ENDBRANCH   1   4
BRANCH   1  12
HETATM   12  C9  UNL     1      25.869   2.002  51.368  1.00  0.00     0.268 C 
HETATM   13  O2  UNL     1      26.850   2.502  50.769  1.00  0.00    -0.266 OA
HETATM   14  N2  UNL     1      26.091   1.046  52.383  1.00  0.00    -0.322 N 
HETATM   15  H7  UNL     1      25.193   0.719  52.791  1.00  0.00     0.169 HD
BRANCH  14  16
HETATM   16  C10 UNL     1      27.319   0.530  52.864  1.00  0.00     0.035 A 
HETATM   17  C11 UNL     1      28.366   1.223  53.383  1.00  0.00     0.029 A 
HETATM   18  C12 UNL     1      29.532   0.642  53.830  1.00  0.00     0.002 A 
HETATM   19  C13 UNL     1      29.709  -0.703  53.775  1.00  0.00     0.000 A 
HETATM   20  C14 UNL     1      28.662  -1.433  53.251  1.00  0.00     0.002 A 
HETATM   21  C15 UNL     1      27.506  -0.826  52.811  1.00  0.00     0.029 A 
ENDBRANCH  14  16
ENDBRANCH   1  12
TORSDOF 5
ENDMDL
MODEL 6
REMARK VINA RESULT:      -6.8      1.659      2.192
REMARK  5 active torsions:
REMARK  status: ('A' for Active; 'I' for Inactive)
REMARK    1  A    between atoms: C5_5  and  O1_6 
REMARK    2  A    between atoms: O1_6  and  C6_7 
REMARK    3  A    between atoms: C6_7  and  C7_8 
REMARK    4  A    between atoms: C7_8  and  C9_11 
REMARK       I    between atoms: C9_11  and  N2_13 
REMARK    5  A    between atoms: N2_13  and  C10_14 
ROOT
HETATM    1  C7  UNL     1      23.661   1.038  52.669  1.00  0.00     0.134 C 
HETATM    2  C8  UNL     1      22.370   0.795  53.217  1.00  0.00     0.107 C 
HETATM    3  N1  UNL     1      21.336   0.586  53.670  1.00  0.00    -0.191 NA
ENDROOT
BRANCH   1   4
HETATM    4  C6  UNL     1      23.747   1.941  51.711  1.00  0.00     0.173 C 
BRANCH   4   5
HETATM    5  O1  UNL     1      23.865   2.539  50.490  1.00  0.00    -0.298 OA
BRANCH   5   6
HETATM    6  C5  UNL     1      25.034   3.182  50.038  1.00  0.00     0.190 A 
HETATM    7  C4  UNL     1      26.393   2.993  49.889  1.00  0.00     0.067 A 
HETATM    8  C3  UNL     1      26.907   4.149  49.340  1.00  0.00     0.037 A 
HETATM    9  C2  UNL     1      25.827   4.993  49.181  1.00  0.00     0.052 A 
HETATM   10  C1  UNL     1      26.036   6.351  48.603  1.00  0.00     0.077 C 
HETATM   11  O3  UNL     1      24.722   4.385  49.608  1.00  0.00    -0.293 OA
ENDBRANCH   5   6
ENDBRANCH   4   5
ENDBRANCH   1   4
BRANCH   1  12
HETATM   12  C9  UNL     1      24.860   0.373  53.083  1.00  0.00     0.268 C 
HETATM   13  O2  UNL     1      24.715  -0.465  54.004  1.00  0.00    -0.266 OA
HETATM   14  N2  UNL     1      26.146   0.593  52.542  1.00  0.00    -0.322 N 
HETATM   15  H7  UNL     1      26.117   1.310  51.790  1.00  0.00     0.169 HD
BRANCH  14  16
HETATM   16  C10 UNL     1      27.373  -0.020  52.893  1.00  0.00     0.035 A 
HETATM   17  C11 UNL     1      27.687  -1.340  52.847  1.00  0.00     0.029 A 
HETATM   18  C12 UNL     1      28.911  -1.857  53.210  1.00  0.00     0.002 A 
HETATM   19  C13 UNL     1      29.909  -1.048  53.648  1.00  0.00     0.000 A 
HETATM   20  C14 UNL     1      29.619   0.299  53.706  1.00  0.00     0.002 A 
HETATM   21  C15 UNL     1      28.385   0.790  53.338  1.00  0.00     0.029 A 
ENDBRANCH  14  16
ENDBRANCH   1  12
TORSDOF 5
ENDMDL
MODEL 7
REMARK VINA RESULT:      -6.8      2.070      3.358
REMARK  5 active torsions:
REMARK  status: ('A' for Active; 'I' for Inactive)
REMARK    1  A    between atoms: C5_5  and  O1_6 
REMARK    2  A    between atoms: O1_6  and  C6_7 
REMARK    3  A    between atoms: C6_7  and  C7_8 
REMARK    4  A    between atoms: C7_8  and  C9_11 
REMARK       I    between atoms: C9_11  and  N2_13 
REMARK    5  A    between atoms: N2_13  and  C10_14 
ROOT
HETATM    1  C7  UNL     1      23.442  -0.510  53.754  1.00  0.00     0.134 C 
HETATM    2  C8  UNL     1      22.428  -1.172  54.502  1.00  0.00     0.107 C 
HETATM    3  N1  UNL     1      21.624  -1.713  55.116  1.00  0.00    -0.191 NA
ENDROOT
BRANCH   1   4
HETATM    4  C6  UNL     1      23.049   0.253  52.752  1.00  0.00     0.173 C 
BRANCH   4   5
HETATM    5  O1  UNL     1      22.281   0.883  51.817  1.00  0.00    -0.298 OA
BRANCH   5   6
HETATM    6  C5  UNL     1      20.895   0.678  51.669  1.00  0.00     0.190 A 
HETATM    7  C4  UNL     1      19.833  -0.016  52.211  1.00  0.00     0.067 A 
HETATM    8  C3  UNL     1      18.712   0.318  51.480  1.00  0.00     0.037 A 
HETATM    9  C2  UNL     1      19.151   1.206  50.520  1.00  0.00     0.052 A 
HETATM   10  C1  UNL     1      18.176   1.773  49.544  1.00  0.00     0.077 C 
HETATM   11  O3  UNL     1      20.461   1.400  50.660  1.00  0.00    -0.293 OA
ENDBRANCH   5   6
ENDBRANCH   4   5
ENDBRANCH   1   4
BRANCH   1  12
HETATM   12  C9  UNL     1      24.847  -0.617  54.014  1.00  0.00     0.268 C 
HETATM   13  O2  UNL     1      25.148  -1.062  55.146  1.00  0.00    -0.266 OA
HETATM   14  N2  UNL     1      25.875  -0.267  53.111  1.00  0.00    -0.322 N 
HETATM   15  H7  UNL     1      25.481   0.085  52.215  1.00  0.00     0.169 HD
BRANCH  14  16
HETATM   16  C10 UNL     1      27.277  -0.343  53.290  1.00  0.00     0.035 A 
HETATM   17  C11 UNL     1      28.124   0.652  53.660  1.00  0.00     0.029 A 
HETATM   18  C12 UNL     1      29.484   0.494  53.811  1.00  0.00     0.002 A 
HETATM   19  C13 UNL     1      30.077  -0.707  53.592  1.00  0.00     0.000 A 
HETATM   20  C14 UNL     1      29.241  -1.737  53.213  1.00  0.00     0.002 A 
HETATM   21  C15 UNL     1      27.884  -1.552  53.069  1.00  0.00     0.029 A 
ENDBRANCH  14  16
ENDBRANCH   1  12
TORSDOF 5
ENDMDL
MODEL 8
REMARK VINA RESULT:      -6.7      2.207      6.012
REMARK  5 active torsions:
REMARK  status: ('A' for Active; 'I' for Inactive)
REMARK    1  A    between atoms: C5_5  and  O1_6 
REMARK    2  A    between atoms: O1_6  and  C6_7 
REMARK    3  A    between atoms: C6_7  and  C7_8 
REMARK    4  A    between atoms: C7_8  and  C9_11 
REMARK       I    between atoms: C9_11  and  N2_13 
REMARK    5  A    between atoms: N2_13  and  C10_14 
ROOT
HETATM    1  C7  UNL     1      24.979   3.013  51.018  1.00  0.00     0.134 C 
HETATM    2  C8  UNL     1      24.619   3.858  49.930  1.00  0.00     0.107 C 
HETATM    3  N1  UNL     1      24.310   4.535  49.057  1.00  0.00    -0.191 NA
ENDROOT
BRANCH   1   4
HETATM    4  C6  UNL     1      26.267   2.826  51.234  1.00  0.00     0.173 C 
BRANCH   4   5
HETATM    5  O1  UNL     1      27.464   2.574  51.838  1.00  0.00    -0.298 OA
BRANCH   5   6
HETATM    6  C5  UNL     1      27.645   1.621  52.859  1.00  0.00     0.190 A 
HETATM    7  C4  UNL     1      27.056   1.126  54.004  1.00  0.00     0.067 A 
HETATM    8  C3  UNL     1      27.882   0.135  54.492  1.00  0.00     0.037 A 
HETATM    9  C2  UNL     1      28.943   0.075  53.612  1.00  0.00     0.052 A 
HETATM   10  C1  UNL     1      30.038  -0.909  53.851  1.00  0.00     0.077 C 
HETATM   11  O3  UNL     1      28.772   0.976  52.647  1.00  0.00    -0.293 OA
ENDBRANCH   5   6
ENDBRANCH   4   5
ENDBRANCH   1   4
BRANCH   1  12
HETATM   12  C9  UNL     1      24.044   2.359  51.885  1.00  0.00     0.268 C 
HETATM   13  O2  UNL     1      23.371   3.121  52.617  1.00  0.00    -0.266 OA
HETATM   14  N2  UNL     1      23.842   0.963  51.965  1.00  0.00    -0.322 N 
HETATM   15  H7  UNL     1      24.466   0.457  51.305  1.00  0.00     0.169 HD
BRANCH  14  16
HETATM   16  C10 UNL     1      22.945   0.242  52.789  1.00  0.00     0.035 A 
HETATM   17  C11 UNL     1      21.606   0.089  52.625  1.00  0.00     0.029 A 
HETATM   18  C12 UNL     1      20.800  -0.632  53.479  1.00  0.00     0.002 A 
HETATM   19  C13 UNL     1      21.316  -1.252  54.570  1.00  0.00     0.000 A 
HETATM   20  C14 UNL     1      22.674  -1.113  54.763  1.00  0.00     0.002 A 
HETATM   21  C15 UNL     1      23.458  -0.386  53.894  1.00  0.00     0.029 A 
ENDBRANCH  14  16
ENDBRANCH   1  12
TORSDOF 5
ENDMDL
MODEL 9
REMARK VINA RESULT:      -6.7      1.434      5.166
REMARK  5 active torsions:
REMARK  status: ('A' for Active; 'I' for Inactive)
REMARK    1  A    between atoms: C5_5  and  O1_6 
REMARK    2  A    between atoms: O1_6  and  C6_7 
REMARK    3  A    between atoms: C6_7  and  C7_8 
REMARK    4  A    between atoms: C7_8  and  C9_11 
REMARK       I    between atoms: C9_11  and  N2_13 
REMARK    5  A    between atoms: N2_13  and  C10_14 
ROOT
HETATM    1  C7  UNL     1      23.827  -0.241  53.613  1.00  0.00     0.134 C 
HETATM    2  C8  UNL     1      22.835  -0.835  54.444  1.00  0.00     0.107 C 
HETATM    3  N1  UNL     1      22.024  -1.300  55.108  1.00  0.00    -0.191 NA
ENDROOT
BRANCH   1   4
HETATM    4  C6  UNL     1      25.024  -0.798  53.612  1.00  0.00     0.173 C 
BRANCH   4   5
HETATM    5  O1  UNL     1      26.190  -1.378  53.209  1.00  0.00    -0.298 OA
BRANCH   5   6
HETATM    6  C5  UNL     1      27.456  -0.774  53.337  1.00  0.00     0.190 A 
HETATM    7  C4  UNL     1      28.801  -1.071  53.427  1.00  0.00     0.067 A 
HETATM    8  C3  UNL     1      29.476   0.126  53.539  1.00  0.00     0.037 A 
HETATM    9  C2  UNL     1      28.501   1.102  53.512  1.00  0.00     0.052 A 
HETATM   10  C1  UNL     1      28.896   2.536  53.614  1.00  0.00     0.077 C 
HETATM   11  O3  UNL     1      27.305   0.531  53.390  1.00  0.00    -0.293 OA
ENDBRANCH   5   6
ENDBRANCH   4   5
ENDBRANCH   1   4
BRANCH   1  12
HETATM   12  C9  UNL     1      23.614   0.910  52.786  1.00  0.00     0.268 C 
HETATM   13  O2  UNL     1      22.586   1.575  53.051  1.00  0.00    -0.266 OA
HETATM   14  N2  UNL     1      24.457   1.326  51.731  1.00  0.00    -0.322 N 
HETATM   15  H7  UNL     1      25.268   0.684  51.626  1.00  0.00     0.169 HD
BRANCH  14  16
HETATM   16  C10 UNL     1      24.319   2.443  50.873  1.00  0.00     0.035 A 
HETATM   17  C11 UNL     1      23.411   2.621  49.879  1.00  0.00     0.029 A 
HETATM   18  C12 UNL     1      23.344   3.745  49.085  1.00  0.00     0.002 A 
HETATM   19  C13 UNL     1      24.211   4.775  49.257  1.00  0.00     0.000 A 
HETATM   20  C14 UNL     1      25.146   4.622  50.259  1.00  0.00     0.002 A 
HETATM   21  C15 UNL     1      25.191   3.487  51.040  1.00  0.00     0.029 A 
ENDBRANCH  14  16
ENDBRANCH   1  12
TORSDOF 5
ENDMDL
