MODEL 1
REMARK VINA RESULT:      -8.4      0.000      0.000
REMARK  7 active torsions:
REMARK  status: ('A' for Active; 'I' for Inactive)
REMARK    1  A    between atoms: C3_3  and  C4_4 
REMARK    2  A    between atoms: C11_13  and  O3_14 
REMARK    3  A    between atoms: O3_14  and  C12_15 
REMARK    4  A    between atoms: C12_15  and  C13_16 
REMARK    5  A    between atoms: C13_16  and  N1_17 
REMARK    6  A    between atoms: N1_17  and  C15_19 
REMARK    7  A    between atoms: C15_19  and  C16_20 
ROOT
HETATM    1  C4  UNL     1      25.622   4.285  49.864  1.00  0.00     0.090 C 
HETATM    2  C5  UNL     1      26.715   3.270  49.871  1.00  0.00     0.102 C 
HETATM    3  C6  UNL     1      26.675   2.620  51.231  1.00  0.00     0.185 C 
HETATM    4  O1  UNL     1      27.634   2.544  52.012  1.00  0.00    -0.290 OA
HETATM    5  C7  UNL     1      25.350   2.065  51.563  1.00  0.00     0.136 A 
HETATM    6  O2  UNL     1      25.000   1.159  52.448  1.00  0.00    -0.304 OA
HETATM    7  C8  UNL     1      23.709   0.940  52.433  1.00  0.00     0.098 A 
HETATM    8  C9  UNL     1      23.185   1.784  51.448  1.00  0.00     0.018 A 
HETATM    9  C10 UNL     1      21.838   1.822  51.154  1.00  0.00     0.053 A 
HETATM   10  C11 UNL     1      20.957   1.010  51.839  1.00  0.00     0.081 A 
HETATM   11  C18 UNL     1      21.462   0.170  52.817  1.00  0.00     0.010 A 
HETATM   12  C19 UNL     1      20.717  -0.705  53.593  1.00  0.00     0.015 A 
HETATM   13  C20 UNL     1      21.221  -1.535  54.559  1.00  0.00     0.001 A 
HETATM   14  C21 UNL     1      22.574  -1.518  54.797  1.00  0.00     0.001 A 
HETATM   15  C22 UNL     1      23.390  -0.678  54.070  1.00  0.00     0.015 A 
HETATM   16  C23 UNL     1      22.826   0.134  53.112  1.00  0.00     0.012 A 
HETATM   17  C24 UNL     1      24.227   2.518  50.875  1.00  0.00     0.061 A 
HETATM   18  C25 UNL     1      24.312   3.543  49.814  1.00  0.00     0.171 C 
HETATM   19  O4  UNL     1      23.317   3.661  49.034  1.00  0.00    -0.291 OA
ENDROOT
BRANCH  10  20
HETATM   20  O3  UNL     1      19.592   0.867  51.730  1.00  0.00    -0.349 OA
BRANCH  20  21
HETATM   21  C12 UNL     1      18.790   1.278  50.643  1.00  0.00     0.195 C 
BRANCH  21  22
HETATM   22  C13 UNL     1      17.809   0.160  50.390  1.00  0.00     0.143 C 
BRANCH  22  23
HETATM   23  N1  UNL     1      16.714   0.055  51.251  1.00  0.00    -0.415 N 
HETATM   24  C14 UNL     1      16.048   1.208  51.702  1.00  0.00     0.143 C 
BRANCH  23  25
HETATM   25  C15 UNL     1      16.438  -1.184  51.876  1.00  0.00     0.116 C 
BRANCH  25  26
HETATM   26  C16 UNL     1      17.207  -1.289  53.199  1.00  0.00     0.015 C 
HETATM   27  C17 UNL     1      17.595  -2.707  53.490  1.00  0.00     0.006 C 
ENDBRANCH  25  26
ENDBRANCH  23  25
ENDBRANCH  22  23
ENDBRANCH  21  22
ENDBRANCH  20  21
ENDBRANCH  10  20
BRANCH   1  28
HETATM   28  C3  UNL     1      25.708   5.288  48.790  1.00  0.00    -0.018 C 
HETATM   29  C2  UNL     1      25.546   6.596  49.059  1.00  0.00    -0.034 C 
HETATM   30  C1  UNL     1      25.277   6.988  50.483  1.00  0.00     0.036 C 
ENDBRANCH   1  28
TORSDOF 7
ENDMDL
MODEL 2
REMARK VINA RESULT:      -8.3      1.471      2.804
REMARK  7 active torsions:
REMARK  status: ('A' for Active; 'I' for Inactive)
REMARK    1  A    between atoms: C3_3  and  C4_4 
REMARK    2  A    between atoms: C11_13  and  O3_14 
REMARK    3  A    between atoms: O3_14  and  C12_15 
REMARK    4  A    between atoms: C12_15  and  C13_16 
REMARK    5  A    between atoms: C13_16  and  N1_17 
REMARK    6  A    between atoms: N1_17  and  C15_19 
REMARK    7  A    between atoms: C15_19  and  C16_20 
ROOT
HETATM    1  C4  UNL     1      25.703   4.198  49.906  1.00  0.00     0.090 C 
HETATM    2  C5  UNL     1      26.792   3.179  49.956  1.00  0.00     0.102 C 
HETATM    3  C6  UNL     1      26.716   2.551  51.324  1.00  0.00     0.185 C 
HETATM    4  O1  UNL     1      27.655   2.484  52.130  1.00  0.00    -0.290 OA
HETATM    5  C7  UNL     1      25.381   2.006  51.632  1.00  0.00     0.136 A 
HETATM    6  O2  UNL     1      25.006   1.115  52.523  1.00  0.00    -0.304 OA
HETATM    7  C8  UNL     1      23.714   0.901  52.479  1.00  0.00     0.098 A 
HETATM    8  C9  UNL     1      23.218   1.731  51.469  1.00  0.00     0.018 A 
HETATM    9  C10 UNL     1      21.879   1.769  51.142  1.00  0.00     0.053 A 
HETATM   10  C11 UNL     1      20.979   0.971  51.817  1.00  0.00     0.081 A 
HETATM   11  C18 UNL     1      21.456   0.145  52.821  1.00  0.00     0.010 A 
HETATM   12  C19 UNL     1      20.689  -0.715  53.592  1.00  0.00     0.015 A 
HETATM   13  C20 UNL     1      21.166  -1.532  54.583  1.00  0.00     0.001 A 
HETATM   14  C21 UNL     1      22.512  -1.515  54.854  1.00  0.00     0.001 A 
HETATM   15  C22 UNL     1      23.350  -0.690  54.133  1.00  0.00     0.015 A 
HETATM   16  C23 UNL     1      22.812   0.109  53.149  1.00  0.00     0.012 A 
HETATM   17  C24 UNL     1      24.277   2.452  50.910  1.00  0.00     0.061 A 
HETATM   18  C25 UNL     1      24.392   3.460  49.836  1.00  0.00     0.171 C 
HETATM   19  O4  UNL     1      23.417   3.569  49.029  1.00  0.00    -0.291 OA
ENDROOT
BRANCH  10  20
HETATM   20  O3  UNL     1      19.616   0.832  51.677  1.00  0.00    -0.349 OA
BRANCH  20  21
HETATM   21  C12 UNL     1      18.887   0.885  50.468  1.00  0.00     0.195 C 
BRANCH  21  22
HETATM   22  C13 UNL     1      18.195   2.226  50.447  1.00  0.00     0.143 C 
BRANCH  22  23
HETATM   23  N1  UNL     1      18.907   3.313  49.933  1.00  0.00    -0.415 N 
HETATM   24  C14 UNL     1      19.424   3.272  48.626  1.00  0.00     0.143 C 
BRANCH  23  25
HETATM   25  C15 UNL     1      19.332   4.340  50.807  1.00  0.00     0.116 C 
BRANCH  25  26
HETATM   26  C16 UNL     1      20.496   5.117  50.180  1.00  0.00     0.015 C 
HETATM   27  C17 UNL     1      21.518   5.490  51.211  1.00  0.00     0.006 C 
ENDBRANCH  25  26
ENDBRANCH  23  25
ENDBRANCH  22  23
ENDBRANCH  21  22
ENDBRANCH  20  21
ENDBRANCH  10  20
BRANCH   1  28
HETATM   28  C3  UNL     1      25.820   5.183  48.818  1.00  0.00    -0.018 C 
HETATM   29  C2  UNL     1      25.624   6.493  49.056  1.00  0.00    -0.034 C 
HETATM   30  C1  UNL     1      25.286   6.905  50.460  1.00  0.00     0.036 C 
ENDBRANCH   1  28
TORSDOF 7
ENDMDL
MODEL 3
REMARK VINA RESULT:      -8.0      1.238      2.128
REMARK  7 active torsions:
REMARK  status: ('A' for Active; 'I' for Inactive)
REMARK    1  A    between atoms: C3_3  and  C4_4 
REMARK    2  A    between atoms: C11_13  and  O3_14 
REMARK    3  A    between atoms: O3_14  and  C12_15 
REMARK    4  A    between atoms: C12_15  and  C13_16 
REMARK    5  A    between atoms: C13_16  and  N1_17 
REMARK    6  A    between atoms: N1_17  and  C15_19 
REMARK    7  A    between atoms: C15_19  and  C16_20 
ROOT
HETATM    1  C4  UNL     1      25.522   4.415  49.834  1.00  0.00     0.090 C 
HETATM    2  C5  UNL     1      26.582   3.367  49.753  1.00  0.00     0.102 C 
HETATM    3  C6  UNL     1      26.593   2.678  51.094  1.00  0.00     0.185 C 
HETATM    4  O1  UNL     1      27.590   2.550  51.820  1.00  0.00    -0.290 OA
HETATM    5  C7  UNL     1      25.271   2.154  51.482  1.00  0.00     0.136 A 
HETATM    6  O2  UNL     1      24.939   1.233  52.359  1.00  0.00    -0.304 OA
HETATM    7  C8  UNL     1      23.643   1.054  52.407  1.00  0.00     0.098 A 
HETATM    8  C9  UNL     1      23.094   1.943  51.477  1.00  0.00     0.018 A 
HETATM    9  C10 UNL     1      21.736   2.031  51.258  1.00  0.00     0.053 A 
HETATM   10  C11 UNL     1      20.868   1.226  51.967  1.00  0.00     0.081 A 
HETATM   11  C18 UNL     1      21.396   0.341  52.892  1.00  0.00     0.010 A 
HETATM   12  C19 UNL     1      20.666  -0.533  53.682  1.00  0.00     0.015 A 
HETATM   13  C20 UNL     1      21.195  -1.407  54.595  1.00  0.00     0.001 A 
HETATM   14  C21 UNL     1      22.558  -1.438  54.760  1.00  0.00     0.001 A 
HETATM   15  C22 UNL     1      23.361  -0.602  54.013  1.00  0.00     0.015 A 
HETATM   16  C23 UNL     1      22.772   0.256  53.111  1.00  0.00     0.012 A 
HETATM   17  C24 UNL     1      24.127   2.662  50.869  1.00  0.00     0.061 A 
HETATM   18  C25 UNL     1      24.189   3.715  49.835  1.00  0.00     0.171 C 
HETATM   19  O4  UNL     1      23.158   3.886  49.113  1.00  0.00    -0.291 OA
ENDROOT
BRANCH  10  20
HETATM   20  O3  UNL     1      19.494   1.128  51.928  1.00  0.00    -0.349 OA
BRANCH  20  21
HETATM   21  C12 UNL     1      18.672   1.312  50.794  1.00  0.00     0.195 C 
BRANCH  21  22
HETATM   22  C13 UNL     1      18.045   2.677  50.939  1.00  0.00     0.143 C 
BRANCH  22  23
HETATM   23  N1  UNL     1      16.779   2.747  51.523  1.00  0.00    -0.415 N 
HETATM   24  C14 UNL     1      15.925   1.630  51.513  1.00  0.00     0.143 C 
BRANCH  23  25
HETATM   25  C15 UNL     1      16.253   4.008  51.889  1.00  0.00     0.116 C 
BRANCH  25  26
HETATM   26  C16 UNL     1      14.763   3.879  52.232  1.00  0.00     0.015 C 
HETATM   27  C17 UNL     1      14.477   4.393  53.610  1.00  0.00     0.006 C 
ENDBRANCH  25  26
ENDBRANCH  23  25
ENDBRANCH  22  23
ENDBRANCH  21  22
ENDBRANCH  20  21
ENDBRANCH  10  20
BRANCH   1  28
HETATM   28  C3  UNL     1      25.583   5.447  48.785  1.00  0.00    -0.018 C 
HETATM   29  C2  UNL     1      25.433   6.747  49.095  1.00  0.00    -0.034 C 
HETATM   30  C1  UNL     1      25.204   7.101  50.535  1.00  0.00     0.036 C 
ENDBRANCH   1  28
TORSDOF 7
ENDMDL
MODEL 4
REMARK VINA RESULT:      -8.0      2.011      3.694
REMARK  7 active torsions:
REMARK  status: ('A' for Active; 'I' for Inactive)
REMARK    1  A    between atoms: C3_3  and  C4_4 
REMARK    2  A    between atoms: C11_13  and  O3_14 
REMARK    3  A    between atoms: O3_14  and  C12_15 
REMARK    4  A    between atoms: C12_15  and  C13_16 
REMARK    5  A    between atoms: C13_16  and  N1_17 
REMARK    6  A    between atoms: N1_17  and  C15_19 
REMARK    7  A    between atoms: C15_19  and  C16_20 
ROOT
HETATM    1  C4  UNL     1      25.406   6.459  49.580  1.00  0.00     0.090 C 
HETATM    2  C5  UNL     1      26.108   5.803  48.437  1.00  0.00     0.102 C 
HETATM    3  C6  UNL     1      27.075   4.821  49.047  1.00  0.00     0.185 C 
HETATM    4  O1  UNL     1      28.294   4.790  48.823  1.00  0.00    -0.290 OA
HETATM    5  C7  UNL     1      26.425   3.869  49.966  1.00  0.00     0.136 A 
HETATM    6  O2  UNL     1      26.824   2.698  50.408  1.00  0.00    -0.304 OA
HETATM    7  C8  UNL     1      25.947   2.161  51.219  1.00  0.00     0.098 A 
HETATM    8  C9  UNL     1      24.889   3.073  51.304  1.00  0.00     0.018 A 
HETATM    9  C10 UNL     1      23.776   2.835  52.081  1.00  0.00     0.053 A 
HETATM   10  C11 UNL     1      23.676   1.666  52.807  1.00  0.00     0.081 A 
HETATM   11  C18 UNL     1      24.715   0.754  52.733  1.00  0.00     0.010 A 
HETATM   12  C19 UNL     1      24.771  -0.462  53.396  1.00  0.00     0.015 A 
HETATM   13  C20 UNL     1      25.801  -1.361  53.318  1.00  0.00     0.001 A 
HETATM   14  C21 UNL     1      26.880  -1.055  52.524  1.00  0.00     0.001 A 
HETATM   15  C22 UNL     1      26.906   0.134  51.827  1.00  0.00     0.015 A 
HETATM   16  C23 UNL     1      25.841   0.999  51.945  1.00  0.00     0.012 A 
HETATM   17  C24 UNL     1      25.178   4.182  50.503  1.00  0.00     0.061 A 
HETATM   18  C25 UNL     1      24.475   5.442  50.185  1.00  0.00     0.171 C 
HETATM   19  O4  UNL     1      23.235   5.502  50.450  1.00  0.00    -0.291 OA
ENDROOT
BRANCH  10  20
HETATM   20  O3  UNL     1      22.681   1.205  53.641  1.00  0.00    -0.349 OA
BRANCH  20  21
HETATM   21  C12 UNL     1      21.536   0.474  53.257  1.00  0.00     0.195 C 
BRANCH  21  22
HETATM   22  C13 UNL     1      20.518   1.487  52.793  1.00  0.00     0.143 C 
BRANCH  22  23
HETATM   23  N1  UNL     1      19.953   1.303  51.529  1.00  0.00    -0.415 N 
HETATM   24  C14 UNL     1      19.002   0.291  51.313  1.00  0.00     0.143 C 
BRANCH  23  25
HETATM   25  C15 UNL     1      20.525   1.956  50.412  1.00  0.00     0.116 C 
BRANCH  25  26
HETATM   26  C16 UNL     1      21.537   1.032  49.722  1.00  0.00     0.015 C 
HETATM   27  C17 UNL     1      21.813   1.481  48.319  1.00  0.00     0.006 C 
ENDBRANCH  25  26
ENDBRANCH  23  25
ENDBRANCH  22  23
ENDBRANCH  21  22
ENDBRANCH  20  21
ENDBRANCH  10  20
BRANCH   1  28
HETATM   28  C3  UNL     1      24.693   7.702  49.243  1.00  0.00    -0.018 C 
HETATM   29  C2  UNL     1      25.245   8.900  49.507  1.00  0.00    -0.034 C 
HETATM   30  C1  UNL     1      26.601   8.919  50.150  1.00  0.00     0.036 C 
ENDBRANCH   1  28
TORSDOF 7
ENDMDL
MODEL 5
REMARK VINA RESULT:      -7.9      2.590      5.098
REMARK  7 active torsions:
REMARK  status: ('A' for Active; 'I' for Inactive)
REMARK    1  A    between atoms: C3_3  and  C4_4 
REMARK    2  A    between atoms: C11_13  and  O3_14 
REMARK    3  A    between atoms: O3_14  and  C12_15 
REMARK    4  A    between atoms: C12_15  and  C13_16 
REMARK    5  A    between atoms: C13_16  and  N1_17 
REMARK    6  A    between atoms: N1_17  and  C15_19 
REMARK    7  A    between atoms: C15_19  and  C16_20 
ROOT
HETATM    1  C4  UNL     1      26.369   1.058  53.249  1.00  0.00     0.090 C 
HETATM    2  C5  UNL     1      26.452  -0.394  53.585  1.00  0.00     0.102 C 
HETATM    3  C6  UNL     1      25.205  -0.714  54.369  1.00  0.00     0.185 C 
HETATM    4  O1  UNL     1      25.186  -1.235  55.494  1.00  0.00    -0.290 OA
HETATM    5  C7  UNL     1      23.968  -0.342  53.659  1.00  0.00     0.136 A 
HETATM    6  O2  UNL     1      22.729  -0.747  53.827  1.00  0.00    -0.304 OA
HETATM    7  C8  UNL     1      21.911  -0.170  52.984  1.00  0.00     0.098 A 
HETATM    8  C9  UNL     1      22.698   0.685  52.205  1.00  0.00     0.018 A 
HETATM    9  C10 UNL     1      22.163   1.464  51.201  1.00  0.00     0.053 A 
HETATM   10  C11 UNL     1      20.809   1.418  50.936  1.00  0.00     0.081 A 
HETATM   11  C18 UNL     1      20.018   0.576  51.700  1.00  0.00     0.010 A 
HETATM   12  C19 UNL     1      18.648   0.412  51.563  1.00  0.00     0.015 A 
HETATM   13  C20 UNL     1      17.870  -0.423  52.321  1.00  0.00     0.001 A 
HETATM   14  C21 UNL     1      18.473  -1.169  53.304  1.00  0.00     0.001 A 
HETATM   15  C22 UNL     1      19.833  -1.068  53.508  1.00  0.00     0.015 A 
HETATM   16  C23 UNL     1      20.563  -0.211  52.715  1.00  0.00     0.012 A 
HETATM   17  C24 UNL     1      24.028   0.589  52.624  1.00  0.00     0.061 A 
HETATM   18  C25 UNL     1      25.295   1.223  52.206  1.00  0.00     0.171 C 
HETATM   19  O4  UNL     1      25.315   1.798  51.073  1.00  0.00    -0.291 OA
ENDROOT
BRANCH  10  20
HETATM   20  O3  UNL     1      20.050   2.087  50.002  1.00  0.00    -0.349 OA
BRANCH  20  21
HETATM   21  C12 UNL     1      20.531   2.955  48.997  1.00  0.00     0.195 C 
BRANCH  21  22
HETATM   22  C13 UNL     1      20.605   4.328  49.618  1.00  0.00     0.143 C 
BRANCH  22  23
HETATM   23  N1  UNL     1      21.872   4.882  49.811  1.00  0.00    -0.415 N 
HETATM   24  C14 UNL     1      22.965   4.449  49.040  1.00  0.00     0.143 C 
BRANCH  23  25
HETATM   25  C15 UNL     1      22.112   5.683  50.952  1.00  0.00     0.116 C 
BRANCH  25  26
HETATM   26  C16 UNL     1      22.090   4.817  52.218  1.00  0.00     0.015 C 
HETATM   27  C17 UNL     1      23.478   4.556  52.722  1.00  0.00     0.006 C 
ENDBRANCH  25  26
ENDBRANCH  23  25
ENDBRANCH  22  23
ENDBRANCH  21  22
ENDBRANCH  20  21
ENDBRANCH  10  20
BRANCH   1  28
HETATM   28  C3  UNL     1      27.634   1.672  52.814  1.00  0.00    -0.018 C 
HETATM   29  C2  UNL     1      28.748   1.544  53.557  1.00  0.00    -0.034 C 
HETATM   30  C1  UNL     1      28.650   0.760  54.834  1.00  0.00     0.036 C 
ENDBRANCH   1  28
TORSDOF 7
ENDMDL
MODEL 6
REMARK VINA RESULT:      -7.9      2.949      7.277
REMARK  7 active torsions:
REMARK  status: ('A' for Active; 'I' for Inactive)
REMARK    1  A    between atoms: C3_3  and  C4_4 
REMARK    2  A    between atoms: C11_13  and  O3_14 
REMARK    3  A    between atoms: O3_14  and  C12_15 
REMARK    4  A    between atoms: C12_15  and  C13_16 
REMARK    5  A    between atoms: C13_16  and  N1_17 
REMARK    6  A    between atoms: N1_17  and  C15_19 
REMARK    7  A    between atoms: C15_19  and  C16_20 
ROOT
HETATM    1  C4  UNL     1      23.579   1.296  52.293  1.00  0.00     0.090 C 
HETATM    2  C5  UNL     1      24.886   1.052  52.973  1.00  0.00     0.102 C 
HETATM    3  C6  UNL     1      25.940   1.151  51.901  1.00  0.00     0.185 C 
HETATM    4  O1  UNL     1      26.777   0.274  51.642  1.00  0.00    -0.290 OA
HETATM    5  C7  UNL     1      25.889   2.424  51.160  1.00  0.00     0.136 A 
HETATM    6  O2  UNL     1      26.799   3.025  50.426  1.00  0.00    -0.304 OA
HETATM    7  C8  UNL     1      26.356   4.154  49.932  1.00  0.00     0.098 A 
HETATM    8  C9  UNL     1      25.041   4.288  50.392  1.00  0.00     0.018 A 
HETATM    9  C10 UNL     1      24.257   5.373  50.064  1.00  0.00     0.053 A 
HETATM   10  C11 UNL     1      24.761   6.374  49.259  1.00  0.00     0.081 A 
HETATM   11  C18 UNL     1      26.060   6.254  48.796  1.00  0.00     0.010 A 
HETATM   12  C19 UNL     1      26.715   7.166  47.982  1.00  0.00     0.015 A 
HETATM   13  C20 UNL     1      28.002   7.043  47.528  1.00  0.00     0.001 A 
HETATM   14  C21 UNL     1      28.723   5.934  47.895  1.00  0.00     0.001 A 
HETATM   15  C22 UNL     1      28.150   4.976  48.705  1.00  0.00     0.015 A 
HETATM   16  C23 UNL     1      26.852   5.154  49.130  1.00  0.00     0.012 A 
HETATM   17  C24 UNL     1      24.721   3.183  51.185  1.00  0.00     0.061 A 
HETATM   18  C25 UNL     1      23.520   2.757  51.933  1.00  0.00     0.171 C 
HETATM   19  O4  UNL     1      22.635   3.638  52.167  1.00  0.00    -0.291 OA
ENDROOT
BRANCH  10  20
HETATM   20  O3  UNL     1      24.185   7.537  48.800  1.00  0.00    -0.349 OA
BRANCH  20  21
HETATM   21  C12 UNL     1      22.814   7.874  48.857  1.00  0.00     0.195 C 
BRANCH  21  22
HETATM   22  C13 UNL     1      22.130   7.060  47.788  1.00  0.00     0.143 C 
BRANCH  22  23
HETATM   23  N1  UNL     1      21.183   6.119  48.199  1.00  0.00    -0.415 N 
HETATM   24  C14 UNL     1      20.609   6.197  49.480  1.00  0.00     0.143 C 
BRANCH  23  25
HETATM   25  C15 UNL     1      20.995   4.943  47.435  1.00  0.00     0.116 C 
BRANCH  25  26
HETATM   26  C16 UNL     1      22.325   4.195  47.284  1.00  0.00     0.015 C 
HETATM   27  C17 UNL     1      22.326   2.924  48.078  1.00  0.00     0.006 C 
ENDBRANCH  25  26
ENDBRANCH  23  25
ENDBRANCH  22  23
ENDBRANCH  21  22
ENDBRANCH  20  21
ENDBRANCH  10  20
BRANCH   1  28
HETATM   28  C3  UNL     1      22.391   0.886  53.059  1.00  0.00    -0.018 C 
HETATM   29  C2  UNL     1      21.306   0.398  52.431  1.00  0.00    -0.034 C 
HETATM   30  C1  UNL     1      21.355   0.289  50.934  1.00  0.00     0.036 C 
ENDBRANCH   1  28
TORSDOF 7
ENDMDL
MODEL 7
REMARK VINA RESULT:      -7.8      2.782      6.284
REMARK  7 active torsions:
REMARK  status: ('A' for Active; 'I' for Inactive)
REMARK    1  A    between atoms: C3_3  and  C4_4 
REMARK    2  A    between atoms: C11_13  and  O3_14 
REMARK    3  A    between atoms: O3_14  and  C12_15 
REMARK    4  A    between atoms: C12_15  and  C13_16 
REMARK    5  A    between atoms: C13_16  and  N1_17 
REMARK    6  A    between atoms: N1_17  and  C15_19 
REMARK    7  A    between atoms: C15_19  and  C16_20 
ROOT
HETATM    1  C4  UNL     1      27.332   0.990  53.981  1.00  0.00     0.090 C 
HETATM    2  C5  UNL     1      27.123  -0.437  54.367  1.00  0.00     0.102 C 
HETATM    3  C6  UNL     1      25.698  -0.537  54.846  1.00  0.00     0.185 C 
HETATM    4  O1  UNL     1      25.347  -0.981  55.949  1.00  0.00    -0.290 OA
HETATM    5  C7  UNL     1      24.723  -0.044  53.857  1.00  0.00     0.136 A 
HETATM    6  O2  UNL     1      23.433  -0.266  53.742  1.00  0.00    -0.304 OA
HETATM    7  C8  UNL     1      22.922   0.365  52.715  1.00  0.00     0.098 A 
HETATM    8  C9  UNL     1      23.982   1.056  52.118  1.00  0.00     0.018 A 
HETATM    9  C10 UNL     1      23.808   1.839  50.997  1.00  0.00     0.053 A 
HETATM   10  C11 UNL     1      22.559   1.960  50.424  1.00  0.00     0.081 A 
HETATM   11  C18 UNL     1      21.500   1.282  51.003  1.00  0.00     0.010 A 
HETATM   12  C19 UNL     1      20.189   1.297  50.555  1.00  0.00     0.015 A 
HETATM   13  C20 UNL     1      19.145   0.624  51.132  1.00  0.00     0.001 A 
HETATM   14  C21 UNL     1      19.393  -0.137  52.249  1.00  0.00     0.001 A 
HETATM   15  C22 UNL     1      20.670  -0.209  52.763  1.00  0.00     0.015 A 
HETATM   16  C23 UNL     1      21.679   0.490  52.140  1.00  0.00     0.012 A 
HETATM   17  C24 UNL     1      25.152   0.806  52.839  1.00  0.00     0.061 A 
HETATM   18  C25 UNL     1      26.560   1.235  52.712  1.00  0.00     0.171 C 
HETATM   19  O4  UNL     1      26.921   1.732  51.600  1.00  0.00    -0.291 OA
ENDROOT
BRANCH  10  20
HETATM   20  O3  UNL     1      22.139   2.669  49.320  1.00  0.00    -0.349 OA
BRANCH  20  21
HETATM   21  C12 UNL     1      22.954   3.419  48.445  1.00  0.00     0.195 C 
BRANCH  21  22
HETATM   22  C13 UNL     1      22.969   4.830  48.979  1.00  0.00     0.143 C 
BRANCH  22  23
HETATM   23  N1  UNL     1      24.086   5.231  49.716  1.00  0.00    -0.415 N 
HETATM   24  C14 UNL     1      23.964   5.555  51.078  1.00  0.00     0.143 C 
BRANCH  23  25
HETATM   25  C15 UNL     1      25.282   5.562  49.037  1.00  0.00     0.116 C 
BRANCH  25  26
HETATM   26  C16 UNL     1      26.361   4.512  49.327  1.00  0.00     0.015 C 
HETATM   27  C17 UNL     1      27.654   4.861  48.654  1.00  0.00     0.006 C 
ENDBRANCH  25  26
ENDBRANCH  23  25
ENDBRANCH  22  23
ENDBRANCH  21  22
ENDBRANCH  20  21
ENDBRANCH  10  20
BRANCH   1  28
HETATM   28  C3  UNL     1      28.739   1.398  53.838  1.00  0.00    -0.018 C 
HETATM   29  C2  UNL     1      29.688   0.491  53.541  1.00  0.00    -0.034 C 
HETATM   30  C1  UNL     1      29.260  -0.936  53.364  1.00  0.00     0.036 C 
ENDBRANCH   1  28
TORSDOF 7
ENDMDL
MODEL 8
REMARK VINA RESULT:      -7.7      6.097     10.290
REMARK  7 active torsions:
REMARK  status: ('A' for Active; 'I' for Inactive)
REMARK    1  A    between atoms: C3_3  and  C4_4 
REMARK    2  A    between atoms: C11_13  and  O3_14 
REMARK    3  A    between atoms: O3_14  and  C12_15 
REMARK    4  A    between atoms: C12_15  and  C13_16 
REMARK    5  A    between atoms: C13_16  and  N1_17 
REMARK    6  A    between atoms: N1_17  and  C15_19 
REMARK    7  A    between atoms: C15_19  and  C16_20 
ROOT
HETATM    1  C4  UNL     1      34.268   4.964  47.672  1.00  0.00     0.090 C 
HETATM    2  C5  UNL     1      34.917   5.808  48.720  1.00  0.00     0.102 C 
HETATM    3  C6  UNL     1      34.398   7.207  48.511  1.00  0.00     0.185 C 
HETATM    4  O1  UNL     1      35.105   8.211  48.346  1.00  0.00    -0.290 OA
HETATM    5  C7  UNL     1      32.925   7.282  48.521  1.00  0.00     0.136 A 
HETATM    6  O2  UNL     1      32.121   8.303  48.715  1.00  0.00    -0.304 OA
HETATM    7  C8  UNL     1      30.862   7.949  48.643  1.00  0.00     0.098 A 
HETATM    8  C9  UNL     1      30.861   6.576  48.377  1.00  0.00     0.018 A 
HETATM    9  C10 UNL     1      29.693   5.858  48.233  1.00  0.00     0.053 A 
HETATM   10  C11 UNL     1      28.472   6.491  48.352  1.00  0.00     0.081 A 
HETATM   11  C18 UNL     1      28.458   7.850  48.615  1.00  0.00     0.010 A 
HETATM   12  C19 UNL     1      27.324   8.632  48.763  1.00  0.00     0.015 A 
HETATM   13  C20 UNL     1      27.316   9.977  49.024  1.00  0.00     0.001 A 
HETATM   14  C21 UNL     1      28.519  10.627  49.153  1.00  0.00     0.001 A 
HETATM   15  C22 UNL     1      29.699   9.924  49.022  1.00  0.00     0.015 A 
HETATM   16  C23 UNL     1      29.643   8.574  48.759  1.00  0.00     0.012 A 
HETATM   17  C24 UNL     1      32.181   6.126  48.294  1.00  0.00     0.061 A 
HETATM   18  C25 UNL     1      32.816   4.816  48.043  1.00  0.00     0.171 C 
HETATM   19  O4  UNL     1      32.090   3.781  48.167  1.00  0.00    -0.291 OA
ENDROOT
BRANCH  10  20
HETATM   20  O3  UNL     1      27.189   6.000  48.253  1.00  0.00    -0.349 OA
BRANCH  20  21
HETATM   21  C12 UNL     1      26.655   4.899  48.959  1.00  0.00     0.195 C 
BRANCH  21  22
HETATM   22  C13 UNL     1      25.640   5.462  49.922  1.00  0.00     0.143 C 
BRANCH  22  23
HETATM   23  N1  UNL     1      24.414   4.801  50.028  1.00  0.00    -0.415 N 
HETATM   24  C14 UNL     1      23.842   4.556  51.289  1.00  0.00     0.143 C 
BRANCH  23  25
HETATM   25  C15 UNL     1      23.877   4.148  48.894  1.00  0.00     0.116 C 
BRANCH  25  26
HETATM   26  C16 UNL     1      23.255   2.807  49.303  1.00  0.00     0.015 C 
HETATM   27  C17 UNL     1      22.409   2.243  48.202  1.00  0.00     0.006 C 
ENDBRANCH  25  26
ENDBRANCH  23  25
ENDBRANCH  22  23
ENDBRANCH  21  22
ENDBRANCH  20  21
ENDBRANCH  10  20
BRANCH   1  28
HETATM   28  C3  UNL     1      34.899   3.653  47.448  1.00  0.00    -0.018 C 
HETATM   29  C2  UNL     1      35.158   3.223  46.199  1.00  0.00    -0.034 C 
HETATM   30  C1  UNL     1      34.783   4.123  45.058  1.00  0.00     0.036 C 
ENDBRANCH   1  28
TORSDOF 7
ENDMDL
MODEL 9
REMARK VINA RESULT:      -7.6      2.770      8.354
REMARK  7 active torsions:
REMARK  status: ('A' for Active; 'I' for Inactive)
REMARK    1  A    between atoms: C3_3  and  C4_4 
REMARK    2  A    between atoms: C11_13  and  O3_14 
REMARK    3  A    between atoms: O3_14  and  C12_15 
REMARK    4  A    between atoms: C12_15  and  C13_16 
REMARK    5  A    between atoms: C13_16  and  N1_17 
REMARK    6  A    between atoms: N1_17  and  C15_19 
REMARK    7  A    between atoms: C15_19  and  C16_20 
ROOT
HETATM    1  C4  UNL     1      16.831   0.022  51.716  1.00  0.00     0.090 C 
HETATM    2  C5  UNL     1      16.759  -0.147  50.234  1.00  0.00     0.102 C 
HETATM    3  C6  UNL     1      17.521   1.012  49.643  1.00  0.00     0.185 C 
HETATM    4  O1  UNL     1      17.068   1.810  48.810  1.00  0.00    -0.290 OA
HETATM    5  C7  UNL     1      18.897   1.117  50.159  1.00  0.00     0.136 A 
HETATM    6  O2  UNL     1      19.949   1.735  49.671  1.00  0.00    -0.304 OA
HETATM    7  C8  UNL     1      20.999   1.587  50.440  1.00  0.00     0.098 A 
HETATM    8  C9  UNL     1      20.580   0.803  51.520  1.00  0.00     0.018 A 
HETATM    9  C10 UNL     1      21.434   0.444  52.540  1.00  0.00     0.053 A 
HETATM   10  C11 UNL     1      22.751   0.857  52.519  1.00  0.00     0.081 A 
HETATM   11  C18 UNL     1      23.179   1.634  51.456  1.00  0.00     0.010 A 
HETATM   12  C19 UNL     1      24.463   2.129  51.284  1.00  0.00     0.015 A 
HETATM   13  C20 UNL     1      24.882   2.896  50.230  1.00  0.00     0.001 A 
HETATM   14  C21 UNL     1      23.974   3.216  49.250  1.00  0.00     0.001 A 
HETATM   15  C22 UNL     1      22.674   2.764  49.341  1.00  0.00     0.015 A 
HETATM   16  C23 UNL     1      22.312   1.996  50.425  1.00  0.00     0.012 A 
HETATM   17  C24 UNL     1      19.228   0.489  51.358  1.00  0.00     0.061 A 
HETATM   18  C25 UNL     1      18.243  -0.286  52.140  1.00  0.00     0.171 C 
HETATM   19  O4  UNL     1      18.693  -1.076  53.027  1.00  0.00    -0.291 OA
ENDROOT
BRANCH  10  20
HETATM   20  O3  UNL     1      23.781   0.631  53.405  1.00  0.00    -0.349 OA
BRANCH  20  21
HETATM   21  C12 UNL     1      24.240  -0.626  53.855  1.00  0.00     0.195 C 
BRANCH  21  22
HETATM   22  C13 UNL     1      25.710  -0.462  54.152  1.00  0.00     0.143 C 
BRANCH  22  23
HETATM   23  N1  UNL     1      26.605  -0.619  53.090  1.00  0.00    -0.415 N 
HETATM   24  C14 UNL     1      26.948  -1.902  52.631  1.00  0.00     0.143 C 
BRANCH  23  25
HETATM   25  C15 UNL     1      27.364   0.492  52.652  1.00  0.00     0.116 C 
BRANCH  25  26
HETATM   26  C16 UNL     1      27.473   1.531  53.775  1.00  0.00     0.015 C 
HETATM   27  C17 UNL     1      28.627   2.460  53.544  1.00  0.00     0.006 C 
ENDBRANCH  25  26
ENDBRANCH  23  25
ENDBRANCH  22  23
ENDBRANCH  21  22
ENDBRANCH  20  21
ENDBRANCH  10  20
BRANCH   1  28
HETATM   28  C3  UNL     1      15.858  -0.772  52.482  1.00  0.00    -0.018 C 
HETATM   29  C2  UNL     1      14.771  -0.190  53.020  1.00  0.00    -0.034 C 
HETATM   30  C1  UNL     1      14.592   1.285  52.810  1.00  0.00     0.036 C 
ENDBRANCH   1  28
TORSDOF 7
ENDMDL
