MODEL 1
REMARK VINA RESULT:      -7.0      0.000      0.000
REMARK  4 active torsions:
REMARK  status: ('A' for Active; 'I' for Inactive)
REMARK    1  A    between atoms: C2_2  and  C3_3 
REMARK    2  A    between atoms: C2_2  and  C4_5 
REMARK    3  A    between atoms: C3_3  and  O1_4 
REMARK    4  A    between atoms: C4_5  and  N1_6 
ROOT
HETATM    1  N1  UNL     1      25.523   3.082  51.536  1.00  0.00    -0.370 N 
HETATM    2  C5  UNL     1      24.300   3.630  51.699  1.00  0.00     0.231 A 
HETATM    3  N2  UNL     1      23.020   3.587  52.015  1.00  0.00     0.028 N 
HETATM    4  C6  UNL     1      22.295   2.529  52.410  1.00  0.00     0.192 A 
HETATM    5  C7  UNL     1      22.265   3.822  52.145  1.00  0.00     0.302 A 
HETATM    6  C8  UNL     1      22.199   5.097  51.892  1.00  0.00     0.066 A 
HETATM    7  C9  UNL     1      23.435   4.652  51.684  1.00  0.00     0.248 A 
HETATM    8  C10 UNL     1      24.289   5.448  50.980  1.00  0.00     0.007 C 
HETATM    9  C11 UNL     1      23.410   5.717  49.780  1.00  0.00     0.053 C 
HETATM   10  C12 UNL     1      22.712   4.536  49.212  1.00  0.00     0.279 C 
HETATM   11  N3  UNL     1      23.472   3.335  49.163  1.00  0.00     0.084 N 
HETATM   12  C13 UNL     1      22.671   2.133  48.902  1.00  0.00     0.270 C 
HETATM   13  C14 UNL     1      21.817   1.781  50.089  1.00  0.00     0.036 C 
HETATM   14  C15 UNL     1      22.530   1.215  51.275  1.00  0.00     0.068 A 
HETATM   15  C16 UNL     1      21.731   1.403  52.536  1.00  0.00    -0.008 A 
HETATM   16  C17 UNL     1      22.348   6.751  50.257  1.00  0.00     0.129 C 
HETATM   17  N4  UNL     1      22.022   6.433  51.651  1.00  0.00    -0.391 N 
HETATM   18  H10 UNL     1      25.778   4.061  51.294  1.00  0.00     0.160 HD
HETATM   19  H16 UNL     1      24.282   3.398  48.542  1.00  0.00     0.315 HD
HETATM   20  H26 UNL     1      21.698   7.111  52.374  1.00  0.00     0.159 HD
ENDROOT
BRANCH   1  21
HETATM   21  C4  UNL     1      26.773   2.507  51.371  1.00  0.00     0.127 C 
BRANCH  21  22
HETATM   22  C2  UNL     1      27.078   1.400  52.381  1.00  0.00     0.023 C 
HETATM   23  C1  UNL     1      26.103   0.288  52.071  1.00  0.00     0.014 C 
BRANCH  22  24
HETATM   24  C3  UNL     1      26.744   1.854  53.802  1.00  0.00     0.170 C 
BRANCH  24  25
HETATM   25  O1  UNL     1      27.624   2.904  54.070  1.00  0.00    -0.400 OA
HETATM   26  H7  UNL     1      27.148   3.652  54.511  1.00  0.00     0.209 HD
ENDBRANCH  24  25
ENDBRANCH  22  24
ENDBRANCH  21  22
ENDBRANCH   1  21
TORSDOF 4
ENDMDL
MODEL 2
REMARK VINA RESULT:      -6.7      1.545      3.767
REMARK  4 active torsions:
REMARK  status: ('A' for Active; 'I' for Inactive)
REMARK    1  A    between atoms: C2_2  and  C3_3 
REMARK    2  A    between atoms: C2_2  and  C4_5 
REMARK    3  A    between atoms: C3_3  and  O1_4 
REMARK    4  A    between atoms: C4_5  and  N1_6 
ROOT
HETATM    1  N1  UNL     1      24.333   1.385  51.722  1.00  0.00    -0.370 N 
HETATM    2  C5  UNL     1      23.501   1.794  50.741  1.00  0.00     0.231 A 
HETATM    3  N2  UNL     1      23.148   2.584  49.745  1.00  0.00     0.028 N 
HETATM    4  C6  UNL     1      23.804   3.645  49.252  1.00  0.00     0.192 A 
HETATM    5  C7  UNL     1      22.723   2.895  49.142  1.00  0.00     0.302 A 
HETATM    6  C8  UNL     1      21.646   2.179  49.004  1.00  0.00     0.066 A 
HETATM    7  C9  UNL     1      22.386   1.707  50.003  1.00  0.00     0.248 A 
HETATM    8  C10 UNL     1      21.804   0.832  50.871  1.00  0.00     0.007 C 
HETATM    9  C11 UNL     1      20.570   1.638  51.210  1.00  0.00     0.053 C 
HETATM   10  C12 UNL     1      20.797   3.076  51.501  1.00  0.00     0.279 C 
HETATM   11  N3  UNL     1      21.957   3.374  52.267  1.00  0.00     0.084 N 
HETATM   12  C13 UNL     1      22.323   4.796  52.266  1.00  0.00     0.270 C 
HETATM   13  C14 UNL     1      22.854   5.219  50.924  1.00  0.00     0.036 C 
HETATM   14  C15 UNL     1      24.221   4.727  50.566  1.00  0.00     0.068 A 
HETATM   15  C16 UNL     1      24.432   4.731  49.077  1.00  0.00    -0.008 A 
HETATM   16  C17 UNL     1      19.633   1.514  49.972  1.00  0.00     0.129 C 
HETATM   17  N4  UNL     1      20.483   1.492  48.778  1.00  0.00    -0.391 N 
HETATM   18  H10 UNL     1      23.613   0.643  51.836  1.00  0.00     0.160 HD
HETATM   19  H16 UNL     1      21.924   2.988  53.213  1.00  0.00     0.315 HD
HETATM   20  H26 UNL     1      20.256   1.026  47.873  1.00  0.00     0.159 HD
ENDROOT
BRANCH   1  21
HETATM   21  C4  UNL     1      25.197   0.976  52.726  1.00  0.00     0.127 C 
BRANCH  21  22
HETATM   22  C2  UNL     1      26.630   0.742  52.245  1.00  0.00     0.023 C 
HETATM   23  C1  UNL     1      27.156  -0.403  53.080  1.00  0.00     0.014 C 
BRANCH  22  24
HETATM   24  C3  UNL     1      27.519   1.938  52.586  1.00  0.00     0.170 C 
BRANCH  24  25
HETATM   25  O1  UNL     1      27.217   2.907  51.627  1.00  0.00    -0.400 OA
HETATM   26  H7  UNL     1      27.723   2.741  50.793  1.00  0.00     0.209 HD
ENDBRANCH  24  25
ENDBRANCH  22  24
ENDBRANCH  21  22
ENDBRANCH   1  21
TORSDOF 4
ENDMDL
MODEL 3
REMARK VINA RESULT:      -6.5      9.447     11.817
REMARK  4 active torsions:
REMARK  status: ('A' for Active; 'I' for Inactive)
REMARK    1  A    between atoms: C2_2  and  C3_3 
REMARK    2  A    between atoms: C2_2  and  C4_5 
REMARK    3  A    between atoms: C3_3  and  O1_4 
REMARK    4  A    between atoms: C4_5  and  N1_6 
ROOT
HETATM    1  N1  UNL     1      32.479   6.208  44.603  1.00  0.00    -0.370 N 
HETATM    2  C5  UNL     1      32.385   5.602  45.806  1.00  0.00     0.231 A 
HETATM    3  N2  UNL     1      31.930   5.491  47.039  1.00  0.00     0.028 N 
HETATM    4  C6  UNL     1      31.098   6.313  47.697  1.00  0.00     0.192 A 
HETATM    5  C7  UNL     1      31.808   5.203  47.777  1.00  0.00     0.302 A 
HETATM    6  C8  UNL     1      32.495   4.104  47.891  1.00  0.00     0.066 A 
HETATM    7  C9  UNL     1      32.669   4.630  46.682  1.00  0.00     0.248 A 
HETATM    8  C10 UNL     1      33.706   4.167  45.928  1.00  0.00     0.007 C 
HETATM    9  C11 UNL     1      34.813   4.323  46.946  1.00  0.00     0.053 C 
HETATM   10  C12 UNL     1      34.831   5.609  47.689  1.00  0.00     0.279 C 
HETATM   11  N3  UNL     1      34.529   6.768  46.923  1.00  0.00     0.084 N 
HETATM   12  C13 UNL     1      34.244   7.959  47.732  1.00  0.00     0.270 C 
HETATM   13  C14 UNL     1      32.920   7.834  48.435  1.00  0.00     0.036 C 
HETATM   14  C15 UNL     1      31.700   7.955  47.579  1.00  0.00     0.068 A 
HETATM   15  C16 UNL     1      30.510   7.302  48.226  1.00  0.00    -0.008 A 
HETATM   16  C17 UNL     1      34.623   3.156  47.959  1.00  0.00     0.129 C 
HETATM   17  N4  UNL     1      33.181   2.940  48.114  1.00  0.00    -0.391 N 
HETATM   18  H10 UNL     1      33.086   5.390  44.392  1.00  0.00     0.160 HD
HETATM   19  H16 UNL     1      35.220   6.957  46.193  1.00  0.00     0.315 HD
HETATM   20  H26 UNL     1      32.720   2.038  48.360  1.00  0.00     0.159 HD
ENDROOT
BRANCH   1  21
HETATM   21  C4  UNL     1      32.567   6.840  43.373  1.00  0.00     0.127 C 
BRANCH  21  22
HETATM   22  C2  UNL     1      33.611   6.224  42.440  1.00  0.00     0.023 C 
HETATM   23  C1  UNL     1      33.193   4.784  42.257  1.00  0.00     0.014 C 
BRANCH  22  24
HETATM   24  C3  UNL     1      34.981   6.170  43.117  1.00  0.00     0.170 C 
BRANCH  24  25
HETATM   25  O1  UNL     1      35.040   7.311  43.921  1.00  0.00    -0.400 OA
HETATM   26  H7  UNL     1      35.820   7.868  43.676  1.00  0.00     0.209 HD
ENDBRANCH  24  25
ENDBRANCH  22  24
ENDBRANCH  21  22
ENDBRANCH   1  21
TORSDOF 4
ENDMDL
MODEL 4
REMARK VINA RESULT:      -6.4      2.584      3.506
REMARK  4 active torsions:
REMARK  status: ('A' for Active; 'I' for Inactive)
REMARK    1  A    between atoms: C2_2  and  C3_3 
REMARK    2  A    between atoms: C2_2  and  C4_5 
REMARK    3  A    between atoms: C3_3  and  O1_4 
REMARK    4  A    between atoms: C4_5  and  N1_6 
ROOT
HETATM    1  N1  UNL     1      23.166   1.423  52.777  1.00  0.00    -0.370 N 
HETATM    2  C5  UNL     1      23.089   2.683  52.300  1.00  0.00     0.231 A 
HETATM    3  N2  UNL     1      22.434   3.766  51.925  1.00  0.00     0.028 N 
HETATM    4  C6  UNL     1      21.108   3.970  51.900  1.00  0.00     0.192 A 
HETATM    5  C7  UNL     1      22.290   4.506  51.655  1.00  0.00     0.302 A 
HETATM    6  C8  UNL     1      23.436   5.066  51.401  1.00  0.00     0.066 A 
HETATM    7  C9  UNL     1      23.620   3.827  51.847  1.00  0.00     0.248 A 
HETATM    8  C10 UNL     1      24.847   3.261  51.671  1.00  0.00     0.007 C 
HETATM    9  C11 UNL     1      25.007   3.524  50.191  1.00  0.00     0.053 C 
HETATM   10  C12 UNL     1      23.822   3.222  49.350  1.00  0.00     0.279 C 
HETATM   11  N3  UNL     1      23.106   2.042  49.693  1.00  0.00     0.084 N 
HETATM   12  C13 UNL     1      21.783   1.943  49.064  1.00  0.00     0.270 C 
HETATM   13  C14 UNL     1      20.824   2.939  49.657  1.00  0.00     0.036 C 
HETATM   14  C15 UNL     1      20.338   2.650  51.042  1.00  0.00     0.068 A 
HETATM   15  C16 UNL     1      19.856   3.900  51.725  1.00  0.00    -0.008 A 
HETATM   16  C17 UNL     1      25.345   5.039  50.065  1.00  0.00     0.129 C 
HETATM   17  N4  UNL     1      24.587   5.745  51.102  1.00  0.00    -0.391 N 
HETATM   18  H10 UNL     1      24.188   1.602  52.696  1.00  0.00     0.160 HD
HETATM   19  H16 UNL     1      23.655   1.189  49.567  1.00  0.00     0.315 HD
HETATM   20  H26 UNL     1      24.864   6.639  51.562  1.00  0.00     0.159 HD
ENDROOT
BRANCH   1  21
HETATM   21  C4  UNL     1      23.232   0.129  53.268  1.00  0.00     0.127 C 
BRANCH  21  22
HETATM   22  C2  UNL     1      21.869  -0.554  53.386  1.00  0.00     0.023 C 
HETATM   23  C1  UNL     1      20.961   0.463  54.037  1.00  0.00     0.014 C 
BRANCH  22  24
HETATM   24  C3  UNL     1      21.932  -1.730  54.360  1.00  0.00     0.170 C 
BRANCH  24  25
HETATM   25  O1  UNL     1      20.644  -1.841  54.888  1.00  0.00    -0.400 OA
HETATM   26  H7  UNL     1      20.387  -2.792  54.981  1.00  0.00     0.209 HD
ENDBRANCH  24  25
ENDBRANCH  22  24
ENDBRANCH  21  22
ENDBRANCH   1  21
TORSDOF 4
ENDMDL
MODEL 5
REMARK VINA RESULT:      -6.4      7.630      8.978
REMARK  4 active torsions:
REMARK  status: ('A' for Active; 'I' for Inactive)
REMARK    1  A    between atoms: C2_2  and  C3_3 
REMARK    2  A    between atoms: C2_2  and  C4_5 
REMARK    3  A    between atoms: C3_3  and  O1_4 
REMARK    4  A    between atoms: C4_5  and  N1_6 
ROOT
HETATM    1  N1  UNL     1      31.699   8.275  49.044  1.00  0.00    -0.370 N 
HETATM    2  C5  UNL     1      30.515   8.922  49.012  1.00  0.00     0.231 A 
HETATM    3  N2  UNL     1      29.201   8.975  48.902  1.00  0.00     0.028 N 
HETATM    4  C6  UNL     1      28.342   7.967  48.692  1.00  0.00     0.192 A 
HETATM    5  C7  UNL     1      28.456   9.270  48.874  1.00  0.00     0.302 A 
HETATM    6  C8  UNL     1      28.532  10.556  49.051  1.00  0.00     0.066 A 
HETATM    7  C9  UNL     1      29.747  10.018  49.082  1.00  0.00     0.248 A 
HETATM    8  C10 UNL     1      30.818  10.853  48.967  1.00  0.00     0.007 C 
HETATM    9  C11 UNL     1      30.393  11.597  47.722  1.00  0.00     0.053 C 
HETATM   10  C12 UNL     1      29.868  10.757  46.615  1.00  0.00     0.279 C 
HETATM   11  N3  UNL     1      30.550   9.528  46.397  1.00  0.00     0.084 N 
HETATM   12  C13 UNL     1      29.826   8.593  45.528  1.00  0.00     0.270 C 
HETATM   13  C14 UNL     1      28.617   8.030  46.222  1.00  0.00     0.036 C 
HETATM   14  C15 UNL     1      28.877   7.034  47.307  1.00  0.00     0.068 A 
HETATM   15  C16 UNL     1      27.719   6.951  48.264  1.00  0.00    -0.008 A 
HETATM   16  C17 UNL     1      29.279  12.584  48.180  1.00  0.00     0.129 C 
HETATM   17  N4  UNL     1      28.501  11.914  49.226  1.00  0.00    -0.391 N 
HETATM   18  H10 UNL     1      32.061   9.233  49.227  1.00  0.00     0.160 HD
HETATM   19  H16 UNL     1      31.520   9.655  46.101  1.00  0.00     0.315 HD
HETATM   20  H26 UNL     1      27.988  12.383  50.004  1.00  0.00     0.159 HD
ENDROOT
BRANCH   1  21
HETATM   21  C4  UNL     1      32.908   7.598  49.075  1.00  0.00     0.127 C 
BRANCH  21  22
HETATM   22  C2  UNL     1      32.833   6.180  48.506  1.00  0.00     0.023 C 
HETATM   23  C1  UNL     1      32.531   6.348  47.035  1.00  0.00     0.014 C 
BRANCH  22  24
HETATM   24  C3  UNL     1      31.637   5.424  49.086  1.00  0.00     0.170 C 
BRANCH  24  25
HETATM   25  O1  UNL     1      31.736   5.585  50.470  1.00  0.00    -0.400 OA
HETATM   26  H7  UNL     1      32.203   6.429  50.690  1.00  0.00     0.209 HD
ENDBRANCH  24  25
ENDBRANCH  22  24
ENDBRANCH  21  22
ENDBRANCH   1  21
TORSDOF 4
ENDMDL
MODEL 6
REMARK VINA RESULT:      -6.3      8.568     11.253
REMARK  4 active torsions:
REMARK  status: ('A' for Active; 'I' for Inactive)
REMARK    1  A    between atoms: C2_2  and  C3_3 
REMARK    2  A    between atoms: C2_2  and  C4_5 
REMARK    3  A    between atoms: C3_3  and  O1_4 
REMARK    4  A    between atoms: C4_5  and  N1_6 
ROOT
HETATM    1  N1  UNL     1      31.198   7.115  48.581  1.00  0.00    -0.370 N 
HETATM    2  C5  UNL     1      32.484   6.713  48.502  1.00  0.00     0.231 A 
HETATM    3  N2  UNL     1      33.774   6.916  48.317  1.00  0.00     0.028 N 
HETATM    4  C6  UNL     1      34.403   8.063  48.020  1.00  0.00     0.192 A 
HETATM    5  C7  UNL     1      34.560   6.773  48.256  1.00  0.00     0.302 A 
HETATM    6  C8  UNL     1      34.753   5.507  48.482  1.00  0.00     0.066 A 
HETATM    7  C9  UNL     1      33.458   5.796  48.566  1.00  0.00     0.248 A 
HETATM    8  C10 UNL     1      32.571   4.761  48.545  1.00  0.00     0.007 C 
HETATM    9  C11 UNL     1      33.072   4.058  47.304  1.00  0.00     0.053 C 
HETATM   10  C12 UNL     1      33.362   4.931  46.139  1.00  0.00     0.279 C 
HETATM   11  N3  UNL     1      32.438   5.990  45.917  1.00  0.00     0.084 N 
HETATM   12  C13 UNL     1      32.914   7.008  44.974  1.00  0.00     0.270 C 
HETATM   13  C14 UNL     1      34.021   7.831  45.575  1.00  0.00     0.036 C 
HETATM   14  C15 UNL     1      33.623   8.805  46.637  1.00  0.00     0.068 A 
HETATM   15  C16 UNL     1      34.787   9.161  47.520  1.00  0.00    -0.008 A 
HETATM   16  C17 UNL     1      34.383   3.332  47.731  1.00  0.00     0.129 C 
HETATM   17  N4  UNL     1      35.063   4.192  48.705  1.00  0.00    -0.391 N 
HETATM   18  H10 UNL     1      31.044   6.114  48.820  1.00  0.00     0.160 HD
HETATM   19  H16 UNL     1      31.499   5.660  45.684  1.00  0.00     0.315 HD
HETATM   20  H26 UNL     1      35.698   3.871  49.467  1.00  0.00     0.159 HD
ENDROOT
BRANCH   1  21
HETATM   21  C4  UNL     1      29.881   7.540  48.659  1.00  0.00     0.127 C 
BRANCH  21  22
HETATM   22  C2  UNL     1      28.967   6.904  47.610  1.00  0.00     0.023 C 
HETATM   23  C1  UNL     1      29.073   7.788  46.390  1.00  0.00     0.014 C 
BRANCH  22  24
HETATM   24  C3  UNL     1      27.503   6.981  48.045  1.00  0.00     0.170 C 
BRANCH  24  25
HETATM   25  O1  UNL     1      27.540   7.189  49.426  1.00  0.00    -0.400 OA
HETATM   26  H7  UNL     1      27.672   6.332  49.903  1.00  0.00     0.209 HD
ENDBRANCH  24  25
ENDBRANCH  22  24
ENDBRANCH  21  22
ENDBRANCH   1  21
TORSDOF 4
ENDMDL
MODEL 7
REMARK VINA RESULT:      -6.2      8.899     11.264
REMARK  4 active torsions:
REMARK  status: ('A' for Active; 'I' for Inactive)
REMARK    1  A    between atoms: C2_2  and  C3_3 
REMARK    2  A    between atoms: C2_2  and  C4_5 
REMARK    3  A    between atoms: C3_3  and  O1_4 
REMARK    4  A    between atoms: C4_5  and  N1_6 
ROOT
HETATM    1  N1  UNL     1      30.999   5.793  47.448  1.00  0.00    -0.370 N 
HETATM    2  C5  UNL     1      32.038   5.807  46.586  1.00  0.00     0.231 A 
HETATM    3  N2  UNL     1      33.071   5.262  45.973  1.00  0.00     0.028 N 
HETATM    4  C6  UNL     1      33.574   4.028  46.128  1.00  0.00     0.192 A 
HETATM    5  C7  UNL     1      33.701   5.175  45.486  1.00  0.00     0.302 A 
HETATM    6  C8  UNL     1      33.855   6.290  44.835  1.00  0.00     0.066 A 
HETATM    7  C9  UNL     1      32.822   6.385  45.666  1.00  0.00     0.248 A 
HETATM    8  C10 UNL     1      32.332   7.627  45.936  1.00  0.00     0.007 C 
HETATM    9  C11 UNL     1      33.628   8.304  46.320  1.00  0.00     0.053 C 
HETATM   10  C12 UNL     1      34.510   7.538  47.237  1.00  0.00     0.279 C 
HETATM   11  N3  UNL     1      33.850   6.833  48.281  1.00  0.00     0.084 N 
HETATM   12  C13 UNL     1      34.697   5.847  48.962  1.00  0.00     0.270 C 
HETATM   13  C14 UNL     1      34.983   4.668  48.073  1.00  0.00     0.036 C 
HETATM   14  C15 UNL     1      33.845   3.727  47.833  1.00  0.00     0.068 A 
HETATM   15  C16 UNL     1      34.045   2.938  46.568  1.00  0.00    -0.008 A 
HETATM   16  C17 UNL     1      34.385   8.555  44.983  1.00  0.00     0.129 C 
HETATM   17  N4  UNL     1      34.105   7.418  44.100  1.00  0.00    -0.391 N 
HETATM   18  H10 UNL     1      30.859   6.756  47.082  1.00  0.00     0.160 HD
HETATM   19  H16 UNL     1      33.371   7.449  48.942  1.00  0.00     0.315 HD
HETATM   20  H26 UNL     1      34.092   7.441  43.057  1.00  0.00     0.159 HD
ENDROOT
BRANCH   1  21
HETATM   21  C4  UNL     1      29.936   5.765  48.337  1.00  0.00     0.127 C 
BRANCH  21  22
HETATM   22  C2  UNL     1      29.215   7.107  48.474  1.00  0.00     0.023 C 
HETATM   23  C1  UNL     1      28.763   7.469  47.079  1.00  0.00     0.014 C 
BRANCH  22  24
HETATM   24  C3  UNL     1      30.191   8.209  48.887  1.00  0.00     0.170 C 
BRANCH  24  25
HETATM   25  O1  UNL     1      31.131   7.580  49.708  1.00  0.00    -0.400 OA
HETATM   26  H7  UNL     1      31.973   8.099  49.733  1.00  0.00     0.209 HD
ENDBRANCH  24  25
ENDBRANCH  22  24
ENDBRANCH  21  22
ENDBRANCH   1  21
TORSDOF 4
ENDMDL
MODEL 8
REMARK VINA RESULT:      -6.2      2.740      4.985
REMARK  4 active torsions:
REMARK  status: ('A' for Active; 'I' for Inactive)
REMARK    1  A    between atoms: C2_2  and  C3_3 
REMARK    2  A    between atoms: C2_2  and  C4_5 
REMARK    3  A    between atoms: C3_3  and  O1_4 
REMARK    4  A    between atoms: C4_5  and  N1_6 
ROOT
HETATM    1  N1  UNL     1      20.451   2.260  51.894  1.00  0.00    -0.370 N 
HETATM    2  C5  UNL     1      21.591   2.941  52.135  1.00  0.00     0.231 A 
HETATM    3  N2  UNL     1      22.335   4.031  52.144  1.00  0.00     0.028 N 
HETATM    4  C6  UNL     1      22.012   5.263  51.724  1.00  0.00     0.192 A 
HETATM    5  C7  UNL     1      22.962   4.517  52.256  1.00  0.00     0.302 A 
HETATM    6  C8  UNL     1      23.921   3.812  52.782  1.00  0.00     0.066 A 
HETATM    7  C9  UNL     1      22.854   3.047  52.568  1.00  0.00     0.248 A 
HETATM    8  C10 UNL     1      23.018   1.695  52.613  1.00  0.00     0.007 C 
HETATM    9  C11 UNL     1      24.189   1.578  51.663  1.00  0.00     0.053 C 
HETATM   10  C12 UNL     1      24.083   2.364  50.408  1.00  0.00     0.279 C 
HETATM   11  N3  UNL     1      22.797   2.388  49.802  1.00  0.00     0.084 N 
HETATM   12  C13 UNL     1      22.648   3.412  48.761  1.00  0.00     0.270 C 
HETATM   13  C14 UNL     1      22.614   4.792  49.359  1.00  0.00     0.036 C 
HETATM   14  C15 UNL     1      21.368   5.166  50.097  1.00  0.00     0.068 A 
HETATM   15  C16 UNL     1      21.623   6.279  51.075  1.00  0.00    -0.008 A 
HETATM   16  C17 UNL     1      25.432   2.067  52.463  1.00  0.00     0.129 C 
HETATM   17  N4  UNL     1      24.991   3.161  53.334  1.00  0.00    -0.391 N 
HETATM   18  H10 UNL     1      20.994   1.476  52.312  1.00  0.00     0.160 HD
HETATM   19  H16 UNL     1      22.488   1.468  49.481  1.00  0.00     0.315 HD
HETATM   20  H26 UNL     1      25.417   3.425  54.249  1.00  0.00     0.159 HD
ENDROOT
BRANCH   1  21
HETATM   21  C4  UNL     1      19.275   1.570  51.642  1.00  0.00     0.127 C 
BRANCH  21  22
HETATM   22  C2  UNL     1      19.369   0.070  51.925  1.00  0.00     0.023 C 
HETATM   23  C1  UNL     1      17.952  -0.447  51.845  1.00  0.00     0.014 C 
BRANCH  22  24
HETATM   24  C3  UNL     1      19.816  -0.183  53.365  1.00  0.00     0.170 C 
BRANCH  24  25
HETATM   25  O1  UNL     1      19.032  -1.248  53.813  1.00  0.00    -0.400 OA
HETATM   26  H7  UNL     1      19.402  -2.110  53.498  1.00  0.00     0.209 HD
ENDBRANCH  24  25
ENDBRANCH  22  24
ENDBRANCH  21  22
ENDBRANCH   1  21
TORSDOF 4
ENDMDL
MODEL 9
REMARK VINA RESULT:      -6.0      8.343     10.853
REMARK  4 active torsions:
REMARK  status: ('A' for Active; 'I' for Inactive)
REMARK    1  A    between atoms: C2_2  and  C3_3 
REMARK    2  A    between atoms: C2_2  and  C4_5 
REMARK    3  A    between atoms: C3_3  and  O1_4 
REMARK    4  A    between atoms: C4_5  and  N1_6 
ROOT
HETATM    1  N1  UNL     1      30.774   8.991  49.274  1.00  0.00    -0.370 N 
HETATM    2  C5  UNL     1      31.840   8.247  48.912  1.00  0.00     0.231 A 
HETATM    3  N2  UNL     1      33.030   8.076  48.368  1.00  0.00     0.028 N 
HETATM    4  C6  UNL     1      33.811   8.988  47.770  1.00  0.00     0.192 A 
HETATM    5  C7  UNL     1      33.704   7.720  48.121  1.00  0.00     0.302 A 
HETATM    6  C8  UNL     1      33.632   6.463  48.451  1.00  0.00     0.066 A 
HETATM    7  C9  UNL     1      32.531   7.101  48.835  1.00  0.00     0.248 A 
HETATM    8  C10 UNL     1      31.447   6.351  49.183  1.00  0.00     0.007 C 
HETATM    9  C11 UNL     1      31.378   5.471  47.955  1.00  0.00     0.053 C 
HETATM   10  C12 UNL     1      31.526   6.167  46.652  1.00  0.00     0.279 C 
HETATM   11  N3  UNL     1      30.872   7.425  46.547  1.00  0.00     0.084 N 
HETATM   12  C13 UNL     1      31.293   8.220  45.387  1.00  0.00     0.270 C 
HETATM   13  C14 UNL     1      32.695   8.738  45.564  1.00  0.00     0.036 C 
HETATM   14  C15 UNL     1      32.875   9.840  46.558  1.00  0.00     0.068 A 
HETATM   15  C16 UNL     1      34.295   9.909  47.048  1.00  0.00    -0.008 A 
HETATM   16  C17 UNL     1      32.532   4.437  48.111  1.00  0.00     0.129 C 
HETATM   17  N4  UNL     1      33.656   5.128  48.752  1.00  0.00    -0.391 N 
HETATM   18  H10 UNL     1      30.451   8.085  49.673  1.00  0.00     0.160 HD
HETATM   19  H16 UNL     1      29.854   7.355  46.614  1.00  0.00     0.315 HD
HETATM   20  H26 UNL     1      34.383   4.686  49.354  1.00  0.00     0.159 HD
ENDROOT
BRANCH   1  21
HETATM   21  C4  UNL     1      29.684   9.765  49.641  1.00  0.00     0.127 C 
BRANCH  21  22
HETATM   22  C2  UNL     1      28.374   9.333  48.981  1.00  0.00     0.023 C 
HETATM   23  C1  UNL     1      27.827  10.574  48.314  1.00  0.00     0.014 C 
BRANCH  22  24
HETATM   24  C3  UNL     1      27.337   8.945  50.035  1.00  0.00     0.170 C 
BRANCH  24  25
HETATM   25  O1  UNL     1      27.620   9.745  51.144  1.00  0.00    -0.400 OA
HETATM   26  H7  UNL     1      27.035   9.506  51.904  1.00  0.00     0.209 HD
ENDBRANCH  24  25
ENDBRANCH  22  24
ENDBRANCH  21  22
ENDBRANCH   1  21
TORSDOF 4
ENDMDL
