MODEL 1
REMARK VINA RESULT:      -7.5      0.000      0.000
REMARK  7 active torsions:
REMARK  status: ('A' for Active; 'I' for Inactive)
REMARK    1  A    between atoms: O1_2  and  C2_3 
REMARK    2  A    between atoms: C6_9  and  N3_10 
REMARK    3  A    between atoms: N3_10  and  C7_11 
REMARK    4  A    between atoms: C15_21  and  O2_22 
REMARK    5  A    between atoms: O2_22  and  C16_23 
REMARK    6  A    between atoms: C16_23  and  C17_24 
REMARK    7  A    between atoms: C17_24  and  P1_25 
ROOT
HETATM    1  C2  UNL     1      21.874   2.851  50.697  1.00  0.00     0.103 A 
HETATM    2  C3  UNL     1      22.871   3.226  49.815  1.00  0.00     0.072 A 
HETATM    3  C4  UNL     1      24.197   3.105  50.198  1.00  0.00     0.075 A 
HETATM    4  N1  UNL     1      25.232   3.436  49.412  1.00  0.00    -0.241 NA
HETATM    5  C5  UNL     1      26.519   3.313  49.779  1.00  0.00     0.236 A 
HETATM    6  N2  UNL     1      26.750   2.823  51.025  1.00  0.00    -0.224 NA
HETATM    7  C6  UNL     1      25.752   2.472  51.868  1.00  0.00     0.142 A 
HETATM    8  C13 UNL     1      24.443   2.609  51.465  1.00  0.00     0.042 A 
HETATM    9  C14 UNL     1      23.517   2.216  52.397  1.00  0.00     0.057 A 
HETATM   10  C15 UNL     1      22.193   2.356  51.964  1.00  0.00     0.103 A 
ENDROOT
BRANCH   7  11
HETATM   11  N3  UNL     1      26.282   1.990  53.090  1.00  0.00    -0.340 N 
HETATM   12  H6  UNL     1      26.314   2.493  53.995  1.00  0.00     0.167 HD
BRANCH  11  13
HETATM   13  C7  UNL     1      26.810   0.680  53.007  1.00  0.00     0.035 A 
HETATM   14  C8  UNL     1      26.113  -0.422  52.567  1.00  0.00     0.032 A 
HETATM   15  C9  UNL     1      26.628  -1.687  52.509  1.00  0.00     0.046 A 
HETATM   16  C10 UNL     1      27.942  -1.866  52.922  1.00  0.00     0.138 A 
HETATM   17  F1  UNL     1      28.516  -3.096  52.896  1.00  0.00    -0.204 F 
HETATM   18  C11 UNL     1      28.720  -0.802  53.383  1.00  0.00     0.074 A 
HETATM   19 CL1  UNL     1      30.368  -1.095  53.896  1.00  0.00    -0.081 Cl
HETATM   20  C12 UNL     1      28.116   0.426  53.404  1.00  0.00     0.056 A 
ENDBRANCH  11  13
ENDBRANCH   7  11
BRANCH  10  21
HETATM   21  O2  UNL     1      21.104   2.034  52.704  1.00  0.00    -0.345 OA
BRANCH  21  22
HETATM   22  C16 UNL     1      20.473   0.824  52.930  1.00  0.00     0.204 C 
BRANCH  22  23
HETATM   23  C17 UNL     1      20.791   0.263  54.286  1.00  0.00     0.011 C 
BRANCH  23  24
HETATM   24  P1  UNL     1      21.704  -1.126  54.335  1.00  0.00    -0.068 P 
HETATM   25  C18 UNL     1      23.176  -1.354  55.410  1.00  0.00     0.053 C 
ENDBRANCH  23  24
ENDBRANCH  22  23
ENDBRANCH  21  22
ENDBRANCH  10  21
BRANCH   1  26
HETATM   26  O1  UNL     1      20.586   2.991  50.254  1.00  0.00    -0.353 OA
HETATM   27  C1  UNL     1      19.957   2.159  49.334  1.00  0.00     0.210 C 
ENDBRANCH   1  26
TORSDOF 7
ENDMDL
MODEL 2
REMARK VINA RESULT:      -7.2      2.652      4.437
REMARK  7 active torsions:
REMARK  status: ('A' for Active; 'I' for Inactive)
REMARK    1  A    between atoms: O1_2  and  C2_3 
REMARK    2  A    between atoms: C6_9  and  N3_10 
REMARK    3  A    between atoms: N3_10  and  C7_11 
REMARK    4  A    between atoms: C15_21  and  O2_22 
REMARK    5  A    between atoms: O2_22  and  C16_23 
REMARK    6  A    between atoms: C16_23  and  C17_24 
REMARK    7  A    between atoms: C17_24  and  P1_25 
ROOT
HETATM    1  C2  UNL     1      19.859  -0.420  52.991  1.00  0.00     0.103 A 
HETATM    2  C3  UNL     1      20.443  -0.992  54.107  1.00  0.00     0.072 A 
HETATM    3  C4  UNL     1      21.818  -0.920  54.264  1.00  0.00     0.075 A 
HETATM    4  N1  UNL     1      22.475  -1.437  55.314  1.00  0.00    -0.241 NA
HETATM    5  C5  UNL     1      23.807  -1.363  55.472  1.00  0.00     0.236 A 
HETATM    6  N2  UNL     1      24.499  -0.723  54.494  1.00  0.00    -0.224 NA
HETATM    7  C6  UNL     1      23.899  -0.182  53.409  1.00  0.00     0.142 A 
HETATM    8  C13 UNL     1      22.532  -0.272  53.274  1.00  0.00     0.042 A 
HETATM    9  C14 UNL     1      22.033   0.317  52.140  1.00  0.00     0.057 A 
HETATM   10  C15 UNL     1      20.641   0.221  52.026  1.00  0.00     0.103 A 
ENDROOT
BRANCH   7  11
HETATM   11  N3  UNL     1      24.859   0.425  52.562  1.00  0.00    -0.340 N 
HETATM   12  H6  UNL     1      24.673   1.078  51.780  1.00  0.00     0.167 HD
BRANCH  11  13
HETATM   13  C7  UNL     1      26.195   0.066  52.863  1.00  0.00     0.035 A 
HETATM   14  C8  UNL     1      26.744  -1.177  52.641  1.00  0.00     0.032 A 
HETATM   15  C9  UNL     1      28.030  -1.517  52.953  1.00  0.00     0.046 A 
HETATM   16  C10 UNL     1      28.832  -0.541  53.530  1.00  0.00     0.138 A 
HETATM   17  F1  UNL     1      30.118  -0.811  53.871  1.00  0.00    -0.204 F 
HETATM   18  C11 UNL     1      28.354   0.746  53.789  1.00  0.00     0.074 A 
HETATM   19 CL1  UNL     1      29.414   1.929  54.525  1.00  0.00    -0.081 Cl
HETATM   20  C12 UNL     1      27.053   0.991  53.442  1.00  0.00     0.056 A 
ENDBRANCH  11  13
ENDBRANCH   7  11
BRANCH  10  21
HETATM   21  O2  UNL     1      19.917   0.726  50.998  1.00  0.00    -0.345 OA
BRANCH  21  22
HETATM   22  C16 UNL     1      19.958   1.954  50.363  1.00  0.00     0.204 C 
BRANCH  22  23
HETATM   23  C17 UNL     1      19.938   3.097  51.336  1.00  0.00     0.011 C 
BRANCH  23  24
HETATM   24  P1  UNL     1      21.071   4.295  51.119  1.00  0.00    -0.068 P 
HETATM   25  C18 UNL     1      22.331   4.761  52.372  1.00  0.00     0.053 C 
ENDBRANCH  23  24
ENDBRANCH  22  23
ENDBRANCH  21  22
ENDBRANCH  10  21
BRANCH   1  26
HETATM   26  O1  UNL     1      18.497  -0.523  52.899  1.00  0.00    -0.353 OA
HETATM   27  C1  UNL     1      17.740  -1.602  53.344  1.00  0.00     0.210 C 
ENDBRANCH   1  26
TORSDOF 7
ENDMDL
MODEL 3
REMARK VINA RESULT:      -6.9      4.438      6.453
REMARK  7 active torsions:
REMARK  status: ('A' for Active; 'I' for Inactive)
REMARK    1  A    between atoms: O1_2  and  C2_3 
REMARK    2  A    between atoms: C6_9  and  N3_10 
REMARK    3  A    between atoms: N3_10  and  C7_11 
REMARK    4  A    between atoms: C15_21  and  O2_22 
REMARK    5  A    between atoms: O2_22  and  C16_23 
REMARK    6  A    between atoms: C16_23  and  C17_24 
REMARK    7  A    between atoms: C17_24  and  P1_25 
ROOT
HETATM    1  C2  UNL     1      22.658   0.362  52.851  1.00  0.00     0.103 A 
HETATM    2  C3  UNL     1      21.547   1.003  52.333  1.00  0.00     0.072 A 
HETATM    3  C4  UNL     1      21.607   2.363  52.076  1.00  0.00     0.075 A 
HETATM    4  N1  UNL     1      20.586   3.070  51.569  1.00  0.00    -0.241 NA
HETATM    5  C5  UNL     1      20.643   4.388  51.312  1.00  0.00     0.236 A 
HETATM    6  N2  UNL     1      21.818   5.010  51.597  1.00  0.00    -0.224 NA
HETATM    7  C6  UNL     1      22.884   4.356  52.111  1.00  0.00     0.142 A 
HETATM    8  C13 UNL     1      22.796   3.006  52.363  1.00  0.00     0.042 A 
HETATM    9  C14 UNL     1      23.939   2.448  52.877  1.00  0.00     0.057 A 
HETATM   10  C15 UNL     1      23.831   1.073  53.118  1.00  0.00     0.103 A 
ENDROOT
BRANCH   7  11
HETATM   11  N3  UNL     1      23.969   5.249  52.299  1.00  0.00    -0.340 N 
HETATM   12  H6  UNL     1      24.319   5.619  53.202  1.00  0.00     0.167 HD
BRANCH  11  13
HETATM   13  C7  UNL     1      24.602   5.642  51.097  1.00  0.00     0.035 A 
HETATM   14  C8  UNL     1      25.182   4.778  50.195  1.00  0.00     0.032 A 
HETATM   15  C9  UNL     1      25.807   5.172  49.045  1.00  0.00     0.046 A 
HETATM   16  C10 UNL     1      25.857   6.533  48.773  1.00  0.00     0.138 A 
HETATM   17  F1  UNL     1      26.467   6.995  47.652  1.00  0.00    -0.204 F 
HETATM   18  C11 UNL     1      25.293   7.477  49.635  1.00  0.00     0.074 A 
HETATM   19 CL1  UNL     1      25.396   9.179  49.238  1.00  0.00    -0.081 Cl
HETATM   20  C12 UNL     1      24.689   6.986  50.760  1.00  0.00     0.056 A 
ENDBRANCH  11  13
ENDBRANCH   7  11
BRANCH  10  21
HETATM   21  O2  UNL     1      24.824   0.300  53.622  1.00  0.00    -0.345 OA
BRANCH  21  22
HETATM   22  C16 UNL     1      26.171   0.224  53.317  1.00  0.00     0.204 C 
BRANCH  22  23
HETATM   23  C17 UNL     1      27.030   0.183  54.547  1.00  0.00     0.011 C 
BRANCH  23  24
HETATM   24  P1  UNL     1      28.666   0.394  54.335  1.00  0.00    -0.068 P 
HETATM   25  C18 UNL     1      29.800  -0.908  53.710  1.00  0.00     0.053 C 
ENDBRANCH  23  24
ENDBRANCH  22  23
ENDBRANCH  21  22
ENDBRANCH  10  21
BRANCH   1  26
HETATM   26  O1  UNL     1      22.533  -0.983  53.077  1.00  0.00    -0.353 OA
HETATM   27  C1  UNL     1      21.836  -1.559  54.134  1.00  0.00     0.210 C 
ENDBRANCH   1  26
TORSDOF 7
ENDMDL
MODEL 4
REMARK VINA RESULT:      -6.6      2.743      4.584
REMARK  7 active torsions:
REMARK  status: ('A' for Active; 'I' for Inactive)
REMARK    1  A    between atoms: O1_2  and  C2_3 
REMARK    2  A    between atoms: C6_9  and  N3_10 
REMARK    3  A    between atoms: N3_10  and  C7_11 
REMARK    4  A    between atoms: C15_21  and  O2_22 
REMARK    5  A    between atoms: O2_22  and  C16_23 
REMARK    6  A    between atoms: C16_23  and  C17_24 
REMARK    7  A    between atoms: C17_24  and  P1_25 
ROOT
HETATM    1  C2  UNL     1      20.604   1.842  52.436  1.00  0.00     0.103 A 
HETATM    2  C3  UNL     1      20.648   1.102  53.604  1.00  0.00     0.072 A 
HETATM    3  C4  UNL     1      21.767   0.334  53.878  1.00  0.00     0.075 A 
HETATM    4  N1  UNL     1      21.906  -0.411  54.986  1.00  0.00    -0.241 NA
HETATM    5  C5  UNL     1      22.993  -1.152  55.258  1.00  0.00     0.236 A 
HETATM    6  N2  UNL     1      23.991  -1.124  54.336  1.00  0.00    -0.224 NA
HETATM    7  C6  UNL     1      23.914  -0.396  53.198  1.00  0.00     0.142 A 
HETATM    8  C13 UNL     1      22.788   0.353  52.947  1.00  0.00     0.042 A 
HETATM    9  C14 UNL     1      22.824   1.055  51.769  1.00  0.00     0.057 A 
HETATM   10  C15 UNL     1      21.673   1.818  51.536  1.00  0.00     0.103 A 
ENDROOT
BRANCH   7  11
HETATM   11  N3  UNL     1      25.096  -0.550  52.431  1.00  0.00    -0.340 N 
HETATM   12  H6  UNL     1      25.209  -1.118  51.572  1.00  0.00     0.167 HD
BRANCH  11  13
HETATM   13  C7  UNL     1      26.205   0.168  52.938  1.00  0.00     0.035 A 
HETATM   14  C8  UNL     1      26.167   1.479  53.359  1.00  0.00     0.032 A 
HETATM   15  C9  UNL     1      27.250   2.167  53.829  1.00  0.00     0.046 A 
HETATM   16  C10 UNL     1      28.465   1.498  53.884  1.00  0.00     0.138 A 
HETATM   17  F1  UNL     1      29.582   2.123  54.335  1.00  0.00    -0.204 F 
HETATM   18  C11 UNL     1      28.591   0.168  53.476  1.00  0.00     0.074 A 
HETATM   19 CL1  UNL     1      30.153  -0.618  53.563  1.00  0.00    -0.081 Cl
HETATM   20  C12 UNL     1      27.451  -0.437  53.020  1.00  0.00     0.056 A 
ENDBRANCH  11  13
ENDBRANCH   7  11
BRANCH  10  21
HETATM   21  O2  UNL     1      21.472   2.595  50.445  1.00  0.00    -0.345 OA
BRANCH  21  22
HETATM   22  C16 UNL     1      22.289   3.514  49.811  1.00  0.00     0.204 C 
BRANCH  22  23
HETATM   23  C17 UNL     1      22.516   4.742  50.645  1.00  0.00     0.011 C 
BRANCH  23  24
HETATM   24  P1  UNL     1      24.001   5.479  50.517  1.00  0.00    -0.068 P 
HETATM   25  C18 UNL     1      24.898   5.721  48.933  1.00  0.00     0.053 C 
ENDBRANCH  23  24
ENDBRANCH  22  23
ENDBRANCH  21  22
ENDBRANCH  10  21
BRANCH   1  26
HETATM   26  O1  UNL     1      19.471   2.583  52.229  1.00  0.00    -0.353 OA
HETATM   27  C1  UNL     1      18.295   2.110  51.656  1.00  0.00     0.210 C 
ENDBRANCH   1  26
TORSDOF 7
ENDMDL
MODEL 5
REMARK VINA RESULT:      -6.6      3.950      6.162
REMARK  7 active torsions:
REMARK  status: ('A' for Active; 'I' for Inactive)
REMARK    1  A    between atoms: O1_2  and  C2_3 
REMARK    2  A    between atoms: C6_9  and  N3_10 
REMARK    3  A    between atoms: N3_10  and  C7_11 
REMARK    4  A    between atoms: C15_21  and  O2_22 
REMARK    5  A    between atoms: O2_22  and  C16_23 
REMARK    6  A    between atoms: C16_23  and  C17_24 
REMARK    7  A    between atoms: C17_24  and  P1_25 
ROOT
HETATM    1  C2  UNL     1      25.941  -0.504  53.015  1.00  0.00     0.103 A 
HETATM    2  C3  UNL     1      26.690   0.305  52.178  1.00  0.00     0.072 A 
HETATM    3  C4  UNL     1      26.134   1.477  51.693  1.00  0.00     0.075 A 
HETATM    4  N1  UNL     1      26.782   2.328  50.883  1.00  0.00    -0.241 NA
HETATM    5  C5  UNL     1      26.248   3.470  50.416  1.00  0.00     0.236 A 
HETATM    6  N2  UNL     1      24.976   3.747  50.806  1.00  0.00    -0.224 NA
HETATM    7  C6  UNL     1      24.267   2.931  51.619  1.00  0.00     0.142 A 
HETATM    8  C13 UNL     1      24.840   1.769  52.082  1.00  0.00     0.042 A 
HETATM    9  C14 UNL     1      24.032   1.024  52.903  1.00  0.00     0.057 A 
HETATM   10  C15 UNL     1      24.637  -0.149  53.370  1.00  0.00     0.103 A 
ENDROOT
BRANCH   7  11
HETATM   11  N3  UNL     1      22.979   3.471  51.862  1.00  0.00    -0.340 N 
HETATM   12  H6  UNL     1      22.754   4.309  52.429  1.00  0.00     0.167 HD
BRANCH  11  13
HETATM   13  C7  UNL     1      21.931   2.752  51.242  1.00  0.00     0.035 A 
HETATM   14  C8  UNL     1      22.092   1.870  50.198  1.00  0.00     0.032 A 
HETATM   15  C9  UNL     1      21.068   1.195  49.595  1.00  0.00     0.046 A 
HETATM   16  C10 UNL     1      19.783   1.415  50.071  1.00  0.00     0.138 A 
HETATM   17  F1  UNL     1      18.718   0.783  49.516  1.00  0.00    -0.204 F 
HETATM   18  C11 UNL     1      19.530   2.294  51.128  1.00  0.00     0.074 A 
HETATM   19 CL1  UNL     1      17.886   2.534  51.677  1.00  0.00    -0.081 Cl
HETATM   20  C12 UNL     1      20.620   2.923  51.666  1.00  0.00     0.056 A 
ENDBRANCH  11  13
ENDBRANCH   7  11
BRANCH  10  21
HETATM   21  O2  UNL     1      24.042  -1.046  54.193  1.00  0.00    -0.345 OA
BRANCH  21  22
HETATM   22  C16 UNL     1      22.921  -0.950  54.998  1.00  0.00     0.204 C 
BRANCH  22  23
HETATM   23  C17 UNL     1      21.699  -1.519  54.337  1.00  0.00     0.011 C 
BRANCH  23  24
HETATM   24  P1  UNL     1      20.617  -0.436  53.686  1.00  0.00    -0.068 P 
HETATM   25  C18 UNL     1      18.883  -0.852  53.244  1.00  0.00     0.053 C 
ENDBRANCH  23  24
ENDBRANCH  22  23
ENDBRANCH  21  22
ENDBRANCH  10  21
BRANCH   1  26
HETATM   26  O1  UNL     1      26.551  -1.645  53.462  1.00  0.00    -0.353 OA
HETATM   27  C1  UNL     1      27.469  -2.401  52.741  1.00  0.00     0.210 C 
ENDBRANCH   1  26
TORSDOF 7
ENDMDL
MODEL 6
REMARK VINA RESULT:      -6.6      5.179      7.395
REMARK  7 active torsions:
REMARK  status: ('A' for Active; 'I' for Inactive)
REMARK    1  A    between atoms: O1_2  and  C2_3 
REMARK    2  A    between atoms: C6_9  and  N3_10 
REMARK    3  A    between atoms: N3_10  and  C7_11 
REMARK    4  A    between atoms: C15_21  and  O2_22 
REMARK    5  A    between atoms: O2_22  and  C16_23 
REMARK    6  A    between atoms: C16_23  and  C17_24 
REMARK    7  A    between atoms: C17_24  and  P1_25 
ROOT
HETATM    1  C2  UNL     1      27.270   7.568  48.963  1.00  0.00     0.103 A 
HETATM    2  C3  UNL     1      26.206   7.870  49.793  1.00  0.00     0.072 A 
HETATM    3  C4  UNL     1      25.382   6.848  50.236  1.00  0.00     0.075 A 
HETATM    4  N1  UNL     1      24.330   7.040  51.047  1.00  0.00    -0.241 NA
HETATM    5  C5  UNL     1      23.533   6.050  51.485  1.00  0.00     0.236 A 
HETATM    6  N2  UNL     1      23.837   4.795  51.061  1.00  0.00    -0.224 NA
HETATM    7  C6  UNL     1      24.881   4.534  50.242  1.00  0.00     0.142 A 
HETATM    8  C13 UNL     1      25.680   5.568  49.810  1.00  0.00     0.042 A 
HETATM    9  C14 UNL     1      26.711   5.185  48.990  1.00  0.00     0.057 A 
HETATM   10  C15 UNL     1      27.517   6.250  48.569  1.00  0.00     0.103 A 
ENDROOT
BRANCH   7  11
HETATM   11  N3  UNL     1      24.962   3.146  49.971  1.00  0.00    -0.340 N 
HETATM   12  H6  UNL     1      24.704   2.669  49.087  1.00  0.00     0.167 HD
BRANCH  11  13
HETATM   13  C7  UNL     1      25.454   2.379  51.054  1.00  0.00     0.035 A 
HETATM   14  C8  UNL     1      26.755   2.398  51.504  1.00  0.00     0.032 A 
HETATM   15  C9  UNL     1      27.222   1.638  52.540  1.00  0.00     0.046 A 
HETATM   16  C10 UNL     1      26.321   0.795  53.176  1.00  0.00     0.138 A 
HETATM   17  F1  UNL     1      26.718   0.008  54.209  1.00  0.00    -0.204 F 
HETATM   18  C11 UNL     1      24.983   0.714  52.783  1.00  0.00     0.074 A 
HETATM   19 CL1  UNL     1      23.900  -0.375  53.623  1.00  0.00    -0.081 Cl
HETATM   20  C12 UNL     1      24.610   1.513  51.736  1.00  0.00     0.056 A 
ENDBRANCH  11  13
ENDBRANCH   7  11
BRANCH  10  21
HETATM   21  O2  UNL     1      28.595   6.125  47.758  1.00  0.00    -0.345 OA
BRANCH  21  22
HETATM   22  C16 UNL     1      29.852   5.593  47.979  1.00  0.00     0.204 C 
BRANCH  22  23
HETATM   23  C17 UNL     1      30.908   6.655  48.086  1.00  0.00     0.011 C 
BRANCH  23  24
HETATM   24  P1  UNL     1      32.197   6.342  49.089  1.00  0.00    -0.068 P 
HETATM   25  C18 UNL     1      33.772   5.576  48.534  1.00  0.00     0.053 C 
ENDBRANCH  23  24
ENDBRANCH  22  23
ENDBRANCH  21  22
ENDBRANCH  10  21
BRANCH   1  26
HETATM   26  O1  UNL     1      28.048   8.623  48.565  1.00  0.00    -0.353 OA
HETATM   27  C1  UNL     1      27.694   9.564  47.604  1.00  0.00     0.210 C 
ENDBRANCH   1  26
TORSDOF 7
ENDMDL
MODEL 7
REMARK VINA RESULT:      -6.5      3.985      6.339
REMARK  7 active torsions:
REMARK  status: ('A' for Active; 'I' for Inactive)
REMARK    1  A    between atoms: O1_2  and  C2_3 
REMARK    2  A    between atoms: C6_9  and  N3_10 
REMARK    3  A    between atoms: N3_10  and  C7_11 
REMARK    4  A    between atoms: C15_21  and  O2_22 
REMARK    5  A    between atoms: O2_22  and  C16_23 
REMARK    6  A    between atoms: C16_23  and  C17_24 
REMARK    7  A    between atoms: C17_24  and  P1_25 
ROOT
HETATM    1  C2  UNL     1      22.033   0.408  53.681  1.00  0.00     0.103 A 
HETATM    2  C3  UNL     1      20.901   1.197  53.587  1.00  0.00     0.072 A 
HETATM    3  C4  UNL     1      20.806   2.128  52.565  1.00  0.00     0.075 A 
HETATM    4  N1  UNL     1      19.747   2.932  52.387  1.00  0.00    -0.241 NA
HETATM    5  C5  UNL     1      19.649   3.831  51.393  1.00  0.00     0.236 A 
HETATM    6  N2  UNL     1      20.703   3.905  50.538  1.00  0.00    -0.224 NA
HETATM    7  C6  UNL     1      21.801   3.125  50.662  1.00  0.00     0.142 A 
HETATM    8  C13 UNL     1      21.873   2.213  51.690  1.00  0.00     0.042 A 
HETATM    9  C14 UNL     1      23.027   1.473  51.714  1.00  0.00     0.057 A 
HETATM   10  C15 UNL     1      23.076   0.545  52.762  1.00  0.00     0.103 A 
ENDROOT
BRANCH   7  11
HETATM   11  N3  UNL     1      22.731   3.412  49.633  1.00  0.00    -0.340 N 
HETATM   12  H6  UNL     1      22.829   2.917  48.728  1.00  0.00     0.167 HD
BRANCH  11  13
HETATM   13  C7  UNL     1      23.590   4.498  49.925  1.00  0.00     0.035 A 
HETATM   14  C8  UNL     1      23.330   5.479  50.855  1.00  0.00     0.032 A 
HETATM   15  C9  UNL     1      24.159   6.534  51.114  1.00  0.00     0.046 A 
HETATM   16  C10 UNL     1      25.341   6.617  50.390  1.00  0.00     0.138 A 
HETATM   17  F1  UNL     1      26.209   7.641  50.592  1.00  0.00    -0.204 F 
HETATM   18  C11 UNL     1      25.682   5.665  49.426  1.00  0.00     0.074 A 
HETATM   19 CL1  UNL     1      27.183   5.830  48.542  1.00  0.00    -0.081 Cl
HETATM   20  C12 UNL     1      24.788   4.646  49.238  1.00  0.00     0.056 A 
ENDBRANCH  11  13
ENDBRANCH   7  11
BRANCH  10  21
HETATM   21  O2  UNL     1      24.110  -0.299  52.993  1.00  0.00    -0.345 OA
BRANCH  21  22
HETATM   22  C16 UNL     1      25.270  -0.148  53.731  1.00  0.00     0.204 C 
BRANCH  22  23
HETATM   23  C17 UNL     1      26.476  -0.672  53.007  1.00  0.00     0.011 C 
BRANCH  23  24
HETATM   24  P1  UNL     1      27.966  -0.225  53.596  1.00  0.00    -0.068 P 
HETATM   25  C18 UNL     1      29.496  -1.221  53.391  1.00  0.00     0.053 C 
ENDBRANCH  23  24
ENDBRANCH  22  23
ENDBRANCH  21  22
ENDBRANCH  10  21
BRANCH   1  26
HETATM   26  O1  UNL     1      22.061  -0.494  54.710  1.00  0.00    -0.353 OA
HETATM   27  C1  UNL     1      21.489  -1.763  54.683  1.00  0.00     0.210 C 
ENDBRANCH   1  26
TORSDOF 7
ENDMDL
MODEL 8
REMARK VINA RESULT:      -6.5      3.766      5.757
REMARK  7 active torsions:
REMARK  status: ('A' for Active; 'I' for Inactive)
REMARK    1  A    between atoms: O1_2  and  C2_3 
REMARK    2  A    between atoms: C6_9  and  N3_10 
REMARK    3  A    between atoms: N3_10  and  C7_11 
REMARK    4  A    between atoms: C15_21  and  O2_22 
REMARK    5  A    between atoms: O2_22  and  C16_23 
REMARK    6  A    between atoms: C16_23  and  C17_24 
REMARK    7  A    between atoms: C17_24  and  P1_25 
ROOT
HETATM    1  C2  UNL     1      23.074   0.913  52.978  1.00  0.00     0.103 A 
HETATM    2  C3  UNL     1      24.267   1.080  53.659  1.00  0.00     0.072 A 
HETATM    3  C4  UNL     1      25.366   1.589  52.987  1.00  0.00     0.075 A 
HETATM    4  N1  UNL     1      26.561   1.793  53.561  1.00  0.00    -0.241 NA
HETATM    5  C5  UNL     1      27.627   2.294  52.913  1.00  0.00     0.236 A 
HETATM    6  N2  UNL     1      27.449   2.600  51.601  1.00  0.00    -0.224 NA
HETATM    7  C6  UNL     1      26.271   2.417  50.962  1.00  0.00     0.142 A 
HETATM    8  C13 UNL     1      25.197   1.902  51.651  1.00  0.00     0.042 A 
HETATM    9  C14 UNL     1      24.054   1.767  50.904  1.00  0.00     0.057 A 
HETATM   10  C15 UNL     1      22.972   1.250  51.627  1.00  0.00     0.103 A 
ENDROOT
BRANCH   7  11
HETATM   11  N3  UNL     1      26.374   2.826  49.609  1.00  0.00    -0.340 N 
HETATM   12  H6  UNL     1      26.381   2.213  48.773  1.00  0.00     0.167 HD
BRANCH  11  13
HETATM   13  C7  UNL     1      26.473   4.227  49.440  1.00  0.00     0.035 A 
HETATM   14  C8  UNL     1      25.580   5.145  49.945  1.00  0.00     0.032 A 
HETATM   15  C9  UNL     1      25.677   6.496  49.759  1.00  0.00     0.046 A 
HETATM   16  C10 UNL     1      26.749   6.968  49.013  1.00  0.00     0.138 A 
HETATM   17  F1  UNL     1      26.904   8.297  48.785  1.00  0.00    -0.204 F 
HETATM   18  C11 UNL     1      27.701   6.105  48.466  1.00  0.00     0.074 A 
HETATM   19 CL1  UNL     1      29.026   6.763  47.529  1.00  0.00    -0.081 Cl
HETATM   20  C12 UNL     1      27.519   4.770  48.706  1.00  0.00     0.056 A 
ENDBRANCH  11  13
ENDBRANCH   7  11
BRANCH  10  21
HETATM   21  O2  UNL     1      21.739   1.027  51.110  1.00  0.00    -0.345 OA
BRANCH  21  22
HETATM   22  C16 UNL     1      21.123   1.506  49.968  1.00  0.00     0.204 C 
BRANCH  22  23
HETATM   23  C17 UNL     1      19.667   1.145  49.915  1.00  0.00     0.011 C 
BRANCH  23  24
HETATM   24  P1  UNL     1      18.922   0.792  51.359  1.00  0.00    -0.068 P 
HETATM   25  C18 UNL     1      17.575  -0.442  51.549  1.00  0.00     0.053 C 
ENDBRANCH  23  24
ENDBRANCH  22  23
ENDBRANCH  21  22
ENDBRANCH  10  21
BRANCH   1  26
HETATM   26  O1  UNL     1      22.027   0.409  53.703  1.00  0.00    -0.353 OA
HETATM   27  C1  UNL     1      22.098  -0.676  54.570  1.00  0.00     0.210 C 
ENDBRANCH   1  26
TORSDOF 7
ENDMDL
MODEL 9
REMARK VINA RESULT:      -6.4      3.006      4.678
REMARK  7 active torsions:
REMARK  status: ('A' for Active; 'I' for Inactive)
REMARK    1  A    between atoms: O1_2  and  C2_3 
REMARK    2  A    between atoms: C6_9  and  N3_10 
REMARK    3  A    between atoms: N3_10  and  C7_11 
REMARK    4  A    between atoms: C15_21  and  O2_22 
REMARK    5  A    between atoms: O2_22  and  C16_23 
REMARK    6  A    between atoms: C16_23  and  C17_24 
REMARK    7  A    between atoms: C17_24  and  P1_25 
ROOT
HETATM    1  C2  UNL     1      22.622   3.124  49.935  1.00  0.00     0.103 A 
HETATM    2  C3  UNL     1      21.907   2.004  50.322  1.00  0.00     0.072 A 
HETATM    3  C4  UNL     1      22.390   1.216  51.354  1.00  0.00     0.075 A 
HETATM    4  N1  UNL     1      21.766   0.116  51.804  1.00  0.00    -0.241 NA
HETATM    5  C5  UNL     1      22.228  -0.647  52.810  1.00  0.00     0.236 A 
HETATM    6  N2  UNL     1      23.397  -0.254  53.380  1.00  0.00    -0.224 NA
HETATM    7  C6  UNL     1      24.076   0.842  52.973  1.00  0.00     0.142 A 
HETATM    8  C13 UNL     1      23.579   1.604  51.941  1.00  0.00     0.042 A 
HETATM    9  C14 UNL     1      24.347   2.694  51.618  1.00  0.00     0.057 A 
HETATM   10  C15 UNL     1      23.819   3.461  50.572  1.00  0.00     0.103 A 
ENDROOT
BRANCH   7  11
HETATM   11  N3  UNL     1      25.251   1.012  53.746  1.00  0.00    -0.340 N 
HETATM   12  H6  UNL     1      25.418   1.732  54.473  1.00  0.00     0.167 HD
BRANCH  11  13
HETATM   13  C7  UNL     1      26.270   0.074  53.455  1.00  0.00     0.035 A 
HETATM   14  C8  UNL     1      26.056  -1.181  52.931  1.00  0.00     0.032 A 
HETATM   15  C9  UNL     1      27.047  -2.086  52.671  1.00  0.00     0.046 A 
HETATM   16  C10 UNL     1      28.353  -1.709  52.954  1.00  0.00     0.138 A 
HETATM   17  F1  UNL     1      29.386  -2.560  52.726  1.00  0.00    -0.204 F 
HETATM   18  C11 UNL     1      28.658  -0.454  53.487  1.00  0.00     0.074 A 
HETATM   19 CL1  UNL     1      30.325  -0.043  53.829  1.00  0.00    -0.081 Cl
HETATM   20  C12 UNL     1      27.598   0.382  53.713  1.00  0.00     0.056 A 
ENDBRANCH  11  13
ENDBRANCH   7  11
BRANCH  10  21
HETATM   21  O2  UNL     1      24.393   4.583  50.075  1.00  0.00    -0.345 OA
BRANCH  21  22
HETATM   22  C16 UNL     1      25.446   4.762  49.197  1.00  0.00     0.204 C 
BRANCH  22  23
HETATM   23  C17 UNL     1      26.126   6.087  49.389  1.00  0.00     0.011 C 
BRANCH  23  24
HETATM   24  P1  UNL     1      27.388   6.445  48.366  1.00  0.00    -0.068 P 
HETATM   25  C18 UNL     1      28.968   5.510  48.313  1.00  0.00     0.053 C 
ENDBRANCH  23  24
ENDBRANCH  22  23
ENDBRANCH  21  22
ENDBRANCH  10  21
BRANCH   1  26
HETATM   26  O1  UNL     1      22.087   3.861  48.913  1.00  0.00    -0.353 OA
HETATM   27  C1  UNL     1      22.106   3.503  47.568  1.00  0.00     0.210 C 
ENDBRANCH   1  26
TORSDOF 7
ENDMDL
