MODEL 1
REMARK VINA RESULT:      -7.2      0.000      0.000
REMARK  8 active torsions:
REMARK  status: ('A' for Active; 'I' for Inactive)
REMARK    1  A    between atoms: C9_13  and  C10_14 
REMARK    2  A    between atoms: C10_14  and  C11_15 
REMARK    3  A    between atoms: C11_15  and  O1_16 
REMARK    4  A    between atoms: O1_16  and  C12_17 
REMARK    5  A    between atoms: C12_17  and  C13_18 
REMARK    6  A    between atoms: C13_18  and  C14_19 
REMARK    7  A    between atoms: C14_19  and  C15_20 
REMARK    8  A    between atoms: C15_20  and  P1_21 
ROOT
HETATM    1  F1  UNL     1      20.467  -1.591  54.457  1.00  0.00    -0.204 F 
HETATM    2  C1  UNL     1      21.760  -1.179  54.336  1.00  0.00     0.140 A 
HETATM    3  C2  UNL     1      22.764  -1.493  55.226  1.00  0.00     0.046 A 
HETATM    4  C3  UNL     1      24.034  -1.013  54.991  1.00  0.00     0.034 A 
HETATM    5  C4  UNL     1      24.324  -0.232  53.893  1.00  0.00     0.059 A 
HETATM    6  C5  UNL     1      23.253   0.062  53.008  1.00  0.00     0.109 A 
HETATM    7  C6  UNL     1      21.989  -0.403  53.223  1.00  0.00     0.103 A 
HETATM    8 CL1  UNL     1      20.904   0.113  51.985  1.00  0.00    -0.078 Cl
HETATM    9  N1  UNL     1      23.876   0.873  51.991  1.00  0.00    -0.240 NA
HETATM   10  C7  UNL     1      24.488   1.941  52.287  1.00  0.00     0.208 C 
HETATM   11  N2  UNL     1      25.243   3.146  52.155  1.00  0.00    -0.354 N 
HETATM   12  C8  UNL     1      26.349   2.378  51.714  1.00  0.00     0.007 C 
HETATM   13  C9  UNL     1      26.570   2.859  50.504  1.00  0.00     0.000 C 
HETATM   14  C16 UNL     1      27.253   1.289  52.163  1.00  0.00     0.076 C 
HETATM   15  C17 UNL     1      26.490   0.031  52.498  1.00  0.00     0.126 C 
HETATM   16  N3  UNL     1      25.665   0.281  53.661  1.00  0.00    -0.388 N 
HETATM   17  H4  UNL     1      25.080   4.129  52.323  1.00  0.00     0.166 HD
HETATM   18  H24 UNL     1      25.911   0.845  54.505  1.00  0.00     0.159 HD
ENDROOT
BRANCH  13  19
HETATM   19  C10 UNL     1      25.888   3.932  49.713  1.00  0.00     0.055 C 
BRANCH  19  20
HETATM   20  C11 UNL     1      26.971   4.646  48.943  1.00  0.00     0.171 C 
BRANCH  20  21
HETATM   21  O1  UNL     1      26.739   5.975  48.723  1.00  0.00    -0.391 OA
BRANCH  21  22
HETATM   22  C12 UNL     1      27.883   6.589  48.234  1.00  0.00     0.167 C 
BRANCH  22  23
HETATM   23  C13 UNL     1      28.966   5.515  48.225  1.00  0.00     0.027 C 
BRANCH  23  24
HETATM   24  C14 UNL     1      30.311   6.126  47.913  1.00  0.00     0.006 C 
BRANCH  24  25
HETATM   25  C15 UNL     1      31.396   5.080  47.818  1.00  0.00     0.028 C 
BRANCH  25  26
HETATM   26  P1  UNL     1      33.017   5.930  48.142  1.00  0.00    -0.141 P 
HETATM   27  H18 UNL     1      32.773   7.298  48.564  1.00  0.00     0.054 HD
HETATM   28  H19 UNL     1      33.862   5.917  46.951  1.00  0.00     0.054 HD
ENDBRANCH  25  26
ENDBRANCH  24  25
ENDBRANCH  23  24
ENDBRANCH  22  23
ENDBRANCH  21  22
ENDBRANCH  20  21
ENDBRANCH  19  20
ENDBRANCH  13  19
TORSDOF 8
ENDMDL
MODEL 2
REMARK VINA RESULT:      -7.1      5.947      8.768
REMARK  8 active torsions:
REMARK  status: ('A' for Active; 'I' for Inactive)
REMARK    1  A    between atoms: C9_13  and  C10_14 
REMARK    2  A    between atoms: C10_14  and  C11_15 
REMARK    3  A    between atoms: C11_15  and  O1_16 
REMARK    4  A    between atoms: O1_16  and  C12_17 
REMARK    5  A    between atoms: C12_17  and  C13_18 
REMARK    6  A    between atoms: C13_18  and  C14_19 
REMARK    7  A    between atoms: C14_19  and  C15_20 
REMARK    8  A    between atoms: C15_20  and  P1_21 
ROOT
HETATM    1  F1  UNL     1      29.934  -1.439  54.024  1.00  0.00    -0.204 F 
HETATM    2  C1  UNL     1      29.102  -0.403  53.723  1.00  0.00     0.140 A 
HETATM    3  C2  UNL     1      29.380   0.920  53.984  1.00  0.00     0.046 A 
HETATM    4  C3  UNL     1      28.454   1.876  53.630  1.00  0.00     0.034 A 
HETATM    5  C4  UNL     1      27.261   1.543  53.025  1.00  0.00     0.059 A 
HETATM    6  C5  UNL     1      27.024   0.164  52.779  1.00  0.00     0.109 A 
HETATM    7  C6  UNL     1      27.928  -0.796  53.122  1.00  0.00     0.103 A 
HETATM    8 CL1  UNL     1      27.369  -2.373  52.700  1.00  0.00    -0.078 Cl
HETATM    9  N1  UNL     1      25.725   0.158  52.151  1.00  0.00    -0.240 NA
HETATM   10  C7  UNL     1      24.717   0.668  52.722  1.00  0.00     0.208 C 
HETATM   11  N2  UNL     1      23.378   1.100  52.966  1.00  0.00    -0.354 N 
HETATM   12  C8  UNL     1      23.499   2.010  51.888  1.00  0.00     0.007 C 
HETATM   13  C9  UNL     1      22.544   1.614  51.066  1.00  0.00     0.000 C 
HETATM   14  C16 UNL     1      24.307   3.174  51.442  1.00  0.00     0.076 C 
HETATM   15  C17 UNL     1      25.773   2.830  51.340  1.00  0.00     0.126 C 
HETATM   16  N3  UNL     1      26.283   2.559  52.667  1.00  0.00    -0.388 N 
HETATM   17  H4  UNL     1      22.653   0.878  53.633  1.00  0.00     0.166 HD
HETATM   18  H24 UNL     1      26.041   3.055  53.555  1.00  0.00     0.159 HD
ENDROOT
BRANCH  13  19
HETATM   19  C10 UNL     1      21.544   0.503  51.156  1.00  0.00     0.055 C 
BRANCH  19  20
HETATM   20  C11 UNL     1      20.189   1.159  51.249  1.00  0.00     0.171 C 
BRANCH  20  21
HETATM   21  O1  UNL     1      19.155   0.417  50.751  1.00  0.00    -0.391 OA
BRANCH  21  22
HETATM   22  C12 UNL     1      18.127   0.336  51.678  1.00  0.00     0.167 C 
BRANCH  22  23
HETATM   23  C13 UNL     1      18.539  -0.748  52.668  1.00  0.00     0.027 C 
BRANCH  23  24
HETATM   24  C14 UNL     1      17.394  -1.702  52.910  1.00  0.00     0.006 C 
BRANCH  24  25
HETATM   25  C15 UNL     1      17.797  -2.849  53.808  1.00  0.00     0.028 C 
BRANCH  25  26
HETATM   26  P1  UNL     1      16.645  -4.263  53.455  1.00  0.00    -0.141 P 
HETATM   27  H18 UNL     1      17.413  -5.427  53.053  1.00  0.00     0.054 HD
HETATM   28  H19 UNL     1      15.687  -3.910  52.409  1.00  0.00     0.054 HD
ENDBRANCH  25  26
ENDBRANCH  24  25
ENDBRANCH  23  24
ENDBRANCH  22  23
ENDBRANCH  21  22
ENDBRANCH  20  21
ENDBRANCH  19  20
ENDBRANCH  13  19
TORSDOF 8
ENDMDL
MODEL 3
REMARK VINA RESULT:      -7.1      1.790      2.088
REMARK  8 active torsions:
REMARK  status: ('A' for Active; 'I' for Inactive)
REMARK    1  A    between atoms: C9_13  and  C10_14 
REMARK    2  A    between atoms: C10_14  and  C11_15 
REMARK    3  A    between atoms: C11_15  and  O1_16 
REMARK    4  A    between atoms: O1_16  and  C12_17 
REMARK    5  A    between atoms: C12_17  and  C13_18 
REMARK    6  A    between atoms: C13_18  and  C14_19 
REMARK    7  A    between atoms: C14_19  and  C15_20 
REMARK    8  A    between atoms: C15_20  and  P1_21 
ROOT
HETATM    1  F1  UNL     1      19.846  -1.361  53.815  1.00  0.00    -0.204 F 
HETATM    2  C1  UNL     1      21.147  -0.957  53.791  1.00  0.00     0.140 A 
HETATM    3  C2  UNL     1      22.077  -1.270  54.757  1.00  0.00     0.046 A 
HETATM    4  C3  UNL     1      23.365  -0.799  54.617  1.00  0.00     0.034 A 
HETATM    5  C4  UNL     1      23.742  -0.025  53.540  1.00  0.00     0.059 A 
HETATM    6  C5  UNL     1      22.743   0.268  52.574  1.00  0.00     0.109 A 
HETATM    7  C6  UNL     1      21.465  -0.189  52.694  1.00  0.00     0.103 A 
HETATM    8 CL1  UNL     1      20.480   0.325  51.373  1.00  0.00    -0.078 Cl
HETATM    9  N1  UNL     1      23.447   1.070  51.603  1.00  0.00    -0.240 NA
HETATM   10  C7  UNL     1      24.041   2.137  51.939  1.00  0.00     0.208 C 
HETATM   11  N2  UNL     1      24.811   3.337  51.857  1.00  0.00    -0.354 N 
HETATM   12  C8  UNL     1      25.943   2.560  51.507  1.00  0.00     0.007 C 
HETATM   13  C9  UNL     1      26.259   3.032  50.315  1.00  0.00     0.000 C 
HETATM   14  C16 UNL     1      26.804   1.469  52.030  1.00  0.00     0.076 C 
HETATM   15  C17 UNL     1      26.010   0.217  52.313  1.00  0.00     0.126 C 
HETATM   16  N3  UNL     1      25.100   0.478  53.408  1.00  0.00    -0.388 N 
HETATM   17  H4  UNL     1      24.641   4.321  52.007  1.00  0.00     0.166 HD
HETATM   18  H24 UNL     1      25.284   1.047  54.265  1.00  0.00     0.159 HD
ENDROOT
BRANCH  13  19
HETATM   19  C10 UNL     1      25.645   4.103  49.468  1.00  0.00     0.055 C 
BRANCH  19  20
HETATM   20  C11 UNL     1      26.757   5.064  49.126  1.00  0.00     0.171 C 
BRANCH  20  21
HETATM   21  O1  UNL     1      27.883   4.483  48.614  1.00  0.00    -0.391 OA
BRANCH  21  22
HETATM   22  C12 UNL     1      28.838   5.448  48.331  1.00  0.00     0.167 C 
BRANCH  22  23
HETATM   23  C13 UNL     1      28.068   6.741  48.083  1.00  0.00     0.027 C 
BRANCH  23  24
HETATM   24  C14 UNL     1      28.637   7.472  46.891  1.00  0.00     0.006 C 
BRANCH  24  25
HETATM   25  C15 UNL     1      27.746   8.609  46.449  1.00  0.00     0.028 C 
BRANCH  25  26
HETATM   26  P1  UNL     1      26.035   8.251  47.078  1.00  0.00    -0.141 P 
HETATM   27  H18 UNL     1      25.443   7.181  46.295  1.00  0.00     0.054 HD
HETATM   28  H19 UNL     1      25.193   9.443  47.015  1.00  0.00     0.054 HD
ENDBRANCH  25  26
ENDBRANCH  24  25
ENDBRANCH  23  24
ENDBRANCH  22  23
ENDBRANCH  21  22
ENDBRANCH  20  21
ENDBRANCH  19  20
ENDBRANCH  13  19
TORSDOF 8
ENDMDL
MODEL 4
REMARK VINA RESULT:      -7.1      4.677      7.199
REMARK  8 active torsions:
REMARK  status: ('A' for Active; 'I' for Inactive)
REMARK    1  A    between atoms: C9_13  and  C10_14 
REMARK    2  A    between atoms: C10_14  and  C11_15 
REMARK    3  A    between atoms: C11_15  and  O1_16 
REMARK    4  A    between atoms: O1_16  and  C12_17 
REMARK    5  A    between atoms: C12_17  and  C13_18 
REMARK    6  A    between atoms: C13_18  and  C14_19 
REMARK    7  A    between atoms: C14_19  and  C15_20 
REMARK    8  A    between atoms: C15_20  and  P1_21 
ROOT
HETATM    1  F1  UNL     1      28.199  -0.380  55.359  1.00  0.00    -0.204 F 
HETATM    2  C1  UNL     1      27.925   0.537  54.389  1.00  0.00     0.140 A 
HETATM    3  C2  UNL     1      28.751   1.588  54.055  1.00  0.00     0.046 A 
HETATM    4  C3  UNL     1      28.359   2.447  53.052  1.00  0.00     0.034 A 
HETATM    5  C4  UNL     1      27.168   2.283  52.378  1.00  0.00     0.059 A 
HETATM    6  C5  UNL     1      26.354   1.184  52.763  1.00  0.00     0.109 A 
HETATM    7  C6  UNL     1      26.724   0.323  53.752  1.00  0.00     0.103 A 
HETATM    8 CL1  UNL     1      25.541  -0.909  53.996  1.00  0.00    -0.078 Cl
HETATM    9  N1  UNL     1      25.214   1.293  51.886  1.00  0.00    -0.240 NA
HETATM   10  C7  UNL     1      24.514   2.348  51.847  1.00  0.00     0.208 C 
HETATM   11  N2  UNL     1      23.496   3.280  51.480  1.00  0.00    -0.354 N 
HETATM   12  C8  UNL     1      24.052   3.342  50.179  1.00  0.00     0.007 C 
HETATM   13  C9  UNL     1      23.055   2.927  49.419  1.00  0.00     0.000 C 
HETATM   14  C16 UNL     1      25.310   3.698  49.474  1.00  0.00     0.076 C 
HETATM   15  C17 UNL     1      26.474   2.865  49.952  1.00  0.00     0.126 C 
HETATM   16  N3  UNL     1      26.757   3.204  51.330  1.00  0.00    -0.388 N 
HETATM   17  H4  UNL     1      22.722   3.731  51.946  1.00  0.00     0.166 HD
HETATM   18  H24 UNL     1      26.725   4.151  51.771  1.00  0.00     0.159 HD
ENDROOT
BRANCH  13  19
HETATM   19  C10 UNL     1      21.663   2.484  49.749  1.00  0.00     0.055 C 
BRANCH  19  20
HETATM   20  C11 UNL     1      21.642   0.986  49.574  1.00  0.00     0.171 C 
BRANCH  20  21
HETATM   21  O1  UNL     1      21.198   0.286  50.661  1.00  0.00    -0.391 OA
BRANCH  21  22
HETATM   22  C12 UNL     1      19.898   0.655  50.975  1.00  0.00     0.167 C 
BRANCH  22  23
HETATM   23  C13 UNL     1      19.728   0.370  52.463  1.00  0.00     0.027 C 
BRANCH  23  24
HETATM   24  C14 UNL     1      20.928   0.864  53.235  1.00  0.00     0.006 C 
BRANCH  24  25
HETATM   25  C15 UNL     1      21.024   0.221  54.598  1.00  0.00     0.028 C 
BRANCH  25  26
HETATM   26  P1  UNL     1      21.722  -1.484  54.361  1.00  0.00    -0.141 P 
HETATM   27  H18 UNL     1      21.699  -1.827  52.950  1.00  0.00     0.054 HD
HETATM   28  H19 UNL     1      20.967  -2.471  55.129  1.00  0.00     0.054 HD
ENDBRANCH  25  26
ENDBRANCH  24  25
ENDBRANCH  23  24
ENDBRANCH  22  23
ENDBRANCH  21  22
ENDBRANCH  20  21
ENDBRANCH  19  20
ENDBRANCH  13  19
TORSDOF 8
ENDMDL
MODEL 5
REMARK VINA RESULT:      -7.1      3.960      5.246
REMARK  8 active torsions:
REMARK  status: ('A' for Active; 'I' for Inactive)
REMARK    1  A    between atoms: C9_13  and  C10_14 
REMARK    2  A    between atoms: C10_14  and  C11_15 
REMARK    3  A    between atoms: C11_15  and  O1_16 
REMARK    4  A    between atoms: O1_16  and  C12_17 
REMARK    5  A    between atoms: C12_17  and  C13_18 
REMARK    6  A    between atoms: C13_18  and  C14_19 
REMARK    7  A    between atoms: C14_19  and  C15_20 
REMARK    8  A    between atoms: C15_20  and  P1_21 
ROOT
HETATM    1  F1  UNL     1      30.802  -0.958  53.991  1.00  0.00    -0.204 F 
HETATM    2  C1  UNL     1      29.487  -0.969  53.633  1.00  0.00     0.140 A 
HETATM    3  C2  UNL     1      28.824  -2.070  53.138  1.00  0.00     0.046 A 
HETATM    4  C3  UNL     1      27.490  -1.952  52.812  1.00  0.00     0.034 A 
HETATM    5  C4  UNL     1      26.807  -0.764  52.967  1.00  0.00     0.059 A 
HETATM    6  C5  UNL     1      27.539   0.340  53.480  1.00  0.00     0.109 A 
HETATM    7  C6  UNL     1      28.858   0.242  53.808  1.00  0.00     0.103 A 
HETATM    8 CL1  UNL     1      29.475   1.740  54.404  1.00  0.00    -0.078 Cl
HETATM    9  N1  UNL     1      26.558   1.397  53.520  1.00  0.00    -0.240 NA
HETATM   10  C7  UNL     1      25.929   1.750  52.479  1.00  0.00     0.208 C 
HETATM   11  N2  UNL     1      25.027   2.443  51.617  1.00  0.00    -0.354 N 
HETATM   12  C8  UNL     1      23.944   1.897  52.348  1.00  0.00     0.007 C 
HETATM   13  C9  UNL     1      23.331   2.974  52.804  1.00  0.00     0.000 C 
HETATM   14  C16 UNL     1      23.345   0.591  52.726  1.00  0.00     0.076 C 
HETATM   15  C17 UNL     1      24.319  -0.272  53.490  1.00  0.00     0.126 C 
HETATM   16  N3  UNL     1      25.403  -0.645  52.606  1.00  0.00    -0.388 N 
HETATM   17  H4  UNL     1      25.110   3.046  50.811  1.00  0.00     0.166 HD
HETATM   18  H24 UNL     1      25.340  -0.899  51.595  1.00  0.00     0.159 HD
ENDROOT
BRANCH  13  19
HETATM   19  C10 UNL     1      23.624   4.433  52.647  1.00  0.00     0.055 C 
BRANCH  19  20
HETATM   20  C11 UNL     1      22.674   4.946  51.594  1.00  0.00     0.171 C 
BRANCH  20  21
HETATM   21  O1  UNL     1      22.906   4.476  50.331  1.00  0.00    -0.391 OA
BRANCH  21  22
HETATM   22  C12 UNL     1      23.463   5.469  49.540  1.00  0.00     0.167 C 
BRANCH  22  23
HETATM   23  C13 UNL     1      24.793   4.914  49.042  1.00  0.00     0.027 C 
BRANCH  23  24
HETATM   24  C14 UNL     1      25.919   5.863  49.376  1.00  0.00     0.006 C 
BRANCH  24  25
HETATM   25  C15 UNL     1      25.467   6.971  50.297  1.00  0.00     0.028 C 
BRANCH  25  26
HETATM   26  P1  UNL     1      26.441   8.491  49.859  1.00  0.00    -0.141 P 
HETATM   27  H18 UNL     1      27.113   8.996  51.043  1.00  0.00     0.054 HD
HETATM   28  H19 UNL     1      25.576   9.524  49.295  1.00  0.00     0.054 HD
ENDBRANCH  25  26
ENDBRANCH  24  25
ENDBRANCH  23  24
ENDBRANCH  22  23
ENDBRANCH  21  22
ENDBRANCH  20  21
ENDBRANCH  19  20
ENDBRANCH  13  19
TORSDOF 8
ENDMDL
MODEL 6
REMARK VINA RESULT:      -7.0      5.691      7.289
REMARK  8 active torsions:
REMARK  status: ('A' for Active; 'I' for Inactive)
REMARK    1  A    between atoms: C9_13  and  C10_14 
REMARK    2  A    between atoms: C10_14  and  C11_15 
REMARK    3  A    between atoms: C11_15  and  O1_16 
REMARK    4  A    between atoms: O1_16  and  C12_17 
REMARK    5  A    between atoms: C12_17  and  C13_18 
REMARK    6  A    between atoms: C13_18  and  C14_19 
REMARK    7  A    between atoms: C14_19  and  C15_20 
REMARK    8  A    between atoms: C15_20  and  P1_21 
ROOT
HETATM    1  F1  UNL     1      30.834   0.004  53.730  1.00  0.00    -0.204 F 
HETATM    2  C1  UNL     1      29.521  -0.295  53.518  1.00  0.00     0.140 A 
HETATM    3  C2  UNL     1      29.038  -1.566  53.297  1.00  0.00     0.046 A 
HETATM    4  C3  UNL     1      27.685  -1.736  53.096  1.00  0.00     0.034 A 
HETATM    5  C4  UNL     1      26.809  -0.672  53.109  1.00  0.00     0.059 A 
HETATM    6  C5  UNL     1      27.360   0.616  53.340  1.00  0.00     0.109 A 
HETATM    7  C6  UNL     1      28.695   0.805  53.542  1.00  0.00     0.103 A 
HETATM    8 CL1  UNL     1      29.068   2.471  53.796  1.00  0.00    -0.078 Cl
HETATM    9  N1  UNL     1      26.208   1.482  53.295  1.00  0.00    -0.240 NA
HETATM   10  C7  UNL     1      25.452   1.518  52.279  1.00  0.00     0.208 C 
HETATM   11  N2  UNL     1      24.379   1.872  51.407  1.00  0.00    -0.354 N 
HETATM   12  C8  UNL     1      23.469   1.304  52.332  1.00  0.00     0.007 C 
HETATM   13  C9  UNL     1      22.703   2.331  52.652  1.00  0.00     0.000 C 
HETATM   14  C16 UNL     1      23.148   0.014  52.994  1.00  0.00     0.076 C 
HETATM   15  C17 UNL     1      24.316  -0.511  53.792  1.00  0.00     0.126 C 
HETATM   16  N3  UNL     1      25.385  -0.861  52.881  1.00  0.00    -0.388 N 
HETATM   17  H4  UNL     1      24.292   2.315  50.503  1.00  0.00     0.166 HD
HETATM   18  H24 UNL     1      25.298  -1.311  51.942  1.00  0.00     0.159 HD
ENDROOT
BRANCH  13  19
HETATM   19  C10 UNL     1      22.712   3.761  52.210  1.00  0.00     0.055 C 
BRANCH  19  20
HETATM   20  C11 UNL     1      21.601   3.900  51.200  1.00  0.00     0.171 C 
BRANCH  20  21
HETATM   21  O1  UNL     1      21.857   3.336  49.981  1.00  0.00    -0.391 OA
BRANCH  21  22
HETATM   22  C12 UNL     1      20.725   2.698  49.498  1.00  0.00     0.167 C 
BRANCH  22  23
HETATM   23  C13 UNL     1      21.062   1.211  49.464  1.00  0.00     0.027 C 
BRANCH  23  24
HETATM   24  C14 UNL     1      20.257   0.464  50.500  1.00  0.00     0.006 C 
BRANCH  24  25
HETATM   25  C15 UNL     1      19.071   1.267  50.978  1.00  0.00     0.028 C 
BRANCH  25  26
HETATM   26  P1  UNL     1      17.540   0.307  50.548  1.00  0.00    -0.141 P 
HETATM   27  H18 UNL     1      16.364   1.068  50.931  1.00  0.00     0.054 HD
HETATM   28  H19 UNL     1      17.533  -0.994  51.214  1.00  0.00     0.054 HD
ENDBRANCH  25  26
ENDBRANCH  24  25
ENDBRANCH  23  24
ENDBRANCH  22  23
ENDBRANCH  21  22
ENDBRANCH  20  21
ENDBRANCH  19  20
ENDBRANCH  13  19
TORSDOF 8
ENDMDL
MODEL 7
REMARK VINA RESULT:      -6.9      4.959      7.056
REMARK  8 active torsions:
REMARK  status: ('A' for Active; 'I' for Inactive)
REMARK    1  A    between atoms: C9_13  and  C10_14 
REMARK    2  A    between atoms: C10_14  and  C11_15 
REMARK    3  A    between atoms: C11_15  and  O1_16 
REMARK    4  A    between atoms: O1_16  and  C12_17 
REMARK    5  A    between atoms: C12_17  and  C13_18 
REMARK    6  A    between atoms: C13_18  and  C14_19 
REMARK    7  A    between atoms: C14_19  and  C15_20 
REMARK    8  A    between atoms: C15_20  and  P1_21 
ROOT
HETATM    1  F1  UNL     1      30.148  -1.341  53.905  1.00  0.00    -0.204 F 
HETATM    2  C1  UNL     1      29.255  -0.350  53.629  1.00  0.00     0.140 A 
HETATM    3  C2  UNL     1      29.480   0.989  53.862  1.00  0.00     0.046 A 
HETATM    4  C3  UNL     1      28.494   1.895  53.538  1.00  0.00     0.034 A 
HETATM    5  C4  UNL     1      27.294   1.497  52.989  1.00  0.00     0.059 A 
HETATM    6  C5  UNL     1      27.113   0.106  52.770  1.00  0.00     0.109 A 
HETATM    7  C6  UNL     1      28.077  -0.806  53.084  1.00  0.00     0.103 A 
HETATM    8 CL1  UNL     1      27.575  -2.414  52.706  1.00  0.00    -0.078 Cl
HETATM    9  N1  UNL     1      25.791   0.029  52.200  1.00  0.00    -0.240 NA
HETATM   10  C7  UNL     1      24.784   0.499  52.809  1.00  0.00     0.208 C 
HETATM   11  N2  UNL     1      23.438   0.869  53.106  1.00  0.00    -0.354 N 
HETATM   12  C8  UNL     1      23.468   1.770  52.013  1.00  0.00     0.007 C 
HETATM   13  C9  UNL     1      22.499   1.318  51.238  1.00  0.00     0.000 C 
HETATM   14  C16 UNL     1      24.200   2.964  51.519  1.00  0.00     0.076 C 
HETATM   15  C17 UNL     1      25.675   2.689  51.357  1.00  0.00     0.126 C 
HETATM   16  N3  UNL     1      26.254   2.460  52.663  1.00  0.00    -0.388 N 
HETATM   17  H4  UNL     1      22.754   0.623  53.807  1.00  0.00     0.166 HD
HETATM   18  H24 UNL     1      26.028   2.957  53.555  1.00  0.00     0.159 HD
ENDROOT
BRANCH  13  19
HETATM   19  C10 UNL     1      21.558   0.162  51.385  1.00  0.00     0.055 C 
BRANCH  19  20
HETATM   20  C11 UNL     1      20.167   0.728  51.250  1.00  0.00     0.171 C 
BRANCH  20  21
HETATM   21  O1  UNL     1      19.949   1.891  51.935  1.00  0.00    -0.391 OA
BRANCH  21  22
HETATM   22  C12 UNL     1      18.746   2.461  51.547  1.00  0.00     0.167 C 
BRANCH  22  23
HETATM   23  C13 UNL     1      19.081   3.878  51.090  1.00  0.00     0.027 C 
BRANCH  23  24
HETATM   24  C14 UNL     1      20.447   4.283  51.590  1.00  0.00     0.006 C 
BRANCH  24  25
HETATM   25  C15 UNL     1      21.245   5.002  50.527  1.00  0.00     0.028 C 
BRANCH  25  26
HETATM   26  P1  UNL     1      20.881   4.175  48.904  1.00  0.00    -0.141 P 
HETATM   27  H18 UNL     1      19.614   3.470  48.990  1.00  0.00     0.054 HD
HETATM   28  H19 UNL     1      21.947   3.245  48.538  1.00  0.00     0.054 HD
ENDBRANCH  25  26
ENDBRANCH  24  25
ENDBRANCH  23  24
ENDBRANCH  22  23
ENDBRANCH  21  22
ENDBRANCH  20  21
ENDBRANCH  19  20
ENDBRANCH  13  19
TORSDOF 8
ENDMDL
MODEL 8
REMARK VINA RESULT:      -6.7      4.041      6.085
REMARK  8 active torsions:
REMARK  status: ('A' for Active; 'I' for Inactive)
REMARK    1  A    between atoms: C9_13  and  C10_14 
REMARK    2  A    between atoms: C10_14  and  C11_15 
REMARK    3  A    between atoms: C11_15  and  O1_16 
REMARK    4  A    between atoms: O1_16  and  C12_17 
REMARK    5  A    between atoms: C12_17  and  C13_18 
REMARK    6  A    between atoms: C13_18  and  C14_19 
REMARK    7  A    between atoms: C14_19  and  C15_20 
REMARK    8  A    between atoms: C15_20  and  P1_21 
ROOT
HETATM    1  F1  UNL     1      25.806  -1.219  54.399  1.00  0.00    -0.204 F 
HETATM    2  C1  UNL     1      26.142  -0.154  53.619  1.00  0.00     0.140 A 
HETATM    3  C2  UNL     1      27.422   0.335  53.477  1.00  0.00     0.046 A 
HETATM    4  C3  UNL     1      27.632   1.421  52.656  1.00  0.00     0.034 A 
HETATM    5  C4  UNL     1      26.598   2.028  51.976  1.00  0.00     0.059 A 
HETATM    6  C5  UNL     1      25.298   1.485  52.158  1.00  0.00     0.109 A 
HETATM    7  C6  UNL     1      25.070   0.411  52.966  1.00  0.00     0.103 A 
HETATM    8 CL1  UNL     1      23.400  -0.023  52.989  1.00  0.00    -0.078 Cl
HETATM    9  N1  UNL     1      24.469   2.325  51.329  1.00  0.00    -0.240 NA
HETATM   10  C7  UNL     1      24.433   3.581  51.494  1.00  0.00     0.208 C 
HETATM   11  N2  UNL     1      24.093   4.956  51.319  1.00  0.00    -0.354 N 
HETATM   12  C8  UNL     1      24.713   4.924  50.046  1.00  0.00     0.007 C 
HETATM   13  C9  UNL     1      23.720   5.234  49.233  1.00  0.00     0.000 C 
HETATM   14  C16 UNL     1      26.029   4.665  49.406  1.00  0.00     0.076 C 
HETATM   15  C17 UNL     1      26.534   3.276  49.708  1.00  0.00     0.126 C 
HETATM   16  N3  UNL     1      26.827   3.183  51.122  1.00  0.00    -0.388 N 
HETATM   17  H4  UNL     1      23.632   5.667  51.869  1.00  0.00     0.166 HD
HETATM   18  H24 UNL     1      27.257   3.915  51.732  1.00  0.00     0.159 HD
ENDROOT
BRANCH  13  19
HETATM   19  C10 UNL     1      22.280   5.552  49.489  1.00  0.00     0.055 C 
BRANCH  19  20
HETATM   20  C11 UNL     1      21.479   4.696  48.540  1.00  0.00     0.171 C 
BRANCH  20  21
HETATM   21  O1  UNL     1      21.987   3.445  48.326  1.00  0.00    -0.391 OA
BRANCH  21  22
HETATM   22  C12 UNL     1      20.963   2.512  48.268  1.00  0.00     0.167 C 
BRANCH  22  23
HETATM   23  C13 UNL     1      21.562   1.199  48.763  1.00  0.00     0.027 C 
BRANCH  23  24
HETATM   24  C14 UNL     1      21.297   1.024  50.239  1.00  0.00     0.006 C 
BRANCH  24  25
HETATM   25  C15 UNL     1      20.064   1.774  50.684  1.00  0.00     0.028 C 
BRANCH  25  26
HETATM   26  P1  UNL     1      20.547   2.828  52.135  1.00  0.00    -0.141 P 
HETATM   27  H18 UNL     1      21.896   2.491  52.553  1.00  0.00     0.054 HD
HETATM   28  H19 UNL     1      19.618   2.645  53.248  1.00  0.00     0.054 HD
ENDBRANCH  25  26
ENDBRANCH  24  25
ENDBRANCH  23  24
ENDBRANCH  22  23
ENDBRANCH  21  22
ENDBRANCH  20  21
ENDBRANCH  19  20
ENDBRANCH  13  19
TORSDOF 8
ENDMDL
MODEL 9
REMARK VINA RESULT:      -6.6      2.969      3.932
REMARK  8 active torsions:
REMARK  status: ('A' for Active; 'I' for Inactive)
REMARK    1  A    between atoms: C9_13  and  C10_14 
REMARK    2  A    between atoms: C10_14  and  C11_15 
REMARK    3  A    between atoms: C11_15  and  O1_16 
REMARK    4  A    between atoms: O1_16  and  C12_17 
REMARK    5  A    between atoms: C12_17  and  C13_18 
REMARK    6  A    between atoms: C13_18  and  C14_19 
REMARK    7  A    between atoms: C14_19  and  C15_20 
REMARK    8  A    between atoms: C15_20  and  P1_21 
ROOT
HETATM    1  F1  UNL     1      24.736  -1.504  55.368  1.00  0.00    -0.204 F 
HETATM    2  C1  UNL     1      25.227  -0.483  54.611  1.00  0.00     0.140 A 
HETATM    3  C2  UNL     1      26.447   0.123  54.819  1.00  0.00     0.046 A 
HETATM    4  C3  UNL     1      26.830   1.148  53.981  1.00  0.00     0.034 A 
HETATM    5  C4  UNL     1      26.028   1.580  52.947  1.00  0.00     0.059 A 
HETATM    6  C5  UNL     1      24.781   0.921  52.778  1.00  0.00     0.109 A 
HETATM    7  C6  UNL     1      24.384  -0.095  53.596  1.00  0.00     0.103 A 
HETATM    8 CL1  UNL     1      22.830  -0.698  53.149  1.00  0.00    -0.078 Cl
HETATM    9  N1  UNL     1      24.203   1.592  51.639  1.00  0.00    -0.240 NA
HETATM   10  C7  UNL     1      24.026   2.846  51.635  1.00  0.00     0.208 C 
HETATM   11  N2  UNL     1      23.664   4.157  51.202  1.00  0.00    -0.354 N 
HETATM   12  C8  UNL     1      24.660   4.077  50.198  1.00  0.00     0.007 C 
HETATM   13  C9  UNL     1      23.960   4.206  49.086  1.00  0.00     0.000 C 
HETATM   14  C16 UNL     1      26.126   3.903  50.035  1.00  0.00     0.076 C 
HETATM   15  C17 UNL     1      26.606   2.607  50.641  1.00  0.00     0.126 C 
HETATM   16  N3  UNL     1      26.436   2.671  52.077  1.00  0.00    -0.388 N 
HETATM   17  H4  UNL     1      23.001   4.861  51.493  1.00  0.00     0.166 HD
HETATM   18  H24 UNL     1      26.594   3.496  52.699  1.00  0.00     0.159 HD
ENDROOT
BRANCH  13  19
HETATM   19  C10 UNL     1      22.495   4.393  48.842  1.00  0.00     0.055 C 
BRANCH  19  20
HETATM   20  C11 UNL     1      22.294   5.861  48.560  1.00  0.00     0.171 C 
BRANCH  20  21
HETATM   21  O1  UNL     1      22.271   6.662  49.667  1.00  0.00    -0.391 OA
BRANCH  21  22
HETATM   22  C12 UNL     1      23.117   7.747  49.496  1.00  0.00     0.167 C 
BRANCH  22  23
HETATM   23  C13 UNL     1      24.022   7.773  50.724  1.00  0.00     0.027 C 
BRANCH  23  24
HETATM   24  C14 UNL     1      25.468   7.629  50.315  1.00  0.00     0.006 C 
BRANCH  24  25
HETATM   25  C15 UNL     1      25.627   7.576  48.814  1.00  0.00     0.028 C 
BRANCH  25  26
HETATM   26  P1  UNL     1      27.212   8.448  48.392  1.00  0.00    -0.141 P 
HETATM   27  H18 UNL     1      27.607   9.302  49.498  1.00  0.00     0.054 HD
HETATM   28  H19 UNL     1      27.065   9.241  47.174  1.00  0.00     0.054 HD
ENDBRANCH  25  26
ENDBRANCH  24  25
ENDBRANCH  23  24
ENDBRANCH  22  23
ENDBRANCH  21  22
ENDBRANCH  20  21
ENDBRANCH  19  20
ENDBRANCH  13  19
TORSDOF 8
ENDMDL
