MODEL 1
REMARK VINA RESULT:      -8.7      0.000      0.000
REMARK  4 active torsions:
REMARK  status: ('A' for Active; 'I' for Inactive)
REMARK    1  A    between atoms: O1_2  and  C2_3 
REMARK    2  A    between atoms: C6_9  and  C7_10 
REMARK    3  A    between atoms: C16_22  and  C17_23 
REMARK    4  A    between atoms: C17_23  and  N6_24 
ROOT
HETATM    1  C2  UNL     1      22.180   4.618  51.218  1.00  0.00     0.078 A 
HETATM    2  C3  UNL     1      21.433   3.534  51.631  1.00  0.00     0.070 A 
HETATM    3  C4  UNL     1      22.049   2.491  52.267  1.00  0.00     0.073 A 
HETATM    4  N1  UNL     1      21.278   1.469  52.646  1.00  0.00    -0.241 NA
HETATM    5  C5  UNL     1      21.851   0.428  53.274  1.00  0.00     0.234 A 
HETATM    6  N2  UNL     1      23.161   0.392  53.526  1.00  0.00    -0.237 NA
HETATM    7  C6  UNL     1      24.008   1.364  53.188  1.00  0.00     0.120 A 
HETATM    8  C14 UNL     1      23.396   2.417  52.546  1.00  0.00     0.026 A 
HETATM    9  C15 UNL     1      24.119   3.509  52.124  1.00  0.00     0.028 A 
HETATM   10  C16 UNL     1      23.553   4.577  51.485  1.00  0.00     0.004 A 
ENDROOT
BRANCH   7  11
HETATM   11  C7  UNL     1      25.436   1.319  53.467  1.00  0.00     0.202 A 
HETATM   12  N3  UNL     1      26.343   2.156  53.961  1.00  0.00    -0.127 NA
HETATM   13  N4  UNL     1      27.614   1.900  54.132  1.00  0.00    -0.146 NA
HETATM   14  C8  UNL     1      28.157   0.723  53.814  1.00  0.00     0.108 A 
HETATM   15  C9  UNL     1      29.498   0.475  54.003  1.00  0.00     0.036 A 
HETATM   16  C13 UNL     1      27.285  -0.189  53.300  1.00  0.00     0.089 A 
HETATM   17  C10 UNL     1      29.971  -0.780  53.643  1.00  0.00     0.003 A 
HETATM   18  C11 UNL     1      29.105  -1.725  53.119  1.00  0.00     0.002 A 
HETATM   19  C12 UNL     1      27.761  -1.443  52.942  1.00  0.00     0.034 A 
HETATM   20  N5  UNL     1      26.005   0.146  53.157  1.00  0.00    -0.224 NA
ENDBRANCH   7  11
BRANCH  10  21
HETATM   21  C17 UNL     1      24.359   5.764  51.031  1.00  0.00     0.308 C 
BRANCH  21  22
HETATM   22  N6  UNL     1      24.311   6.843  51.990  1.00  0.00     0.082 N 
HETATM   23  H13 UNL     1      24.391   7.778  51.565  1.00  0.00     0.313 HD
HETATM   24  H14 UNL     1      24.869   6.657  52.828  1.00  0.00     0.313 HD
ENDBRANCH  21  22
ENDBRANCH  10  21
BRANCH   1  25
HETATM   25  O1  UNL     1      21.638   5.701  50.574  1.00  0.00    -0.355 OA
HETATM   26  C1  UNL     1      21.031   5.685  49.301  1.00  0.00     0.210 C 
ENDBRANCH   1  25
TORSDOF 4
ENDMDL
MODEL 2
REMARK VINA RESULT:      -8.5      2.151      2.357
REMARK  4 active torsions:
REMARK  status: ('A' for Active; 'I' for Inactive)
REMARK    1  A    between atoms: O1_2  and  C2_3 
REMARK    2  A    between atoms: C6_9  and  C7_10 
REMARK    3  A    between atoms: C16_22  and  C17_23 
REMARK    4  A    between atoms: C17_23  and  N6_24 
ROOT
HETATM    1  C2  UNL     1      21.226   1.212  50.628  1.00  0.00     0.078 A 
HETATM    2  C3  UNL     1      20.779   0.348  51.607  1.00  0.00     0.070 A 
HETATM    3  C4  UNL     1      21.637  -0.055  52.594  1.00  0.00     0.073 A 
HETATM    4  N1  UNL     1      21.151  -0.889  53.516  1.00  0.00    -0.241 NA
HETATM    5  C5  UNL     1      21.967  -1.305  54.501  1.00  0.00     0.234 A 
HETATM    6  N2  UNL     1      23.238  -0.908  54.577  1.00  0.00    -0.237 NA
HETATM    7  C6  UNL     1      23.809  -0.077  53.706  1.00  0.00     0.120 A 
HETATM    8  C14 UNL     1      22.953   0.333  52.708  1.00  0.00     0.026 A 
HETATM    9  C15 UNL     1      23.374   1.193  51.720  1.00  0.00     0.028 A 
HETATM   10  C16 UNL     1      22.559   1.628  50.711  1.00  0.00     0.004 A 
ENDROOT
BRANCH   7  11
HETATM   11  C7  UNL     1      25.196   0.353  53.796  1.00  0.00     0.202 A 
HETATM   12  N3  UNL     1      25.832   1.485  54.084  1.00  0.00    -0.127 NA
HETATM   13  N4  UNL     1      27.128   1.655  54.108  1.00  0.00    -0.146 NA
HETATM   14  C8  UNL     1      27.986   0.669  53.836  1.00  0.00     0.108 A 
HETATM   15  C9  UNL     1      29.347   0.870  53.868  1.00  0.00     0.036 A 
HETATM   16  C13 UNL     1      27.405  -0.525  53.531  1.00  0.00     0.089 A 
HETATM   17  C10 UNL     1      30.158  -0.216  53.570  1.00  0.00     0.003 A 
HETATM   18  C11 UNL     1      29.594  -1.441  53.258  1.00  0.00     0.002 A 
HETATM   19  C12 UNL     1      28.219  -1.609  53.234  1.00  0.00     0.034 A 
HETATM   20  N5  UNL     1      26.077  -0.619  53.527  1.00  0.00    -0.224 NA
ENDBRANCH   7  11
BRANCH  10  21
HETATM   21  C17 UNL     1      23.037   2.569  49.639  1.00  0.00     0.308 C 
BRANCH  21  22
HETATM   22  N6  UNL     1      22.630   3.930  49.900  1.00  0.00     0.082 N 
HETATM   23  H13 UNL     1      21.680   4.148  49.567  1.00  0.00     0.313 HD
HETATM   24  H14 UNL     1      23.367   4.612  49.703  1.00  0.00     0.313 HD
ENDBRANCH  21  22
ENDBRANCH  10  21
BRANCH   1  25
HETATM   25  O1  UNL     1      20.430   1.662  49.605  1.00  0.00    -0.355 OA
HETATM   26  C1  UNL     1      19.279   2.464  49.747  1.00  0.00     0.210 C 
ENDBRANCH   1  25
TORSDOF 4
ENDMDL
MODEL 3
REMARK VINA RESULT:      -8.3      2.456      4.003
REMARK  4 active torsions:
REMARK  status: ('A' for Active; 'I' for Inactive)
REMARK    1  A    between atoms: O1_2  and  C2_3 
REMARK    2  A    between atoms: C6_9  and  C7_10 
REMARK    3  A    between atoms: C16_22  and  C17_23 
REMARK    4  A    between atoms: C17_23  and  N6_24 
ROOT
HETATM    1  C2  UNL     1      20.423   0.002  52.636  1.00  0.00     0.078 A 
HETATM    2  C3  UNL     1      20.544   0.773  51.498  1.00  0.00     0.070 A 
HETATM    3  C4  UNL     1      21.745   1.359  51.204  1.00  0.00     0.073 A 
HETATM    4  N1  UNL     1      21.806   2.092  50.090  1.00  0.00    -0.241 NA
HETATM    5  C5  UNL     1      22.971   2.682  49.771  1.00  0.00     0.234 A 
HETATM    6  N2  UNL     1      24.058   2.552  50.533  1.00  0.00    -0.237 NA
HETATM    7  C6  UNL     1      24.093   1.841  51.659  1.00  0.00     0.120 A 
HETATM    8  C14 UNL     1      22.889   1.248  51.963  1.00  0.00     0.026 A 
HETATM    9  C15 UNL     1      22.741   0.476  53.093  1.00  0.00     0.028 A 
HETATM   10  C16 UNL     1      21.565  -0.132  53.433  1.00  0.00     0.004 A 
ENDROOT
BRANCH   7  11
HETATM   11  C7  UNL     1      25.283   1.703  52.486  1.00  0.00     0.202 A 
HETATM   12  N3  UNL     1      25.893   2.431  53.418  1.00  0.00    -0.127 NA
HETATM   13  N4  UNL     1      26.987   2.106  54.054  1.00  0.00    -0.146 NA
HETATM   14  C8  UNL     1      27.636   0.961  53.826  1.00  0.00     0.108 A 
HETATM   15  C9  UNL     1      28.787   0.638  54.509  1.00  0.00     0.036 A 
HETATM   16  C13 UNL     1      27.068   0.161  52.881  1.00  0.00     0.089 A 
HETATM   17  C10 UNL     1      29.390  -0.574  54.203  1.00  0.00     0.003 A 
HETATM   18  C11 UNL     1      28.833  -1.406  53.247  1.00  0.00     0.002 A 
HETATM   19  C12 UNL     1      27.673  -1.051  52.578  1.00  0.00     0.034 A 
HETATM   20  N5  UNL     1      25.952   0.562  52.277  1.00  0.00    -0.224 NA
ENDBRANCH   7  11
BRANCH  10  21
HETATM   21  C17 UNL     1      21.422  -0.975  54.672  1.00  0.00     0.308 C 
BRANCH  21  22
HETATM   22  N6  UNL     1      22.691  -1.178  55.331  1.00  0.00     0.082 N 
HETATM   23  H13 UNL     1      22.851  -0.542  56.125  1.00  0.00     0.313 HD
HETATM   24  H14 UNL     1      23.464  -1.316  54.673  1.00  0.00     0.313 HD
ENDBRANCH  21  22
ENDBRANCH  10  21
BRANCH   1  25
HETATM   25  O1  UNL     1      19.254  -0.617  53.001  1.00  0.00    -0.355 OA
HETATM   26  C1  UNL     1      18.078  -0.682  52.226  1.00  0.00     0.210 C 
ENDBRANCH   1  25
TORSDOF 4
ENDMDL
MODEL 4
REMARK VINA RESULT:      -8.3      2.413      2.893
REMARK  4 active torsions:
REMARK  status: ('A' for Active; 'I' for Inactive)
REMARK    1  A    between atoms: O1_2  and  C2_3 
REMARK    2  A    between atoms: C6_9  and  C7_10 
REMARK    3  A    between atoms: C16_22  and  C17_23 
REMARK    4  A    between atoms: C17_23  and  N6_24 
ROOT
HETATM    1  C2  UNL     1      25.276   5.519  48.881  1.00  0.00     0.078 A 
HETATM    2  C3  UNL     1      24.109   5.187  49.537  1.00  0.00     0.070 A 
HETATM    3  C4  UNL     1      24.131   4.228  50.512  1.00  0.00     0.073 A 
HETATM    4  N1  UNL     1      22.973   3.948  51.115  1.00  0.00    -0.241 NA
HETATM    5  C5  UNL     1      22.959   3.012  52.079  1.00  0.00     0.234 A 
HETATM    6  N2  UNL     1      24.065   2.361  52.444  1.00  0.00    -0.237 NA
HETATM    7  C6  UNL     1      25.263   2.573  51.902  1.00  0.00     0.120 A 
HETATM    8  C14 UNL     1      25.250   3.536  50.919  1.00  0.00     0.026 A 
HETATM    9  C15 UNL     1      26.401   3.884  50.249  1.00  0.00     0.028 A 
HETATM   10  C16 UNL     1      26.434   4.835  49.267  1.00  0.00     0.004 A 
ENDROOT
BRANCH   7  11
HETATM   11  C7  UNL     1      26.466   1.860  52.307  1.00  0.00     0.202 A 
HETATM   12  N3  UNL     1      27.693   2.193  52.696  1.00  0.00    -0.127 NA
HETATM   13  N4  UNL     1      28.649   1.364  53.024  1.00  0.00    -0.146 NA
HETATM   14  C8  UNL     1      28.486   0.038  53.002  1.00  0.00     0.108 A 
HETATM   15  C9  UNL     1      29.506  -0.817  53.352  1.00  0.00     0.036 A 
HETATM   16  C13 UNL     1      27.250  -0.379  52.612  1.00  0.00     0.089 A 
HETATM   17  C10 UNL     1      29.242  -2.179  53.298  1.00  0.00     0.003 A 
HETATM   18  C11 UNL     1      27.993  -2.630  52.906  1.00  0.00     0.002 A 
HETATM   19  C12 UNL     1      26.988  -1.741  52.559  1.00  0.00     0.034 A 
HETATM   20  N5  UNL     1      26.329   0.528  52.293  1.00  0.00    -0.224 NA
ENDBRANCH   7  11
BRANCH  10  21
HETATM   21  C17 UNL     1      27.703   5.204  48.545  1.00  0.00     0.308 C 
BRANCH  21  22
HETATM   22  N6  UNL     1      28.165   6.522  48.913  1.00  0.00     0.082 N 
HETATM   23  H13 UNL     1      27.935   6.785  49.882  1.00  0.00     0.313 HD
HETATM   24  H14 UNL     1      28.000   7.220  48.183  1.00  0.00     0.313 HD
ENDBRANCH  21  22
ENDBRANCH  10  21
BRANCH   1  25
HETATM   25  O1  UNL     1      25.338   6.467  47.891  1.00  0.00    -0.355 OA
HETATM   26  C1  UNL     1      24.340   7.420  47.600  1.00  0.00     0.210 C 
ENDBRANCH   1  25
TORSDOF 4
ENDMDL
MODEL 5
REMARK VINA RESULT:      -8.2      3.379      7.181
REMARK  4 active torsions:
REMARK  status: ('A' for Active; 'I' for Inactive)
REMARK    1  A    between atoms: O1_2  and  C2_3 
REMARK    2  A    between atoms: C6_9  and  C7_10 
REMARK    3  A    between atoms: C16_22  and  C17_23 
REMARK    4  A    between atoms: C17_23  and  N6_24 
ROOT
HETATM    1  C2  UNL     1      27.026   0.611  53.286  1.00  0.00     0.078 A 
HETATM    2  C3  UNL     1      26.621  -0.124  54.383  1.00  0.00     0.070 A 
HETATM    3  C4  UNL     1      25.304  -0.464  54.519  1.00  0.00     0.073 A 
HETATM    4  N1  UNL     1      24.968  -1.176  55.597  1.00  0.00    -0.241 NA
HETATM    5  C5  UNL     1      23.681  -1.528  55.762  1.00  0.00     0.234 A 
HETATM    6  N2  UNL     1      22.740  -1.186  54.881  1.00  0.00    -0.237 NA
HETATM    7  C6  UNL     1      22.979  -0.479  53.777  1.00  0.00     0.120 A 
HETATM    8  C14 UNL     1      24.303  -0.132  53.632  1.00  0.00     0.026 A 
HETATM    9  C15 UNL     1      24.732   0.601  52.549  1.00  0.00     0.028 A 
HETATM   10  C16 UNL     1      26.036   0.967  52.364  1.00  0.00     0.004 A 
ENDROOT
BRANCH   7  11
HETATM   11  C7  UNL     1      21.947  -0.110  52.819  1.00  0.00     0.202 A 
HETATM   12  N3  UNL     1      21.901   0.547  51.664  1.00  0.00    -0.127 NA
HETATM   13  N4  UNL     1      20.831   0.770  50.947  1.00  0.00    -0.146 NA
HETATM   14  C8  UNL     1      19.620   0.343  51.314  1.00  0.00     0.108 A 
HETATM   15  C9  UNL     1      18.507   0.588  50.542  1.00  0.00     0.036 A 
HETATM   16  C13 UNL     1      19.589  -0.341  52.491  1.00  0.00     0.089 A 
HETATM   17  C10 UNL     1      17.292   0.104  51.007  1.00  0.00     0.003 A 
HETATM   18  C11 UNL     1      17.232  -0.596  52.200  1.00  0.00     0.002 A 
HETATM   19  C12 UNL     1      18.372  -0.825  52.952  1.00  0.00     0.034 A 
HETATM   20  N5  UNL     1      20.722  -0.528  53.164  1.00  0.00    -0.224 NA
ENDBRANCH   7  11
BRANCH  10  21
HETATM   21  C17 UNL     1      26.487   1.768  51.172  1.00  0.00     0.308 C 
BRANCH  21  22
HETATM   22  N6  UNL     1      26.871   3.110  51.543  1.00  0.00     0.082 N 
HETATM   23  H13 UNL     1      27.593   3.145  52.276  1.00  0.00     0.313 HD
HETATM   24  H14 UNL     1      26.071   3.742  51.637  1.00  0.00     0.313 HD
ENDBRANCH  21  22
ENDBRANCH  10  21
BRANCH   1  25
HETATM   25  O1  UNL     1      28.327   0.992  53.078  1.00  0.00    -0.355 OA
HETATM   26  C1  UNL     1      29.446   0.542  53.809  1.00  0.00     0.210 C 
ENDBRANCH   1  25
TORSDOF 4
ENDMDL
MODEL 6
REMARK VINA RESULT:      -8.1      2.633      6.462
REMARK  4 active torsions:
REMARK  status: ('A' for Active; 'I' for Inactive)
REMARK    1  A    between atoms: O1_2  and  C2_3 
REMARK    2  A    between atoms: C6_9  and  C7_10 
REMARK    3  A    between atoms: C16_22  and  C17_23 
REMARK    4  A    between atoms: C17_23  and  N6_24 
ROOT
HETATM    1  C2  UNL     1      27.258  -0.042  53.828  1.00  0.00     0.078 A 
HETATM    2  C3  UNL     1      26.004  -0.615  53.771  1.00  0.00     0.070 A 
HETATM    3  C4  UNL     1      24.946   0.120  53.310  1.00  0.00     0.073 A 
HETATM    4  N1  UNL     1      23.756  -0.485  53.275  1.00  0.00    -0.241 NA
HETATM    5  C5  UNL     1      22.695   0.208  52.827  1.00  0.00     0.234 A 
HETATM    6  N2  UNL     1      22.801   1.474  52.422  1.00  0.00    -0.237 NA
HETATM    7  C6  UNL     1      23.944   2.159  52.420  1.00  0.00     0.120 A 
HETATM    8  C14 UNL     1      25.014   1.427  52.882  1.00  0.00     0.026 A 
HETATM    9  C15 UNL     1      26.275   1.976  52.950  1.00  0.00     0.028 A 
HETATM   10  C16 UNL     1      27.366   1.286  53.402  1.00  0.00     0.004 A 
ENDROOT
BRANCH   7  11
HETATM   11  C7  UNL     1      24.053   3.540  51.975  1.00  0.00     0.202 A 
HETATM   12  N3  UNL     1      23.543   4.711  52.349  1.00  0.00    -0.127 NA
HETATM   13  N4  UNL     1      23.785   5.869  51.791  1.00  0.00    -0.146 NA
HETATM   14  C8  UNL     1      24.602   6.004  50.745  1.00  0.00     0.108 A 
HETATM   15  C9  UNL     1      24.843   7.233  50.173  1.00  0.00     0.036 A 
HETATM   16  C13 UNL     1      25.164   4.843  50.305  1.00  0.00     0.089 A 
HETATM   17  C10 UNL     1      25.708   7.273  49.089  1.00  0.00     0.003 A 
HETATM   18  C11 UNL     1      26.293   6.108  48.623  1.00  0.00     0.002 A 
HETATM   19  C12 UNL     1      26.029   4.886  49.221  1.00  0.00     0.034 A 
HETATM   20  N5  UNL     1      24.869   3.703  50.926  1.00  0.00    -0.224 NA
ENDBRANCH   7  11
BRANCH  10  21
HETATM   21  C17 UNL     1      28.737   1.903  53.469  1.00  0.00     0.308 C 
BRANCH  21  22
HETATM   22  N6  UNL     1      29.228   1.973  54.826  1.00  0.00     0.082 N 
HETATM   23  H13 UNL     1      29.473   2.926  55.127  1.00  0.00     0.313 HD
HETATM   24  H14 UNL     1      29.886   1.222  55.051  1.00  0.00     0.313 HD
ENDBRANCH  21  22
ENDBRANCH  10  21
BRANCH   1  25
HETATM   25  O1  UNL     1      28.368  -0.710  54.278  1.00  0.00    -0.355 OA
HETATM   26  C1  UNL     1      29.199  -1.545  53.502  1.00  0.00     0.210 C 
ENDBRANCH   1  25
TORSDOF 4
ENDMDL
MODEL 7
REMARK VINA RESULT:      -8.0      6.985      8.642
REMARK  4 active torsions:
REMARK  status: ('A' for Active; 'I' for Inactive)
REMARK    1  A    between atoms: O1_2  and  C2_3 
REMARK    2  A    between atoms: C6_9  and  C7_10 
REMARK    3  A    between atoms: C16_22  and  C17_23 
REMARK    4  A    between atoms: C17_23  and  N6_24 
ROOT
HETATM    1  C2  UNL     1      26.002   5.806  48.768  1.00  0.00     0.078 A 
HETATM    2  C3  UNL     1      26.305   7.050  48.254  1.00  0.00     0.070 A 
HETATM    3  C4  UNL     1      27.587   7.326  47.864  1.00  0.00     0.073 A 
HETATM    4  N1  UNL     1      27.823   8.544  47.373  1.00  0.00    -0.241 NA
HETATM    5  C5  UNL     1      29.072   8.849  46.979  1.00  0.00     0.234 A 
HETATM    6  N2  UNL     1      30.072   7.970  47.067  1.00  0.00    -0.237 NA
HETATM    7  C6  UNL     1      29.932   6.733  47.542  1.00  0.00     0.120 A 
HETATM    8  C14 UNL     1      28.645   6.447  47.938  1.00  0.00     0.026 A 
HETATM    9  C15 UNL     1      28.317   5.214  48.454  1.00  0.00     0.028 A 
HETATM   10  C16 UNL     1      27.052   4.886  48.858  1.00  0.00     0.004 A 
ENDROOT
BRANCH   7  11
HETATM   11  C7  UNL     1      31.027   5.779  47.634  1.00  0.00     0.202 A 
HETATM   12  N3  UNL     1      31.464   4.905  48.537  1.00  0.00    -0.127 NA
HETATM   13  N4  UNL     1      32.502   4.121  48.410  1.00  0.00    -0.146 NA
HETATM   14  C8  UNL     1      33.266   4.114  47.314  1.00  0.00     0.108 A 
HETATM   15  C9  UNL     1      34.355   3.279  47.201  1.00  0.00     0.036 A 
HETATM   16  C13 UNL     1      32.877   4.986  46.343  1.00  0.00     0.089 A 
HETATM   17  C10 UNL     1      35.087   3.344  46.024  1.00  0.00     0.003 A 
HETATM   18  C11 UNL     1      34.713   4.221  45.020  1.00  0.00     0.002 A 
HETATM   19  C12 UNL     1      33.612   5.048  45.166  1.00  0.00     0.034 A 
HETATM   20  N5  UNL     1      31.808   5.752  46.546  1.00  0.00    -0.224 NA
ENDBRANCH   7  11
BRANCH  10  21
HETATM   21  C17 UNL     1      26.712   3.532  49.420  1.00  0.00     0.308 C 
BRANCH  21  22
HETATM   22  N6  UNL     1      26.596   3.563  50.860  1.00  0.00     0.082 N 
HETATM   23  H13 UNL     1      25.918   2.885  51.234  1.00  0.00     0.313 HD
HETATM   24  H14 UNL     1      26.569   4.515  51.237  1.00  0.00     0.313 HD
ENDBRANCH  21  22
ENDBRANCH  10  21
BRANCH   1  25
HETATM   25  O1  UNL     1      24.743   5.452  49.182  1.00  0.00    -0.355 OA
HETATM   26  C1  UNL     1      24.012   6.067  50.219  1.00  0.00     0.210 C 
ENDBRANCH   1  25
TORSDOF 4
ENDMDL
MODEL 8
REMARK VINA RESULT:      -7.9      3.190      6.093
REMARK  4 active torsions:
REMARK  status: ('A' for Active; 'I' for Inactive)
REMARK    1  A    between atoms: O1_2  and  C2_3 
REMARK    2  A    between atoms: C6_9  and  C7_10 
REMARK    3  A    between atoms: C16_22  and  C17_23 
REMARK    4  A    between atoms: C17_23  and  N6_24 
ROOT
HETATM    1  C2  UNL     1      23.128   0.029  53.479  1.00  0.00     0.078 A 
HETATM    2  C3  UNL     1      22.080   0.881  53.193  1.00  0.00     0.070 A 
HETATM    3  C4  UNL     1      22.284   1.944  52.357  1.00  0.00     0.073 A 
HETATM    4  N1  UNL     1      21.236   2.734  52.113  1.00  0.00    -0.241 NA
HETATM    5  C5  UNL     1      21.400   3.788  51.295  1.00  0.00     0.234 A 
HETATM    6  N2  UNL     1      22.576   4.061  50.726  1.00  0.00    -0.237 NA
HETATM    7  C6  UNL     1      23.675   3.330  50.908  1.00  0.00     0.120 A 
HETATM    8  C14 UNL     1      23.479   2.259  51.749  1.00  0.00     0.026 A 
HETATM    9  C15 UNL     1      24.508   1.395  52.051  1.00  0.00     0.028 A 
HETATM   10  C16 UNL     1      24.359   0.318  52.880  1.00  0.00     0.004 A 
ENDROOT
BRANCH   7  11
HETATM   11  C7  UNL     1      24.954   3.633  50.283  1.00  0.00     0.202 A 
HETATM   12  N3  UNL     1      26.085   2.975  50.046  1.00  0.00    -0.127 NA
HETATM   13  N4  UNL     1      27.144   3.455  49.449  1.00  0.00    -0.146 NA
HETATM   14  C8  UNL     1      27.205   4.710  48.995  1.00  0.00     0.108 A 
HETATM   15  C9  UNL     1      28.331   5.194  48.369  1.00  0.00     0.036 A 
HETATM   16  C13 UNL     1      26.078   5.447  49.203  1.00  0.00     0.089 A 
HETATM   17  C10 UNL     1      28.298   6.511  47.931  1.00  0.00     0.003 A 
HETATM   18  C11 UNL     1      27.166   7.282  48.129  1.00  0.00     0.002 A 
HETATM   19  C12 UNL     1      26.049   6.763  48.764  1.00  0.00     0.034 A 
HETATM   20  N5  UNL     1      25.040   4.887  49.819  1.00  0.00    -0.224 NA
ENDBRANCH   7  11
BRANCH  10  21
HETATM   21  C17 UNL     1      25.495  -0.617  53.199  1.00  0.00     0.308 C 
BRANCH  21  22
HETATM   22  N6  UNL     1      25.784  -0.646  54.614  1.00  0.00     0.082 N 
HETATM   23  H13 UNL     1      24.989  -0.952  55.191  1.00  0.00     0.313 HD
HETATM   24  H14 UNL     1      26.309   0.174  54.930  1.00  0.00     0.313 HD
ENDBRANCH  21  22
ENDBRANCH  10  21
BRANCH   1  25
HETATM   25  O1  UNL     1      23.006  -1.057  54.308  1.00  0.00    -0.355 OA
HETATM   26  C1  UNL     1      21.817  -1.771  54.562  1.00  0.00     0.210 C 
ENDBRANCH   1  25
TORSDOF 4
ENDMDL
MODEL 9
REMARK VINA RESULT:      -7.9      2.852      6.708
REMARK  4 active torsions:
REMARK  status: ('A' for Active; 'I' for Inactive)
REMARK    1  A    between atoms: O1_2  and  C2_3 
REMARK    2  A    between atoms: C6_9  and  C7_10 
REMARK    3  A    between atoms: C16_22  and  C17_23 
REMARK    4  A    between atoms: C17_23  and  N6_24 
ROOT
HETATM    1  C2  UNL     1      26.535   0.043  53.898  1.00  0.00     0.078 A 
HETATM    2  C3  UNL     1      25.410  -0.709  54.170  1.00  0.00     0.070 A 
HETATM    3  C4  UNL     1      24.211  -0.358  53.614  1.00  0.00     0.073 A 
HETATM    4  N1  UNL     1      23.157  -1.121  53.911  1.00  0.00    -0.241 NA
HETATM    5  C5  UNL     1      21.963  -0.804  53.381  1.00  0.00     0.234 A 
HETATM    6  N2  UNL     1      21.808   0.246  52.573  1.00  0.00    -0.237 NA
HETATM    7  C6  UNL     1      22.799   1.062  52.220  1.00  0.00     0.120 A 
HETATM    8  C14 UNL     1      24.010   0.717  52.776  1.00  0.00     0.026 A 
HETATM    9  C15 UNL     1      25.146   1.451  52.520  1.00  0.00     0.028 A 
HETATM   10  C16 UNL     1      26.369   1.143  53.049  1.00  0.00     0.004 A 
ENDROOT
BRANCH   7  11
HETATM   11  C7  UNL     1      22.623   2.206  51.337  1.00  0.00     0.202 A 
HETATM   12  N3  UNL     1      22.512   3.523  51.484  1.00  0.00    -0.127 NA
HETATM   13  N4  UNL     1      22.356   4.395  50.523  1.00  0.00    -0.146 NA
HETATM   14  C8  UNL     1      22.289   4.040  49.237  1.00  0.00     0.108 A 
HETATM   15  C9  UNL     1      22.125   4.976  48.240  1.00  0.00     0.036 A 
HETATM   16  C13 UNL     1      22.396   2.702  49.008  1.00  0.00     0.089 A 
HETATM   17  C10 UNL     1      22.067   4.510  46.934  1.00  0.00     0.003 A 
HETATM   18  C11 UNL     1      22.174   3.155  46.673  1.00  0.00     0.002 A 
HETATM   19  C12 UNL     1      22.338   2.240  47.700  1.00  0.00     0.034 A 
HETATM   20  N5  UNL     1      22.554   1.877  50.040  1.00  0.00    -0.224 NA
ENDBRANCH   7  11
BRANCH  10  21
HETATM   21  C17 UNL     1      27.600   1.957  52.758  1.00  0.00     0.308 C 
BRANCH  21  22
HETATM   22  N6  UNL     1      28.091   2.628  53.939  1.00  0.00     0.082 N 
HETATM   23  H13 UNL     1      28.479   3.563  53.752  1.00  0.00     0.313 HD
HETATM   24  H14 UNL     1      28.625   2.010  54.556  1.00  0.00     0.313 HD
ENDBRANCH  21  22
ENDBRANCH  10  21
BRANCH   1  25
HETATM   25  O1  UNL     1      27.772  -0.243  54.416  1.00  0.00    -0.355 OA
HETATM   26  C1  UNL     1      28.765  -1.028  53.795  1.00  0.00     0.210 C 
ENDBRANCH   1  25
TORSDOF 4
ENDMDL
