MODEL 1
REMARK VINA RESULT:      -8.6      0.000      0.000
REMARK  4 active torsions:
REMARK  status: ('A' for Active; 'I' for Inactive)
REMARK    1  A    between atoms: C5_5  and  C6_6 
REMARK    2  A    between atoms: C7_7  and  C8_8 
REMARK       I    between atoms: C8_8  and  N1_10 
REMARK    3  A    between atoms: N1_10  and  C9_11 
REMARK    4  A    between atoms: C16_21  and  C17_22 
ROOT
HETATM    1  C9  UNL     1      20.053   0.232  52.348  1.00  0.00     0.022 C 
HETATM    2  C10 UNL     1      19.000  -0.600  52.588  1.00  0.00     0.027 C 
HETATM    3  C11 UNL     1      17.572  -0.445  52.333  1.00  0.00     0.021 C 
HETATM    4  C12 UNL     1      16.669   0.377  51.841  1.00  0.00     0.118 C 
HETATM    5  N2  UNL     1      15.925   1.399  51.279  1.00  0.00    -0.254 NA
HETATM    6  C13 UNL     1      16.212   2.456  50.649  1.00  0.00     0.233 C 
HETATM    7  N3  UNL     1      17.515   2.792  50.395  1.00  0.00    -0.237 NA
HETATM    8  C14 UNL     1      18.210   3.545  49.718  1.00  0.00     0.208 C 
HETATM    9  N4  UNL     1      19.587   3.222  50.087  1.00  0.00    -0.354 N 
HETATM   10  C15 UNL     1      20.085   1.877  50.392  1.00  0.00     0.017 C 
HETATM   11  C16 UNL     1      20.630   1.344  49.338  1.00  0.00     0.014 C 
HETATM   12  C18 UNL     1      19.775   1.552  51.775  1.00  0.00     0.081 C 
HETATM   13  C19 UNL     1      20.300   2.643  52.651  1.00  0.00     0.023 C 
HETATM   14  H14 UNL     1      20.404   3.863  50.188  1.00  0.00     0.166 HD
ENDROOT
BRANCH   1  15
HETATM   15  N1  UNL     1      21.399  -0.045  52.642  1.00  0.00    -0.327 N 
HETATM   16  C8  UNL     1      22.113  -0.296  53.836  1.00  0.00     0.245 C 
HETATM   17  O1  UNL     1      21.448  -0.282  54.900  1.00  0.00    -0.268 OA
HETATM   18  H8  UNL     1      22.076  -0.088  51.832  1.00  0.00     0.169 HD
BRANCH  16  19
HETATM   19  C7  UNL     1      23.532  -0.565  53.924  1.00  0.00     0.075 C 
HETATM   20  C6  UNL     1      24.612  -0.030  53.405  1.00  0.00     0.017 C 
BRANCH  20  21
HETATM   21  C5  UNL     1      26.027  -0.303  53.497  1.00  0.00    -0.036 A 
HETATM   22  C4  UNL     1      26.576  -1.263  52.706  1.00  0.00     0.012 A 
HETATM   23  C3  UNL     1      27.924  -1.470  52.845  1.00  0.00     0.007 A 
HETATM   24  C2  UNL     1      28.691  -0.758  53.728  1.00  0.00    -0.062 A 
HETATM   25  C1  UNL     1      30.156  -1.018  53.843  1.00  0.00     0.048 C 
HETATM   26  C21 UNL     1      28.120   0.213  54.523  1.00  0.00     0.007 A 
HETATM   27  C20 UNL     1      26.755   0.448  54.406  1.00  0.00     0.012 A 
ENDBRANCH  20  21
ENDBRANCH  16  19
ENDBRANCH   1  15
BRANCH  11  28
HETATM   28  C17 UNL     1      20.637   2.160  48.100  1.00  0.00     0.143 C 
HETATM   29 CL1  UNL     1      22.287   2.427  47.498  1.00  0.00    -0.126 Cl
ENDBRANCH  11  28
TORSDOF 4
ENDMDL
MODEL 2
REMARK VINA RESULT:      -8.6      9.105     12.028
REMARK  4 active torsions:
REMARK  status: ('A' for Active; 'I' for Inactive)
REMARK    1  A    between atoms: C5_5  and  C6_6 
REMARK    2  A    between atoms: C7_7  and  C8_8 
REMARK       I    between atoms: C8_8  and  N1_10 
REMARK    3  A    between atoms: N1_10  and  C9_11 
REMARK    4  A    between atoms: C16_21  and  C17_22 
ROOT
HETATM    1  C9  UNL     1      29.914   6.267  47.920  1.00  0.00     0.022 C 
HETATM    2  C10 UNL     1      29.703   7.273  47.025  1.00  0.00     0.027 C 
HETATM    3  C11 UNL     1      30.637   8.115  46.285  1.00  0.00     0.021 C 
HETATM    4  C12 UNL     1      31.916   8.349  46.081  1.00  0.00     0.118 C 
HETATM    5  N2  UNL     1      33.299   8.400  46.041  1.00  0.00    -0.254 NA
HETATM    6  C13 UNL     1      34.223   7.657  46.478  1.00  0.00     0.233 C 
HETATM    7  N3  UNL     1      33.936   6.509  47.167  1.00  0.00    -0.237 NA
HETATM    8  C14 UNL     1      34.445   5.470  47.578  1.00  0.00     0.208 C 
HETATM    9  N4  UNL     1      33.361   4.760  48.254  1.00  0.00    -0.354 N 
HETATM   10  C15 UNL     1      31.962   4.742  47.816  1.00  0.00     0.017 C 
HETATM   11  C16 UNL     1      31.721   3.680  47.105  1.00  0.00     0.014 C 
HETATM   12  C18 UNL     1      31.295   5.945  48.288  1.00  0.00     0.081 C 
HETATM   13  C19 UNL     1      31.503   6.059  49.763  1.00  0.00     0.023 C 
HETATM   14  H14 UNL     1      33.401   4.176  49.118  1.00  0.00     0.166 HD
ENDROOT
BRANCH   1  15
HETATM   15  N1  UNL     1      28.911   5.523  48.566  1.00  0.00    -0.327 N 
HETATM   16  C8  UNL     1      27.501   5.613  48.620  1.00  0.00     0.245 C 
HETATM   17  O1  UNL     1      26.973   6.543  47.965  1.00  0.00    -0.268 OA
HETATM   18  H8  UNL     1      29.217   4.702  49.157  1.00  0.00     0.169 HD
BRANCH  16  19
HETATM   19  C7  UNL     1      26.633   4.726  49.364  1.00  0.00     0.075 C 
HETATM   20  C6  UNL     1      26.786   3.577  49.980  1.00  0.00     0.017 C 
BRANCH  20  21
HETATM   21  C5  UNL     1      25.914   2.697  50.721  1.00  0.00    -0.036 A 
HETATM   22  C4  UNL     1      24.566   2.843  50.614  1.00  0.00     0.012 A 
HETATM   23  C3  UNL     1      23.799   1.973  51.345  1.00  0.00     0.007 A 
HETATM   24  C2  UNL     1      24.344   1.004  52.144  1.00  0.00    -0.062 A 
HETATM   25  C1  UNL     1      23.467   0.079  52.921  1.00  0.00     0.048 C 
HETATM   26  C21 UNL     1      25.712   0.867  52.242  1.00  0.00     0.007 A 
HETATM   27  C20 UNL     1      26.518   1.733  51.513  1.00  0.00     0.012 A 
ENDBRANCH  20  21
ENDBRANCH  16  19
ENDBRANCH   1  15
BRANCH  11  28
HETATM   28  C17 UNL     1      32.853   2.746  46.889  1.00  0.00     0.143 C 
HETATM   29 CL1  UNL     1      32.315   1.054  46.872  1.00  0.00    -0.126 Cl
ENDBRANCH  11  28
TORSDOF 4
ENDMDL
MODEL 3
REMARK VINA RESULT:      -8.3      8.876     10.914
REMARK  4 active torsions:
REMARK  status: ('A' for Active; 'I' for Inactive)
REMARK    1  A    between atoms: C5_5  and  C6_6 
REMARK    2  A    between atoms: C7_7  and  C8_8 
REMARK       I    between atoms: C8_8  and  N1_10 
REMARK    3  A    between atoms: N1_10  and  C9_11 
REMARK    4  A    between atoms: C16_21  and  C17_22 
ROOT
HETATM    1  C9  UNL     1      27.113   7.865  48.036  1.00  0.00     0.022 C 
HETATM    2  C10 UNL     1      26.837   8.184  46.740  1.00  0.00     0.027 C 
HETATM    3  C11 UNL     1      27.291   9.288  45.902  1.00  0.00     0.021 C 
HETATM    4  C12 UNL     1      28.048  10.364  45.890  1.00  0.00     0.118 C 
HETATM    5  N2  UNL     1      28.897  11.432  46.129  1.00  0.00    -0.254 NA
HETATM    6  C13 UNL     1      29.691  11.737  47.063  1.00  0.00     0.233 C 
HETATM    7  N3  UNL     1      29.848  10.918  48.148  1.00  0.00    -0.237 NA
HETATM    8  C14 UNL     1      30.575  10.717  49.117  1.00  0.00     0.208 C 
HETATM    9  N4  UNL     1      29.982   9.571  49.805  1.00  0.00    -0.354 N 
HETATM   10  C15 UNL     1      29.347   8.427  49.143  1.00  0.00     0.017 C 
HETATM   11  C16 UNL     1      30.194   7.448  49.017  1.00  0.00     0.014 C 
HETATM   12  C18 UNL     1      27.976   8.769  48.803  1.00  0.00     0.081 C 
HETATM   13  C19 UNL     1      27.286   9.260  50.034  1.00  0.00     0.023 C 
HETATM   14  H14 UNL     1      29.916   9.386  50.829  1.00  0.00     0.166 HD
ENDROOT
BRANCH   1  15
HETATM   15  N1  UNL     1      26.606   6.754  48.733  1.00  0.00    -0.327 N 
HETATM   16  C8  UNL     1      27.003   5.402  48.848  1.00  0.00     0.245 C 
HETATM   17  O1  UNL     1      28.027   5.061  48.208  1.00  0.00    -0.268 OA
HETATM   18  H8  UNL     1      25.740   6.899  49.318  1.00  0.00     0.169 HD
BRANCH  16  19
HETATM   19  C7  UNL     1      26.326   4.394  49.636  1.00  0.00     0.075 C 
HETATM   20  C6  UNL     1      26.710   3.369  50.360  1.00  0.00     0.017 C 
BRANCH  20  21
HETATM   21  C5  UNL     1      26.029   2.367  51.144  1.00  0.00    -0.036 A 
HETATM   22  C4  UNL     1      26.720   1.285  51.594  1.00  0.00     0.012 A 
HETATM   23  C3  UNL     1      26.010   0.373  52.332  1.00  0.00     0.007 A 
HETATM   24  C2  UNL     1      24.679   0.527  52.610  1.00  0.00    -0.062 A 
HETATM   25  C1  UNL     1      23.950  -0.494  53.419  1.00  0.00     0.048 C 
HETATM   26  C21 UNL     1      23.992   1.629  52.147  1.00  0.00     0.007 A 
HETATM   27  C20 UNL     1      24.682   2.573  51.396  1.00  0.00     0.012 A 
ENDBRANCH  20  21
ENDBRANCH  16  19
ENDBRANCH   1  15
BRANCH  11  28
HETATM   28  C17 UNL     1      31.563   7.672  49.540  1.00  0.00     0.143 C 
HETATM   29 CL1  UNL     1      32.739   7.898  48.228  1.00  0.00    -0.126 Cl
ENDBRANCH  11  28
TORSDOF 4
ENDMDL
MODEL 4
REMARK VINA RESULT:      -8.2      6.133      7.773
REMARK  4 active torsions:
REMARK  status: ('A' for Active; 'I' for Inactive)
REMARK    1  A    between atoms: C5_5  and  C6_6 
REMARK    2  A    between atoms: C7_7  and  C8_8 
REMARK       I    between atoms: C8_8  and  N1_10 
REMARK    3  A    between atoms: N1_10  and  C9_11 
REMARK    4  A    between atoms: C16_21  and  C17_22 
ROOT
HETATM    1  C9  UNL     1      25.583   2.337  51.956  1.00  0.00     0.022 C 
HETATM    2  C10 UNL     1      26.355   1.302  52.393  1.00  0.00     0.027 C 
HETATM    3  C11 UNL     1      26.031   0.137  53.209  1.00  0.00     0.021 C 
HETATM    4  C12 UNL     1      25.052  -0.469  53.846  1.00  0.00     0.118 C 
HETATM    5  N2  UNL     1      23.875  -0.904  54.430  1.00  0.00    -0.254 NA
HETATM    6  C13 UNL     1      22.663  -0.560  54.336  1.00  0.00     0.233 C 
HETATM    7  N3  UNL     1      22.283   0.460  53.505  1.00  0.00    -0.237 NA
HETATM    8  C14 UNL     1      21.297   0.973  52.984  1.00  0.00     0.208 C 
HETATM    9  N4  UNL     1      21.821   2.087  52.196  1.00  0.00    -0.354 N 
HETATM   10  C15 UNL     1      23.089   2.076  51.460  1.00  0.00     0.017 C 
HETATM   11  C16 UNL     1      22.888   1.768  50.213  1.00  0.00     0.014 C 
HETATM   12  C18 UNL     1      24.179   2.378  52.375  1.00  0.00     0.081 C 
HETATM   13  C19 UNL     1      23.864   3.653  53.088  1.00  0.00     0.023 C 
HETATM   14  H14 UNL     1      21.401   3.028  52.035  1.00  0.00     0.166 HD
ENDROOT
BRANCH   1  15
HETATM   15  N1  UNL     1      26.024   3.410  51.162  1.00  0.00    -0.327 N 
HETATM   16  C8  UNL     1      26.492   3.520  49.832  1.00  0.00     0.245 C 
HETATM   17  O1  UNL     1      26.549   2.458  49.167  1.00  0.00    -0.268 OA
HETATM   18  H8  UNL     1      26.028   4.371  51.599  1.00  0.00     0.169 HD
BRANCH  16  19
HETATM   19  C7  UNL     1      26.908   4.749  49.189  1.00  0.00     0.075 C 
HETATM   20  C6  UNL     1      27.990   5.151  48.566  1.00  0.00     0.017 C 
BRANCH  20  21
HETATM   21  C5  UNL     1      28.398   6.379  47.927  1.00  0.00    -0.036 A 
HETATM   22  C4  UNL     1      29.709   6.569  47.618  1.00  0.00     0.012 A 
HETATM   23  C3  UNL     1      30.025   7.758  47.012  1.00  0.00     0.007 A 
HETATM   24  C2  UNL     1      29.086   8.713  46.728  1.00  0.00    -0.062 A 
HETATM   25  C1  UNL     1      29.479   9.991  46.066  1.00  0.00     0.048 C 
HETATM   26  C21 UNL     1      27.761   8.505  47.046  1.00  0.00     0.007 A 
HETATM   27  C20 UNL     1      27.407   7.310  47.661  1.00  0.00     0.012 A 
ENDBRANCH  20  21
ENDBRANCH  16  19
ENDBRANCH   1  15
BRANCH  11  28
HETATM   28  C17 UNL     1      21.487   1.501  49.805  1.00  0.00     0.143 C 
HETATM   29 CL1  UNL     1      21.175   2.035  48.140  1.00  0.00    -0.126 Cl
ENDBRANCH  11  28
TORSDOF 4
ENDMDL
MODEL 5
REMARK VINA RESULT:      -7.9      2.163      3.208
REMARK  4 active torsions:
REMARK  status: ('A' for Active; 'I' for Inactive)
REMARK    1  A    between atoms: C5_5  and  C6_6 
REMARK    2  A    between atoms: C7_7  and  C8_8 
REMARK       I    between atoms: C8_8  and  N1_10 
REMARK    3  A    between atoms: N1_10  and  C9_11 
REMARK    4  A    between atoms: C16_21  and  C17_22 
ROOT
HETATM    1  C9  UNL     1      20.697   2.434  51.315  1.00  0.00     0.022 C 
HETATM    2  C10 UNL     1      20.303   3.724  51.514  1.00  0.00     0.027 C 
HETATM    3  C11 UNL     1      19.088   4.431  51.124  1.00  0.00     0.021 C 
HETATM    4  C12 UNL     1      17.934   4.289  50.507  1.00  0.00     0.118 C 
HETATM    5  N2  UNL     1      16.800   3.892  49.821  1.00  0.00    -0.254 NA
HETATM    6  C13 UNL     1      16.341   2.776  49.447  1.00  0.00     0.233 C 
HETATM    7  N3  UNL     1      17.014   1.613  49.711  1.00  0.00    -0.237 NA
HETATM    8  C14 UNL     1      16.881   0.393  49.716  1.00  0.00     0.208 C 
HETATM    9  N4  UNL     1      18.174  -0.127  50.156  1.00  0.00    -0.354 N 
HETATM   10  C15 UNL     1      19.036   0.498  51.165  1.00  0.00     0.017 C 
HETATM   11  C16 UNL     1      18.834  -0.040  52.331  1.00  0.00     0.014 C 
HETATM   12  C18 UNL     1      19.817   1.554  50.541  1.00  0.00     0.081 C 
HETATM   13  C19 UNL     1      20.528   0.985  49.356  1.00  0.00     0.023 C 
HETATM   14  H14 UNL     1      18.674  -0.988  49.842  1.00  0.00     0.166 HD
ENDROOT
BRANCH   1  15
HETATM   15  N1  UNL     1      21.908   1.870  51.753  1.00  0.00    -0.327 N 
HETATM   16  C8  UNL     1      22.301   1.170  52.916  1.00  0.00     0.245 C 
HETATM   17  O1  UNL     1      21.415   0.980  53.784  1.00  0.00    -0.268 OA
HETATM   18  H8  UNL     1      22.745   1.956  51.115  1.00  0.00     0.169 HD
BRANCH  16  19
HETATM   19  C7  UNL     1      23.631   0.661  53.179  1.00  0.00     0.075 C 
HETATM   20  C6  UNL     1      24.823   0.874  52.674  1.00  0.00     0.017 C 
BRANCH  20  21
HETATM   21  C5  UNL     1      26.146   0.363  52.942  1.00  0.00    -0.036 A 
HETATM   22  C4  UNL     1      26.398  -0.963  52.777  1.00  0.00     0.012 A 
HETATM   23  C3  UNL     1      27.676  -1.379  53.049  1.00  0.00     0.007 A 
HETATM   24  C2  UNL     1      28.657  -0.519  53.465  1.00  0.00    -0.062 A 
HETATM   25  C1  UNL     1      30.035  -1.020  53.747  1.00  0.00     0.048 C 
HETATM   26  C21 UNL     1      28.387   0.823  53.626  1.00  0.00     0.007 A 
HETATM   27  C20 UNL     1      27.101   1.277  53.359  1.00  0.00     0.012 A 
ENDBRANCH  20  21
ENDBRANCH  16  19
ENDBRANCH   1  15
BRANCH  11  28
HETATM   28  C17 UNL     1      17.824  -1.123  52.406  1.00  0.00     0.143 C 
HETATM   29 CL1  UNL     1      18.185  -2.270  53.713  1.00  0.00    -0.126 Cl
ENDBRANCH  11  28
TORSDOF 4
ENDMDL
MODEL 6
REMARK VINA RESULT:      -7.6      6.406      7.656
REMARK  4 active torsions:
REMARK  status: ('A' for Active; 'I' for Inactive)
REMARK    1  A    between atoms: C5_5  and  C6_6 
REMARK    2  A    between atoms: C7_7  and  C8_8 
REMARK       I    between atoms: C8_8  and  N1_10 
REMARK    3  A    between atoms: N1_10  and  C9_11 
REMARK    4  A    between atoms: C16_21  and  C17_22 
ROOT
HETATM    1  C9  UNL     1      23.753   4.215  51.223  1.00  0.00     0.022 C 
HETATM    2  C10 UNL     1      22.606   4.854  51.590  1.00  0.00     0.027 C 
HETATM    3  C11 UNL     1      21.373   4.352  52.184  1.00  0.00     0.021 C 
HETATM    4  C12 UNL     1      20.775   3.263  52.619  1.00  0.00     0.118 C 
HETATM    5  N2  UNL     1      20.370   1.997  53.004  1.00  0.00    -0.254 NA
HETATM    6  C13 UNL     1      20.955   0.885  53.137  1.00  0.00     0.233 C 
HETATM    7  N3  UNL     1      22.293   0.758  52.874  1.00  0.00    -0.237 NA
HETATM    8  C14 UNL     1      23.247   0.000  53.029  1.00  0.00     0.208 C 
HETATM    9  N4  UNL     1      24.378   0.681  52.403  1.00  0.00    -0.354 N 
HETATM   10  C15 UNL     1      24.609   2.129  52.426  1.00  0.00     0.017 C 
HETATM   11  C16 UNL     1      25.425   2.444  53.389  1.00  0.00     0.014 C 
HETATM   12  C18 UNL     1      23.816   2.760  51.383  1.00  0.00     0.081 C 
HETATM   13  C19 UNL     1      24.115   2.085  50.083  1.00  0.00     0.023 C 
HETATM   14  H14 UNL     1      25.169   0.271  51.861  1.00  0.00     0.166 HD
ENDROOT
BRANCH   1  15
HETATM   15  N1  UNL     1      24.886   4.826  50.657  1.00  0.00    -0.327 N 
HETATM   16  C8  UNL     1      25.177   5.366  49.383  1.00  0.00     0.245 C 
HETATM   17  O1  UNL     1      24.259   5.318  48.530  1.00  0.00    -0.268 OA
HETATM   18  H8  UNL     1      25.740   4.934  51.269  1.00  0.00     0.169 HD
BRANCH  16  19
HETATM   19  C7  UNL     1      26.438   5.963  48.994  1.00  0.00     0.075 C 
HETATM   20  C6  UNL     1      27.538   5.524  48.430  1.00  0.00     0.017 C 
BRANCH  20  21
HETATM   21  C5  UNL     1      28.793   6.124  48.045  1.00  0.00    -0.036 A 
HETATM   22  C4  UNL     1      29.930   5.379  48.075  1.00  0.00     0.012 A 
HETATM   23  C3  UNL     1      31.085   6.014  47.697  1.00  0.00     0.007 A 
HETATM   24  C2  UNL     1      31.110   7.326  47.307  1.00  0.00    -0.062 A 
HETATM   25  C1  UNL     1      32.393   7.973  46.903  1.00  0.00     0.048 C 
HETATM   26  C21 UNL     1      29.949   8.068  47.281  1.00  0.00     0.007 A 
HETATM   27  C20 UNL     1      28.761   7.455  47.659  1.00  0.00     0.012 A 
ENDBRANCH  20  21
ENDBRANCH  16  19
ENDBRANCH   1  15
BRANCH  11  28
HETATM   28  C17 UNL     1      25.932   1.332  54.229  1.00  0.00     0.143 C 
HETATM   29 CL1  UNL     1      27.638   0.974  53.886  1.00  0.00    -0.126 Cl
ENDBRANCH  11  28
TORSDOF 4
ENDMDL
MODEL 7
REMARK VINA RESULT:      -7.5      4.553      5.368
REMARK  4 active torsions:
REMARK  status: ('A' for Active; 'I' for Inactive)
REMARK    1  A    between atoms: C5_5  and  C6_6 
REMARK    2  A    between atoms: C7_7  and  C8_8 
REMARK       I    between atoms: C8_8  and  N1_10 
REMARK    3  A    between atoms: N1_10  and  C9_11 
REMARK    4  A    between atoms: C16_21  and  C17_22 
ROOT
HETATM    1  C9  UNL     1      23.130   5.534  50.276  1.00  0.00     0.022 C 
HETATM    2  C10 UNL     1      22.298   6.230  51.101  1.00  0.00     0.027 C 
HETATM    3  C11 UNL     1      21.356   7.310  50.832  1.00  0.00     0.021 C 
HETATM    4  C12 UNL     1      20.863   8.069  49.876  1.00  0.00     0.118 C 
HETATM    5  N2  UNL     1      20.506   8.730  48.713  1.00  0.00    -0.254 NA
HETATM    6  C13 UNL     1      20.727   8.536  47.485  1.00  0.00     0.233 C 
HETATM    7  N3  UNL     1      21.473   7.469  47.063  1.00  0.00    -0.237 NA
HETATM    8  C14 UNL     1      21.766   6.823  46.061  1.00  0.00     0.208 C 
HETATM    9  N4  UNL     1      22.680   5.784  46.534  1.00  0.00    -0.354 N 
HETATM   10  C15 UNL     1      22.574   5.090  47.821  1.00  0.00     0.017 C 
HETATM   11  C16 UNL     1      21.947   3.960  47.678  1.00  0.00     0.014 C 
HETATM   12  C18 UNL     1      23.175   5.912  48.860  1.00  0.00     0.081 C 
HETATM   13  C19 UNL     1      24.562   6.273  48.440  1.00  0.00     0.023 C 
HETATM   14  H14 UNL     1      23.517   5.384  46.057  1.00  0.00     0.166 HD
ENDROOT
BRANCH   1  15
HETATM   15  N1  UNL     1      23.996   4.499  50.668  1.00  0.00    -0.327 N 
HETATM   16  C8  UNL     1      23.815   3.133  50.984  1.00  0.00     0.245 C 
HETATM   17  O1  UNL     1      22.642   2.692  50.915  1.00  0.00    -0.268 OA
HETATM   18  H8  UNL     1      25.022   4.731  50.765  1.00  0.00     0.169 HD
BRANCH  16  19
HETATM   19  C7  UNL     1      24.864   2.216  51.375  1.00  0.00     0.075 C 
HETATM   20  C6  UNL     1      25.811   2.222  52.283  1.00  0.00     0.017 C 
BRANCH  20  21
HETATM   21  C5  UNL     1      26.856   1.304  52.668  1.00  0.00    -0.036 A 
HETATM   22  C4  UNL     1      26.659  -0.034  52.522  1.00  0.00     0.012 A 
HETATM   23  C3  UNL     1      27.694  -0.848  52.909  1.00  0.00     0.007 A 
HETATM   24  C2  UNL     1      28.867  -0.357  53.415  1.00  0.00    -0.062 A 
HETATM   25  C1  UNL     1      29.965  -1.283  53.821  1.00  0.00     0.048 C 
HETATM   26  C21 UNL     1      29.052   1.002  53.556  1.00  0.00     0.007 A 
HETATM   27  C20 UNL     1      28.023   1.854  53.174  1.00  0.00     0.012 A 
ENDBRANCH  20  21
ENDBRANCH  16  19
ENDBRANCH   1  15
BRANCH  11  28
HETATM   28  C17 UNL     1      21.486   3.616  46.311  1.00  0.00     0.143 C 
HETATM   29 CL1  UNL     1      19.713   3.591  46.202  1.00  0.00    -0.126 Cl
ENDBRANCH  11  28
TORSDOF 4
ENDMDL
MODEL 8
REMARK VINA RESULT:      -7.3      6.375      7.044
REMARK  4 active torsions:
REMARK  status: ('A' for Active; 'I' for Inactive)
REMARK    1  A    between atoms: C5_5  and  C6_6 
REMARK    2  A    between atoms: C7_7  and  C8_8 
REMARK       I    between atoms: C8_8  and  N1_10 
REMARK    3  A    between atoms: N1_10  and  C9_11 
REMARK    4  A    between atoms: C16_21  and  C17_22 
ROOT
HETATM    1  C9  UNL     1      23.873   4.319  50.575  1.00  0.00     0.022 C 
HETATM    2  C10 UNL     1      23.766   3.532  51.683  1.00  0.00     0.027 C 
HETATM    3  C11 UNL     1      22.599   3.073  52.428  1.00  0.00     0.021 C 
HETATM    4  C12 UNL     1      21.285   3.122  52.470  1.00  0.00     0.118 C 
HETATM    5  N2  UNL     1      19.926   3.325  52.299  1.00  0.00    -0.254 NA
HETATM    6  C13 UNL     1      19.217   3.819  51.378  1.00  0.00     0.233 C 
HETATM    7  N3  UNL     1      19.788   4.301  50.231  1.00  0.00    -0.237 NA
HETATM    8  C14 UNL     1      19.519   4.661  49.088  1.00  0.00     0.208 C 
HETATM    9  N4  UNL     1      20.801   5.049  48.502  1.00  0.00    -0.354 N 
HETATM   10  C15 UNL     1      22.081   4.379  48.754  1.00  0.00     0.017 C 
HETATM   11  C16 UNL     1      22.332   3.512  47.818  1.00  0.00     0.014 C 
HETATM   12  C18 UNL     1      22.646   4.875  49.999  1.00  0.00     0.081 C 
HETATM   13  C19 UNL     1      22.705   6.367  49.935  1.00  0.00     0.023 C 
HETATM   14  H14 UNL     1      21.007   5.828  47.840  1.00  0.00     0.166 HD
ENDROOT
BRANCH   1  15
HETATM   15  N1  UNL     1      25.075   4.687  49.945  1.00  0.00    -0.327 N 
HETATM   16  C8  UNL     1      26.223   3.976  49.526  1.00  0.00     0.245 C 
HETATM   17  O1  UNL     1      26.226   2.740  49.738  1.00  0.00    -0.268 OA
HETATM   18  H8  UNL     1      25.207   5.707  49.706  1.00  0.00     0.169 HD
BRANCH  16  19
HETATM   19  C7  UNL     1      27.381   4.559  48.881  1.00  0.00     0.075 C 
HETATM   20  C6  UNL     1      27.702   5.758  48.456  1.00  0.00     0.017 C 
BRANCH  20  21
HETATM   21  C5  UNL     1      28.859   6.333  47.813  1.00  0.00    -0.036 A 
HETATM   22  C4  UNL     1      28.719   7.462  47.068  1.00  0.00     0.012 A 
HETATM   23  C3  UNL     1      29.860   7.952  46.485  1.00  0.00     0.007 A 
HETATM   24  C2  UNL     1      31.080   7.351  46.635  1.00  0.00    -0.062 A 
HETATM   25  C1  UNL     1      32.294   7.923  45.982  1.00  0.00     0.048 C 
HETATM   26  C21 UNL     1      31.206   6.207  47.394  1.00  0.00     0.007 A 
HETATM   27  C20 UNL     1      30.069   5.683  47.998  1.00  0.00     0.012 A 
ENDBRANCH  20  21
ENDBRANCH  16  19
ENDBRANCH   1  15
BRANCH  11  28
HETATM   28  C17 UNL     1      21.324   3.379  46.738  1.00  0.00     0.143 C 
HETATM   29 CL1  UNL     1      21.913   4.049  45.203  1.00  0.00    -0.126 Cl
ENDBRANCH  11  28
TORSDOF 4
ENDMDL
MODEL 9
REMARK VINA RESULT:      -7.3      6.022      7.059
REMARK  4 active torsions:
REMARK  status: ('A' for Active; 'I' for Inactive)
REMARK    1  A    between atoms: C5_5  and  C6_6 
REMARK    2  A    between atoms: C7_7  and  C8_8 
REMARK       I    between atoms: C8_8  and  N1_10 
REMARK    3  A    between atoms: N1_10  and  C9_11 
REMARK    4  A    between atoms: C16_21  and  C17_22 
ROOT
HETATM    1  C9  UNL     1      22.091   4.330  49.567  1.00  0.00     0.022 C 
HETATM    2  C10 UNL     1      20.966   5.064  49.799  1.00  0.00     0.027 C 
HETATM    3  C11 UNL     1      19.679   4.697  50.377  1.00  0.00     0.021 C 
HETATM    4  C12 UNL     1      18.999   3.695  50.895  1.00  0.00     0.118 C 
HETATM    5  N2  UNL     1      18.504   2.503  51.393  1.00  0.00    -0.254 NA
HETATM    6  C13 UNL     1      19.017   1.384  51.677  1.00  0.00     0.233 C 
HETATM    7  N3  UNL     1      20.356   1.159  51.503  1.00  0.00    -0.237 NA
HETATM    8  C14 UNL     1      21.256   0.375  51.791  1.00  0.00     0.208 C 
HETATM    9  N4  UNL     1      22.453   0.922  51.156  1.00  0.00    -0.354 N 
HETATM   10  C15 UNL     1      22.766   2.349  51.035  1.00  0.00     0.017 C 
HETATM   11  C16 UNL     1      23.552   2.726  52.000  1.00  0.00     0.014 C 
HETATM   12  C18 UNL     1      22.062   2.900  49.887  1.00  0.00     0.081 C 
HETATM   13  C19 UNL     1      22.384   2.070  48.687  1.00  0.00     0.023 C 
HETATM   14  H14 UNL     1      23.245   0.413  50.707  1.00  0.00     0.166 HD
ENDROOT
BRANCH   1  15
HETATM   15  N1  UNL     1      23.283   4.813  49.000  1.00  0.00    -0.327 N 
HETATM   16  C8  UNL     1      24.384   5.545  49.502  1.00  0.00     0.245 C 
HETATM   17  O1  UNL     1      24.342   5.859  50.716  1.00  0.00    -0.268 OA
HETATM   18  H8  UNL     1      23.451   4.618  47.976  1.00  0.00     0.169 HD
BRANCH  16  19
HETATM   19  C7  UNL     1      25.540   5.954  48.733  1.00  0.00     0.075 C 
HETATM   20  C6  UNL     1      26.831   6.019  48.960  1.00  0.00     0.017 C 
BRANCH  20  21
HETATM   21  C5  UNL     1      27.979   6.428  48.187  1.00  0.00    -0.036 A 
HETATM   22  C4  UNL     1      27.882   7.507  47.364  1.00  0.00     0.012 A 
HETATM   23  C3  UNL     1      29.012   7.839  46.660  1.00  0.00     0.007 A 
HETATM   24  C2  UNL     1      30.181   7.134  46.768  1.00  0.00    -0.062 A 
HETATM   25  C1  UNL     1      31.384   7.536  45.982  1.00  0.00     0.048 C 
HETATM   26  C21 UNL     1      30.263   6.044  47.607  1.00  0.00     0.007 A 
HETATM   27  C20 UNL     1      29.136   5.680  48.335  1.00  0.00     0.012 A 
ENDBRANCH  20  21
ENDBRANCH  16  19
ENDBRANCH   1  15
BRANCH  11  28
HETATM   28  C17 UNL     1      23.953   1.690  52.982  1.00  0.00     0.143 C 
HETATM   29 CL1  UNL     1      25.594   1.972  53.601  1.00  0.00    -0.126 Cl
ENDBRANCH  11  28
TORSDOF 4
ENDMDL
