MODEL 1
REMARK VINA RESULT:      -8.2      0.000      0.000
REMARK  7 active torsions:
REMARK  status: ('A' for Active; 'I' for Inactive)
REMARK    1  A    between atoms: C5_6  and  N1_7 
REMARK    2  A    between atoms: N1_7  and  C6_8 
REMARK    3  A    between atoms: N4_15  and  C11_16 
REMARK    4  A    between atoms: C11_16  and  N5_17 
REMARK    5  A    between atoms: N5_17  and  C12_18 
REMARK    6  A    between atoms: C12_18  and  C13_19 
REMARK    7  A    between atoms: C13_19  and  N6_20 
ROOT
HETATM    1  C6  UNL     1      26.805   1.772  52.277  1.00  0.00     0.141 C 
HETATM    2  N2  UNL     1      27.903   2.445  52.463  1.00  0.00    -0.224 NA
HETATM    3  C7  UNL     1      28.691   2.389  53.666  1.00  0.00     0.229 C 
HETATM    4  N3  UNL     1      28.814   1.514  54.587  1.00  0.00    -0.278 NA
HETATM    5  C8  UNL     1      28.200   0.233  54.770  1.00  0.00     0.191 C 
HETATM    6  C9  UNL     1      26.811   0.235  54.260  1.00  0.00    -0.007 A 
HETATM    7  C10 UNL     1      25.775  -0.508  54.833  1.00  0.00     0.102 A 
HETATM    8  N4  UNL     1      24.626  -0.308  54.141  1.00  0.00    -0.339 N 
HETATM    9  C18 UNL     1      24.822   0.546  53.107  1.00  0.00     0.108 A 
HETATM   10  C19 UNL     1      26.146   0.845  53.218  1.00  0.00     0.035 A 
ENDROOT
BRANCH   8  11
HETATM   11  C11 UNL     1      23.305  -0.894  54.411  1.00  0.00     0.398 C 
BRANCH  11  12
HETATM   12  N5  UNL     1      22.404  -0.521  53.340  1.00  0.00     0.102 N 
HETATM   13  H11 UNL     1      22.392  -1.232  52.587  1.00  0.00     0.318 HD
BRANCH  12  14
HETATM   14  C12 UNL     1      21.105  -0.111  53.775  1.00  0.00     0.293 C 
BRANCH  14  15
HETATM   15  C13 UNL     1      20.057  -0.142  52.685  1.00  0.00     0.179 C 
BRANCH  15  16
HETATM   16  N6  UNL     1      20.082   1.131  52.035  1.00  0.00    -0.293 N 
HETATM   17  C14 UNL     1      19.837   1.124  50.632  1.00  0.00     0.149 C 
HETATM   18  C15 UNL     1      21.050   0.984  49.764  1.00  0.00     0.024 C 
HETATM   19  C16 UNL     1      22.239   1.555  50.471  1.00  0.00     0.030 C 
HETATM   20  C17 UNL     1      21.790   2.564  51.505  1.00  0.00     0.201 C 
HETATM   21  O1  UNL     1      20.985   1.998  52.476  1.00  0.00    -0.283 OA
ENDBRANCH  15  16
ENDBRANCH  14  15
ENDBRANCH  12  14
ENDBRANCH  11  12
ENDBRANCH   8  11
BRANCH   1  22
HETATM   22  N1  UNL     1      26.214   1.997  51.010  1.00  0.00    -0.340 N 
HETATM   23  H4  UNL     1      25.904   1.137  50.504  1.00  0.00     0.167 HD
BRANCH  22  24
HETATM   24  C5  UNL     1      26.034   3.267  50.416  1.00  0.00     0.035 A 
HETATM   25  C4  UNL     1      26.792   3.891  49.464  1.00  0.00     0.029 A 
HETATM   26  C3  UNL     1      26.532   5.145  48.958  1.00  0.00     0.004 A 
HETATM   27  C2  UNL     1      25.440   5.849  49.420  1.00  0.00     0.019 A 
HETATM   28  C1  UNL     1      24.610   5.282  50.395  1.00  0.00     0.013 A 
HETATM   29 BR1  UNL     1      23.088   6.213  51.062  1.00  0.00    -0.051 Br
HETATM   30  C20 UNL     1      24.959   4.026  50.834  1.00  0.00     0.048 A 
ENDBRANCH  22  24
ENDBRANCH   1  22
TORSDOF 7
ENDMDL
MODEL 2
REMARK VINA RESULT:      -8.0      2.837      5.880
REMARK  7 active torsions:
REMARK  status: ('A' for Active; 'I' for Inactive)
REMARK    1  A    between atoms: C5_6  and  N1_7 
REMARK    2  A    between atoms: N1_7  and  C6_8 
REMARK    3  A    between atoms: N4_15  and  C11_16 
REMARK    4  A    between atoms: C11_16  and  N5_17 
REMARK    5  A    between atoms: N5_17  and  C12_18 
REMARK    6  A    between atoms: C12_18  and  C13_19 
REMARK    7  A    between atoms: C13_19  and  N6_20 
ROOT
HETATM    1  C6  UNL     1      24.060   0.096  53.358  1.00  0.00     0.141 C 
HETATM    2  N2  UNL     1      24.304  -0.798  54.272  1.00  0.00    -0.224 NA
HETATM    3  C7  UNL     1      23.337  -1.251  55.237  1.00  0.00     0.229 C 
HETATM    4  N3  UNL     1      22.060  -1.272  55.249  1.00  0.00    -0.278 NA
HETATM    5  C8  UNL     1      21.094  -0.842  54.283  1.00  0.00     0.191 C 
HETATM    6  C9  UNL     1      21.572   0.353  53.553  1.00  0.00    -0.007 A 
HETATM    7  C10 UNL     1      20.729   1.371  53.097  1.00  0.00     0.102 A 
HETATM    8  N4  UNL     1      21.455   2.321  52.459  1.00  0.00    -0.339 N 
HETATM    9  C18 UNL     1      22.772   2.005  52.453  1.00  0.00     0.108 A 
HETATM   10  C19 UNL     1      22.795   0.819  53.119  1.00  0.00     0.035 A 
ENDROOT
BRANCH   8  11
HETATM   11  C11 UNL     1      20.960   3.557  51.836  1.00  0.00     0.398 C 
BRANCH  11  12
HETATM   12  N5  UNL     1      22.071   4.233  51.199  1.00  0.00     0.102 N 
HETATM   13  H11 UNL     1      22.982   3.867  51.531  1.00  0.00     0.318 HD
BRANCH  12  14
HETATM   14  C12 UNL     1      21.968   4.332  49.776  1.00  0.00     0.293 C 
BRANCH  14  15
HETATM   15  C13 UNL     1      23.202   4.901  49.111  1.00  0.00     0.179 C 
BRANCH  15  16
HETATM   16  N6  UNL     1      24.263   4.845  50.066  1.00  0.00    -0.293 N 
HETATM   17  C14 UNL     1      25.059   6.020  50.190  1.00  0.00     0.149 C 
HETATM   18  C15 UNL     1      26.259   6.087  49.295  1.00  0.00     0.024 C 
HETATM   19  C16 UNL     1      26.736   4.700  48.995  1.00  0.00     0.030 C 
HETATM   20  C17 UNL     1      26.277   3.750  50.078  1.00  0.00     0.201 C 
HETATM   21  O1  UNL     1      24.899   3.684  50.171  1.00  0.00    -0.283 OA
ENDBRANCH  15  16
ENDBRANCH  14  15
ENDBRANCH  12  14
ENDBRANCH  11  12
ENDBRANCH   8  11
BRANCH   1  22
HETATM   22  N1  UNL     1      25.174   0.372  52.530  1.00  0.00    -0.340 N 
HETATM   23  H4  UNL     1      25.012   0.235  51.506  1.00  0.00     0.167 HD
BRANCH  22  24
HETATM   24  C5  UNL     1      26.440   0.799  52.992  1.00  0.00     0.035 A 
HETATM   25  C4  UNL     1      26.856   2.056  53.333  1.00  0.00     0.029 A 
HETATM   26  C3  UNL     1      28.127   2.367  53.765  1.00  0.00     0.004 A 
HETATM   27  C2  UNL     1      29.070   1.366  53.872  1.00  0.00     0.019 A 
HETATM   28  C1  UNL     1      28.726   0.050  53.542  1.00  0.00     0.013 A 
HETATM   29 BR1  UNL     1      29.991  -1.368  53.676  1.00  0.00    -0.051 Br
HETATM   30  C20 UNL     1      27.431  -0.153  53.122  1.00  0.00     0.048 A 
ENDBRANCH  22  24
ENDBRANCH   1  22
TORSDOF 7
ENDMDL
MODEL 3
REMARK VINA RESULT:      -7.6      1.707      1.984
REMARK  7 active torsions:
REMARK  status: ('A' for Active; 'I' for Inactive)
REMARK    1  A    between atoms: C5_6  and  N1_7 
REMARK    2  A    between atoms: N1_7  and  C6_8 
REMARK    3  A    between atoms: N4_15  and  C11_16 
REMARK    4  A    between atoms: C11_16  and  N5_17 
REMARK    5  A    between atoms: N5_17  and  C12_18 
REMARK    6  A    between atoms: C12_18  and  C13_19 
REMARK    7  A    between atoms: C13_19  and  N6_20 
ROOT
HETATM    1  C6  UNL     1      26.854   1.860  51.847  1.00  0.00     0.141 C 
HETATM    2  N2  UNL     1      27.945   2.430  52.271  1.00  0.00    -0.224 NA
HETATM    3  C7  UNL     1      28.450   2.309  53.613  1.00  0.00     0.229 C 
HETATM    4  N3  UNL     1      28.293   1.432  54.528  1.00  0.00    -0.278 NA
HETATM    5  C8  UNL     1      27.539   0.215  54.559  1.00  0.00     0.191 C 
HETATM    6  C9  UNL     1      26.297   0.343  53.765  1.00  0.00    -0.007 A 
HETATM    7  C10 UNL     1      25.099  -0.298  54.095  1.00  0.00     0.102 A 
HETATM    8  N4  UNL     1      24.147   0.003  53.177  1.00  0.00    -0.339 N 
HETATM    9  C18 UNL     1      24.636   0.828  52.221  1.00  0.00     0.108 A 
HETATM   10  C19 UNL     1      25.927   1.005  52.614  1.00  0.00     0.035 A 
ENDROOT
BRANCH   8  11
HETATM   11  C11 UNL     1      22.751  -0.457  53.152  1.00  0.00     0.398 C 
BRANCH  11  12
HETATM   12  N5  UNL     1      21.881   0.701  53.148  1.00  0.00     0.102 N 
HETATM   13  H11 UNL     1      22.385   1.558  53.442  1.00  0.00     0.318 HD
BRANCH  12  14
HETATM   14  C12 UNL     1      21.110   0.860  51.955  1.00  0.00     0.293 C 
BRANCH  14  15
HETATM   15  C13 UNL     1      19.723   1.413  52.191  1.00  0.00     0.179 C 
BRANCH  15  16
HETATM   16  N6  UNL     1      19.844   2.833  52.298  1.00  0.00    -0.293 N 
HETATM   17  C14 UNL     1      18.942   3.601  51.506  1.00  0.00     0.149 C 
HETATM   18  C15 UNL     1      19.428   3.957  50.134  1.00  0.00     0.024 C 
HETATM   19  C16 UNL     1      20.923   4.038  50.138  1.00  0.00     0.030 C 
HETATM   20  C17 UNL     1      21.422   4.313  51.539  1.00  0.00     0.201 C 
HETATM   21  O1  UNL     1      21.076   3.309  52.426  1.00  0.00    -0.283 OA
ENDBRANCH  15  16
ENDBRANCH  14  15
ENDBRANCH  12  14
ENDBRANCH  11  12
ENDBRANCH   8  11
BRANCH   1  22
HETATM   22  N1  UNL     1      26.570   2.131  50.487  1.00  0.00    -0.340 N 
HETATM   23  H4  UNL     1      26.722   1.332  49.832  1.00  0.00     0.167 HD
BRANCH  22  24
HETATM   24  C5  UNL     1      26.115   3.374  49.988  1.00  0.00     0.035 A 
HETATM   25  C4  UNL     1      24.859   3.913  50.027  1.00  0.00     0.029 A 
HETATM   26  C3  UNL     1      24.519   5.138  49.495  1.00  0.00     0.004 A 
HETATM   27  C2  UNL     1      25.487   5.899  48.873  1.00  0.00     0.019 A 
HETATM   28  C1  UNL     1      26.800   5.420  48.791  1.00  0.00     0.013 A 
HETATM   29 BR1  UNL     1      28.172   6.435  47.945  1.00  0.00    -0.051 Br
HETATM   30  C20 UNL     1      27.033   4.186  49.353  1.00  0.00     0.048 A 
ENDBRANCH  22  24
ENDBRANCH   1  22
TORSDOF 7
ENDMDL
MODEL 4
REMARK VINA RESULT:      -7.5      2.347      5.775
REMARK  7 active torsions:
REMARK  status: ('A' for Active; 'I' for Inactive)
REMARK    1  A    between atoms: C5_6  and  N1_7 
REMARK    2  A    between atoms: N1_7  and  C6_8 
REMARK    3  A    between atoms: N4_15  and  C11_16 
REMARK    4  A    between atoms: C11_16  and  N5_17 
REMARK    5  A    between atoms: N5_17  and  C12_18 
REMARK    6  A    between atoms: C12_18  and  C13_19 
REMARK    7  A    between atoms: C13_19  and  N6_20 
ROOT
HETATM    1  C6  UNL     1      23.409   3.198  49.679  1.00  0.00     0.141 C 
HETATM    2  N2  UNL     1      23.146   3.480  48.436  1.00  0.00    -0.224 NA
HETATM    3  C7  UNL     1      22.245   2.723  47.608  1.00  0.00     0.229 C 
HETATM    4  N3  UNL     1      21.258   1.955  47.869  1.00  0.00    -0.278 NA
HETATM    5  C8  UNL     1      20.669   1.554  49.111  1.00  0.00     0.191 C 
HETATM    6  C9  UNL     1      21.696   1.431  50.169  1.00  0.00    -0.007 A 
HETATM    7  C10 UNL     1      21.638   0.488  51.199  1.00  0.00     0.102 A 
HETATM    8  N4  UNL     1      22.712   0.627  52.015  1.00  0.00    -0.339 N 
HETATM    9  C18 UNL     1      23.517   1.631  51.591  1.00  0.00     0.108 A 
HETATM   10  C19 UNL     1      22.869   2.083  50.483  1.00  0.00     0.035 A 
ENDROOT
BRANCH   8  11
HETATM   11  C11 UNL     1      23.036  -0.164  53.210  1.00  0.00     0.398 C 
BRANCH  11  12
HETATM   12  N5  UNL     1      24.289   0.315  53.758  1.00  0.00     0.102 N 
HETATM   13  H11 UNL     1      24.166   1.210  54.266  1.00  0.00     0.318 HD
BRANCH  12  14
HETATM   14  C12 UNL     1      25.034  -0.668  54.482  1.00  0.00     0.293 C 
BRANCH  14  15
HETATM   15  C13 UNL     1      26.409  -0.203  54.907  1.00  0.00     0.179 C 
BRANCH  15  16
HETATM   16  N6  UNL     1      27.024   0.402  53.768  1.00  0.00    -0.293 N 
HETATM   17  C14 UNL     1      28.184  -0.251  53.259  1.00  0.00     0.149 C 
HETATM   18  C15 UNL     1      29.488   0.203  53.840  1.00  0.00     0.024 C 
HETATM   19  C16 UNL     1      29.372   1.631  54.275  1.00  0.00     0.030 C 
HETATM   20  C17 UNL     1      28.260   2.315  53.511  1.00  0.00     0.201 C 
HETATM   21  O1  UNL     1      27.028   1.729  53.739  1.00  0.00    -0.283 OA
ENDBRANCH  15  16
ENDBRANCH  14  15
ENDBRANCH  12  14
ENDBRANCH  11  12
ENDBRANCH   8  11
BRANCH   1  22
HETATM   22  N1  UNL     1      24.328   4.093  50.278  1.00  0.00    -0.340 N 
HETATM   23  H4  UNL     1      24.127   4.336  51.274  1.00  0.00     0.167 HD
BRANCH  22  24
HETATM   24  C5  UNL     1      25.450   4.655  49.627  1.00  0.00     0.035 A 
HETATM   25  C4  UNL     1      26.645   4.072  49.308  1.00  0.00     0.029 A 
HETATM   26  C3  UNL     1      27.686   4.719  48.678  1.00  0.00     0.004 A 
HETATM   27  C2  UNL     1      27.546   6.047  48.331  1.00  0.00     0.019 A 
HETATM   28  C1  UNL     1      26.353   6.719  48.622  1.00  0.00     0.013 A 
HETATM   29 BR1  UNL     1      26.112   8.551  48.160  1.00  0.00    -0.051 Br
HETATM   30  C20 UNL     1      25.378   5.981  49.253  1.00  0.00     0.048 A 
ENDBRANCH  22  24
ENDBRANCH   1  22
TORSDOF 7
ENDMDL
MODEL 5
REMARK VINA RESULT:      -7.3      2.616      5.282
REMARK  7 active torsions:
REMARK  status: ('A' for Active; 'I' for Inactive)
REMARK    1  A    between atoms: C5_6  and  N1_7 
REMARK    2  A    between atoms: N1_7  and  C6_8 
REMARK    3  A    between atoms: N4_15  and  C11_16 
REMARK    4  A    between atoms: C11_16  and  N5_17 
REMARK    5  A    between atoms: N5_17  and  C12_18 
REMARK    6  A    between atoms: C12_18  and  C13_19 
REMARK    7  A    between atoms: C13_19  and  N6_20 
ROOT
HETATM    1  C6  UNL     1      25.710   2.812  51.652  1.00  0.00     0.141 C 
HETATM    2  N2  UNL     1      26.759   2.913  50.887  1.00  0.00    -0.224 NA
HETATM    3  C7  UNL     1      26.798   3.671  49.665  1.00  0.00     0.229 C 
HETATM    4  N3  UNL     1      26.118   4.660  49.230  1.00  0.00    -0.278 NA
HETATM    5  C8  UNL     1      25.038   5.400  49.812  1.00  0.00     0.191 C 
HETATM    6  C9  UNL     1      24.179   4.521  50.636  1.00  0.00    -0.007 A 
HETATM    7  C10 UNL     1      22.798   4.690  50.767  1.00  0.00     0.102 A 
HETATM    8  N4  UNL     1      22.292   3.741  51.593  1.00  0.00    -0.339 N 
HETATM    9  C18 UNL     1      23.269   2.916  52.042  1.00  0.00     0.108 A 
HETATM   10  C19 UNL     1      24.382   3.422  51.443  1.00  0.00     0.035 A 
ENDROOT
BRANCH   8  11
HETATM   11  C11 UNL     1      20.890   3.557  51.992  1.00  0.00     0.398 C 
BRANCH  11  12
HETATM   12  N5  UNL     1      20.359   2.397  51.305  1.00  0.00     0.102 N 
HETATM   13  H11 UNL     1      21.086   1.926  50.737  1.00  0.00     0.318 HD
BRANCH  12  14
HETATM   14  C12 UNL     1      19.603   1.511  52.134  1.00  0.00     0.293 C 
BRANCH  14  15
HETATM   15  C13 UNL     1      20.331   1.070  53.384  1.00  0.00     0.179 C 
BRANCH  15  16
HETATM   16  N6  UNL     1      20.906  -0.209  53.111  1.00  0.00    -0.293 N 
HETATM   17  C14 UNL     1      20.978  -1.112  54.211  1.00  0.00     0.149 C 
HETATM   18  C15 UNL     1      22.236  -1.045  55.022  1.00  0.00     0.024 C 
HETATM   19  C16 UNL     1      23.366  -0.585  54.156  1.00  0.00     0.030 C 
HETATM   20  C17 UNL     1      23.059  -0.883  52.705  1.00  0.00     0.201 C 
HETATM   21  O1  UNL     1      21.926  -0.226  52.262  1.00  0.00    -0.283 OA
ENDBRANCH  15  16
ENDBRANCH  14  15
ENDBRANCH  12  14
ENDBRANCH  11  12
ENDBRANCH   8  11
BRANCH   1  22
HETATM   22  N1  UNL     1      25.924   2.010  52.798  1.00  0.00    -0.340 N 
HETATM   23  H4  UNL     1      25.080   1.849  53.392  1.00  0.00     0.167 HD
BRANCH  22  24
HETATM   24  C5  UNL     1      27.165   1.444  53.170  1.00  0.00     0.035 A 
HETATM   25  C4  UNL     1      28.277   2.058  53.678  1.00  0.00     0.029 A 
HETATM   26  C3  UNL     1      29.449   1.410  53.999  1.00  0.00     0.004 A 
HETATM   27  C2  UNL     1      29.543   0.047  53.806  1.00  0.00     0.019 A 
HETATM   28  C1  UNL     1      28.450  -0.659  53.290  1.00  0.00     0.013 A 
HETATM   29 BR1  UNL     1      28.530  -2.541  53.009  1.00  0.00    -0.051 Br
HETATM   30  C20 UNL     1      27.328   0.084  53.002  1.00  0.00     0.048 A 
ENDBRANCH  22  24
ENDBRANCH   1  22
TORSDOF 7
ENDMDL
MODEL 6
REMARK VINA RESULT:      -7.3      1.519      2.089
REMARK  7 active torsions:
REMARK  status: ('A' for Active; 'I' for Inactive)
REMARK    1  A    between atoms: C5_6  and  N1_7 
REMARK    2  A    between atoms: N1_7  and  C6_8 
REMARK    3  A    between atoms: N4_15  and  C11_16 
REMARK    4  A    between atoms: C11_16  and  N5_17 
REMARK    5  A    between atoms: N5_17  and  C12_18 
REMARK    6  A    between atoms: C12_18  and  C13_19 
REMARK    7  A    between atoms: C13_19  and  N6_20 
ROOT
HETATM    1  C6  UNL     1      26.771   2.017  51.768  1.00  0.00     0.141 C 
HETATM    2  N2  UNL     1      27.891   2.519  52.201  1.00  0.00    -0.224 NA
HETATM    3  C7  UNL     1      28.411   2.310  53.527  1.00  0.00     0.229 C 
HETATM    4  N3  UNL     1      28.231   1.395  54.399  1.00  0.00    -0.278 NA
HETATM    5  C8  UNL     1      27.427   0.209  54.382  1.00  0.00     0.191 C 
HETATM    6  C9  UNL     1      26.180   0.428  53.617  1.00  0.00    -0.007 A 
HETATM    7  C10 UNL     1      24.961  -0.179  53.934  1.00  0.00     0.102 A 
HETATM    8  N4  UNL     1      24.009   0.207  53.049  1.00  0.00    -0.339 N 
HETATM    9  C18 UNL     1      24.518   1.059  52.127  1.00  0.00     0.108 A 
HETATM   10  C19 UNL     1      25.821   1.162  52.507  1.00  0.00     0.035 A 
ENDROOT
BRANCH   8  11
HETATM   11  C11 UNL     1      22.595  -0.193  53.025  1.00  0.00     0.398 C 
BRANCH  11  12
HETATM   12  N5  UNL     1      21.942   0.474  51.917  1.00  0.00     0.102 N 
HETATM   13  H11 UNL     1      21.756  -0.180  51.135  1.00  0.00     0.318 HD
BRANCH  12  14
HETATM   14  C12 UNL     1      20.817   1.275  52.286  1.00  0.00     0.293 C 
BRANCH  14  15
HETATM   15  C13 UNL     1      20.163   1.986  51.123  1.00  0.00     0.179 C 
BRANCH  15  16
HETATM   16  N6  UNL     1      19.276   1.054  50.501  1.00  0.00    -0.293 N 
HETATM   17  C14 UNL     1      18.212   1.615  49.737  1.00  0.00     0.149 C 
HETATM   18  C15 UNL     1      16.943   1.876  50.490  1.00  0.00     0.024 C 
HETATM   19  C16 UNL     1      16.827   0.908  51.626  1.00  0.00     0.030 C 
HETATM   20  C17 UNL     1      17.650  -0.328  51.337  1.00  0.00     0.201 C 
HETATM   21  O1  UNL     1      18.995  -0.042  51.194  1.00  0.00    -0.283 OA
ENDBRANCH  15  16
ENDBRANCH  14  15
ENDBRANCH  12  14
ENDBRANCH  11  12
ENDBRANCH   8  11
BRANCH   1  22
HETATM   22  N1  UNL     1      26.478   2.368  50.428  1.00  0.00    -0.340 N 
HETATM   23  H4  UNL     1      26.290   1.564  49.788  1.00  0.00     0.167 HD
BRANCH  22  24
HETATM   24  C5  UNL     1      26.434   3.690  49.929  1.00  0.00     0.035 A 
HETATM   25  C4  UNL     1      27.256   4.298  49.021  1.00  0.00     0.029 A 
HETATM   26  C3  UNL     1      27.131   5.607  48.609  1.00  0.00     0.004 A 
HETATM   27  C2  UNL     1      26.118   6.386  49.128  1.00  0.00     0.019 A 
HETATM   28  C1  UNL     1      25.231   5.840  50.064  1.00  0.00     0.013 A 
HETATM   29 BR1  UNL     1      23.815   6.875  50.807  1.00  0.00    -0.051 Br
HETATM   30  C20 UNL     1      25.445   4.525  50.408  1.00  0.00     0.048 A 
ENDBRANCH  22  24
ENDBRANCH   1  22
TORSDOF 7
ENDMDL
MODEL 7
REMARK VINA RESULT:      -7.2      5.098      9.385
REMARK  7 active torsions:
REMARK  status: ('A' for Active; 'I' for Inactive)
REMARK    1  A    between atoms: C5_6  and  N1_7 
REMARK    2  A    between atoms: N1_7  and  C6_8 
REMARK    3  A    between atoms: N4_15  and  C11_16 
REMARK    4  A    between atoms: C11_16  and  N5_17 
REMARK    5  A    between atoms: N5_17  and  C12_18 
REMARK    6  A    between atoms: C12_18  and  C13_19 
REMARK    7  A    between atoms: C13_19  and  N6_20 
ROOT
HETATM    1  C6  UNL     1      24.837   3.661  50.810  1.00  0.00     0.141 C 
HETATM    2  N2  UNL     1      23.899   4.030  51.634  1.00  0.00    -0.224 NA
HETATM    3  C7  UNL     1      23.539   5.400  51.887  1.00  0.00     0.229 C 
HETATM    4  N3  UNL     1      23.666   6.474  51.209  1.00  0.00    -0.278 NA
HETATM    5  C8  UNL     1      24.229   6.720  49.915  1.00  0.00     0.191 C 
HETATM    6  C9  UNL     1      25.377   5.823  49.658  1.00  0.00    -0.007 A 
HETATM    7  C10 UNL     1      26.496   6.193  48.906  1.00  0.00     0.102 A 
HETATM    8  N4  UNL     1      27.370   5.159  48.840  1.00  0.00    -0.339 N 
HETATM    9  C18 UNL     1      26.904   4.083  49.517  1.00  0.00     0.108 A 
HETATM   10  C19 UNL     1      25.707   4.527  49.990  1.00  0.00     0.035 A 
ENDROOT
BRANCH   8  11
HETATM   11  C11 UNL     1      28.670   5.130  48.154  1.00  0.00     0.398 C 
BRANCH  11  12
HETATM   12  N5  UNL     1      29.615   5.921  48.915  1.00  0.00     0.102 N 
HETATM   13  H11 UNL     1      29.773   5.523  49.858  1.00  0.00     0.318 HD
BRANCH  12  14
HETATM   14  C12 UNL     1      30.816   6.248  48.212  1.00  0.00     0.293 C 
BRANCH  14  15
HETATM   15  C13 UNL     1      31.603   5.042  47.750  1.00  0.00     0.179 C 
BRANCH  15  16
HETATM   16  N6  UNL     1      32.950   5.468  47.540  1.00  0.00    -0.293 N 
HETATM   17  C14 UNL     1      33.572   5.017  46.340  1.00  0.00     0.149 C 
HETATM   18  C15 UNL     1      34.308   3.716  46.443  1.00  0.00     0.024 C 
HETATM   19  C16 UNL     1      34.805   3.532  47.842  1.00  0.00     0.030 C 
HETATM   20  C17 UNL     1      34.932   4.875  48.526  1.00  0.00     0.201 C 
HETATM   21  O1  UNL     1      33.720   5.534  48.619  1.00  0.00    -0.283 OA
ENDBRANCH  15  16
ENDBRANCH  14  15
ENDBRANCH  12  14
ENDBRANCH  11  12
ENDBRANCH   8  11
BRANCH   1  22
HETATM   22  N1  UNL     1      25.001   2.257  50.736  1.00  0.00    -0.340 N 
HETATM   23  H4  UNL     1      24.890   1.845  49.782  1.00  0.00     0.167 HD
BRANCH  22  24
HETATM   24  C5  UNL     1      25.288   1.417  51.837  1.00  0.00     0.035 A 
HETATM   25  C4  UNL     1      24.436   0.657  52.589  1.00  0.00     0.029 A 
HETATM   26  C3  UNL     1      24.821  -0.124  53.656  1.00  0.00     0.004 A 
HETATM   27  C2  UNL     1      26.152  -0.166  54.019  1.00  0.00     0.019 A 
HETATM   28  C1  UNL     1      27.091   0.582  53.300  1.00  0.00     0.013 A 
HETATM   29 BR1  UNL     1      28.940   0.555  53.759  1.00  0.00    -0.051 Br
HETATM   30  C20 UNL     1      26.601   1.329  52.252  1.00  0.00     0.048 A 
ENDBRANCH  22  24
ENDBRANCH   1  22
TORSDOF 7
ENDMDL
MODEL 8
REMARK VINA RESULT:      -7.1      2.172      5.666
REMARK  7 active torsions:
REMARK  status: ('A' for Active; 'I' for Inactive)
REMARK    1  A    between atoms: C5_6  and  N1_7 
REMARK    2  A    between atoms: N1_7  and  C6_8 
REMARK    3  A    between atoms: N4_15  and  C11_16 
REMARK    4  A    between atoms: C11_16  and  N5_17 
REMARK    5  A    between atoms: N5_17  and  C12_18 
REMARK    6  A    between atoms: C12_18  and  C13_19 
REMARK    7  A    between atoms: C13_19  and  N6_20 
ROOT
HETATM    1  C6  UNL     1      21.833   3.227  51.332  1.00  0.00     0.141 C 
HETATM    2  N2  UNL     1      21.142   3.689  50.330  1.00  0.00    -0.224 NA
HETATM    3  C7  UNL     1      19.946   3.071  49.820  1.00  0.00     0.229 C 
HETATM    4  N3  UNL     1      19.081   2.288  50.339  1.00  0.00    -0.278 NA
HETATM    5  C8  UNL     1      18.976   1.721  51.650  1.00  0.00     0.191 C 
HETATM    6  C9  UNL     1      20.315   1.433  52.209  1.00  0.00    -0.007 A 
HETATM    7  C10 UNL     1      20.585   0.354  53.056  1.00  0.00     0.102 A 
HETATM    8  N4  UNL     1      21.894   0.359  53.409  1.00  0.00    -0.339 N 
HETATM    9  C18 UNL     1      22.547   1.402  52.841  1.00  0.00     0.108 A 
HETATM   10  C19 UNL     1      21.562   2.017  52.132  1.00  0.00     0.035 A 
ENDROOT
BRANCH   8  11
HETATM   11  C11 UNL     1      22.590  -0.600  54.279  1.00  0.00     0.398 C 
BRANCH  11  12
HETATM   12  N5  UNL     1      24.002  -0.581  53.954  1.00  0.00     0.102 N 
HETATM   13  H11 UNL     1      24.269   0.293  53.467  1.00  0.00     0.318 HD
BRANCH  12  14
HETATM   14  C12 UNL     1      24.864  -0.930  55.039  1.00  0.00     0.293 C 
BRANCH  14  15
HETATM   15  C13 UNL     1      25.961   0.078  55.298  1.00  0.00     0.179 C 
BRANCH  15  16
HETATM   16  N6  UNL     1      27.056  -0.257  54.442  1.00  0.00    -0.293 N 
HETATM   17  C14 UNL     1      27.781   0.840  53.893  1.00  0.00     0.149 C 
HETATM   18  C15 UNL     1      27.285   1.347  52.573  1.00  0.00     0.024 C 
HETATM   19  C16 UNL     1      26.629   0.230  51.823  1.00  0.00     0.030 C 
HETATM   20  C17 UNL     1      27.154  -1.101  52.314  1.00  0.00     0.201 C 
HETATM   21  O1  UNL     1      26.884  -1.310  53.654  1.00  0.00    -0.283 OA
ENDBRANCH  15  16
ENDBRANCH  14  15
ENDBRANCH  12  14
ENDBRANCH  11  12
ENDBRANCH   8  11
BRANCH   1  22
HETATM   22  N1  UNL     1      22.968   4.014  51.642  1.00  0.00    -0.340 N 
HETATM   23  H4  UNL     1      22.908   4.549  52.537  1.00  0.00     0.167 HD
BRANCH  22  24
HETATM   24  C5  UNL     1      24.127   4.114  50.838  1.00  0.00     0.035 A 
HETATM   25  C4  UNL     1      24.885   3.119  50.286  1.00  0.00     0.029 A 
HETATM   26  C3  UNL     1      26.011   3.327  49.521  1.00  0.00     0.004 A 
HETATM   27  C2  UNL     1      26.433   4.617  49.275  1.00  0.00     0.019 A 
HETATM   28  C1  UNL     1      25.713   5.696  49.803  1.00  0.00     0.013 A 
HETATM   29 BR1  UNL     1      26.254   7.495  49.488  1.00  0.00    -0.051 Br
HETATM   30  C20 UNL     1      24.604   5.378  50.553  1.00  0.00     0.048 A 
ENDBRANCH  22  24
ENDBRANCH   1  22
TORSDOF 7
ENDMDL
MODEL 9
REMARK VINA RESULT:      -7.1      4.915      8.065
REMARK  7 active torsions:
REMARK  status: ('A' for Active; 'I' for Inactive)
REMARK    1  A    between atoms: C5_6  and  N1_7 
REMARK    2  A    between atoms: N1_7  and  C6_8 
REMARK    3  A    between atoms: N4_15  and  C11_16 
REMARK    4  A    between atoms: C11_16  and  N5_17 
REMARK    5  A    between atoms: N5_17  and  C12_18 
REMARK    6  A    between atoms: C12_18  and  C13_19 
REMARK    7  A    between atoms: C13_19  and  N6_20 
ROOT
HETATM    1  C6  UNL     1      29.206   6.688  48.023  1.00  0.00     0.141 C 
HETATM    2  N2  UNL     1      29.572   7.542  47.112  1.00  0.00    -0.224 NA
HETATM    3  C7  UNL     1      28.663   8.211  46.220  1.00  0.00     0.229 C 
HETATM    4  N3  UNL     1      27.419   8.490  46.290  1.00  0.00    -0.278 NA
HETATM    5  C8  UNL     1      26.443   8.234  47.307  1.00  0.00     0.191 C 
HETATM    6  C9  UNL     1      26.711   6.944  47.982  1.00  0.00    -0.007 A 
HETATM    7  C10 UNL     1      25.706   6.105  48.472  1.00  0.00     0.102 A 
HETATM    8  N4  UNL     1      26.260   5.007  49.045  1.00  0.00    -0.339 N 
HETATM    9  C18 UNL     1      27.612   5.050  48.973  1.00  0.00     0.108 A 
HETATM   10  C19 UNL     1      27.836   6.228  48.328  1.00  0.00     0.035 A 
ENDROOT
BRANCH   8  11
HETATM   11  C11 UNL     1      25.561   3.878  49.675  1.00  0.00     0.398 C 
BRANCH  11  12
HETATM   12  N5  UNL     1      26.318   3.451  50.834  1.00  0.00     0.102 N 
HETATM   13  H11 UNL     1      26.679   4.260  51.372  1.00  0.00     0.318 HD
BRANCH  12  14
HETATM   14  C12 UNL     1      25.668   2.463  51.636  1.00  0.00     0.293 C 
BRANCH  14  15
HETATM   15  C13 UNL     1      26.440   1.168  51.756  1.00  0.00     0.179 C 
BRANCH  15  16
HETATM   16  N6  UNL     1      26.752   0.986  53.139  1.00  0.00    -0.293 N 
HETATM   17  C14 UNL     1      27.329   2.106  53.804  1.00  0.00     0.149 C 
HETATM   18  C15 UNL     1      28.826   2.174  53.776  1.00  0.00     0.024 C 
HETATM   19  C16 UNL     1      29.387   0.791  53.682  1.00  0.00     0.030 C 
HETATM   20  C17 UNL     1      28.386  -0.212  54.211  1.00  0.00     0.201 C 
HETATM   21  O1  UNL     1      27.209  -0.211  53.485  1.00  0.00    -0.283 OA
ENDBRANCH  15  16
ENDBRANCH  14  15
ENDBRANCH  12  14
ENDBRANCH  11  12
ENDBRANCH   8  11
BRANCH   1  22
HETATM   22  N1  UNL     1      30.287   6.167  48.773  1.00  0.00    -0.340 N 
HETATM   23  H4  UNL     1      30.235   6.334  49.803  1.00  0.00     0.167 HD
BRANCH  22  24
HETATM   24  C5  UNL     1      31.388   5.467  48.227  1.00  0.00     0.035 A 
HETATM   25  C4  UNL     1      31.397   4.436  47.330  1.00  0.00     0.029 A 
HETATM   26  C3  UNL     1      32.536   3.813  46.868  1.00  0.00     0.004 A 
HETATM   27  C2  UNL     1      33.769   4.234  47.321  1.00  0.00     0.019 A 
HETATM   28  C1  UNL     1      33.849   5.286  48.242  1.00  0.00     0.013 A 
HETATM   29 BR1  UNL     1      35.527   5.904  48.895  1.00  0.00    -0.051 Br
HETATM   30  C20 UNL     1      32.652   5.838  48.639  1.00  0.00     0.048 A 
ENDBRANCH  22  24
ENDBRANCH   1  22
TORSDOF 7
ENDMDL
