MODEL 1
REMARK VINA RESULT:      -8.7      0.000      0.000
REMARK  5 active torsions:
REMARK  status: ('A' for Active; 'I' for Inactive)
REMARK    1  A    between atoms: O1_2  and  C2_3 
REMARK    2  A    between atoms: C7_8  and  O2_9 
REMARK    3  A    between atoms: C11_16  and  N3_17 
REMARK    4  A    between atoms: N3_17  and  C12_18 
REMARK    5  A    between atoms: C12_18  and  C13_19 
ROOT
HETATM    1  C2  UNL     1      28.842   6.301  48.357  1.00  0.00     0.102 A 
HETATM    2  C3  UNL     1      28.273   5.089  48.567  1.00  0.00     0.051 A 
HETATM    3  C4  UNL     1      26.935   4.868  48.920  1.00  0.00    -0.004 A 
HETATM    4  C5  UNL     1      26.113   5.997  49.066  1.00  0.00     0.088 A 
HETATM    5  C6  UNL     1      26.651   7.277  48.859  1.00  0.00     0.077 A 
HETATM    6  C7  UNL     1      27.979   7.382  48.517  1.00  0.00     0.104 A 
HETATM    7  O3  UNL     1      24.773   5.814  49.423  1.00  0.00    -0.289 OA
HETATM    8  C9  UNL     1      24.391   5.109  50.579  1.00  0.00     0.201 A 
HETATM    9  N1  UNL     1      23.541   5.565  51.499  1.00  0.00    -0.215 NA
HETATM   10  C10 UNL     1      23.176   4.910  52.596  1.00  0.00     0.237 A 
HETATM   11  N2  UNL     1      23.667   3.676  52.865  1.00  0.00    -0.227 NA
HETATM   12  C11 UNL     1      24.546   3.124  51.979  1.00  0.00     0.139 A 
HETATM   13  C19 UNL     1      24.883   3.857  50.860  1.00  0.00     0.123 A 
HETATM   14  N4  UNL     1      25.809   3.053  50.135  1.00  0.00    -0.379 N 
HETATM   15  C20 UNL     1      26.688   3.412  49.050  1.00  0.00     0.161 C 
HETATM   16  H16 UNL     1      25.887   2.029  50.422  1.00  0.00     0.160 HD
ENDROOT
BRANCH  12  17
HETATM   17  N3  UNL     1      24.945   1.865  52.392  1.00  0.00    -0.251 NA
HETATM   18  H10 UNL     1      24.257   1.422  51.685  1.00  0.00     0.134 HD
BRANCH  17  19
HETATM   19  C12 UNL     1      25.210   0.530  52.655  1.00  0.00     0.071 C 
BRANCH  19  20
HETATM   20  C13 UNL     1      26.462   0.159  52.972  1.00  0.00    -0.042 A 
HETATM   21  C14 UNL     1      27.392   1.082  53.572  1.00  0.00     0.035 A 
HETATM   22  C15 UNL     1      28.663   0.873  53.879  1.00  0.00     0.072 A 
HETATM   23 CL1  UNL     1      29.661   2.106  54.601  1.00  0.00    -0.081 Cl
HETATM   24  C16 UNL     1      29.186  -0.459  53.605  1.00  0.00     0.134 A 
HETATM   25  F1  UNL     1      30.466  -0.805  53.868  1.00  0.00    -0.205 F 
HETATM   26  C17 UNL     1      28.371  -1.335  53.085  1.00  0.00     0.022 A 
HETATM   27  C18 UNL     1      26.927  -1.220  52.704  1.00  0.00     0.070 A 
ENDBRANCH  19  20
ENDBRANCH  17  19
ENDBRANCH  12  17
BRANCH   6  28
HETATM   28  O2  UNL     1      28.434   8.679  48.331  1.00  0.00    -0.353 OA
HETATM   29  C8  UNL     1      28.618   9.549  49.449  1.00  0.00     0.210 C 
ENDBRANCH   6  28
BRANCH   1  30
HETATM   30  O1  UNL     1      30.135   6.616  48.014  1.00  0.00    -0.353 OA
HETATM   31  C1  UNL     1      31.175   6.599  48.958  1.00  0.00     0.210 C 
ENDBRANCH   1  30
TORSDOF 5
ENDMDL
MODEL 2
REMARK VINA RESULT:      -8.4      1.499      1.840
REMARK  5 active torsions:
REMARK  status: ('A' for Active; 'I' for Inactive)
REMARK    1  A    between atoms: O1_2  and  C2_3 
REMARK    2  A    between atoms: C7_8  and  O2_9 
REMARK    3  A    between atoms: C11_16  and  N3_17 
REMARK    4  A    between atoms: N3_17  and  C12_18 
REMARK    5  A    between atoms: C12_18  and  C13_19 
ROOT
HETATM    1  C2  UNL     1      27.572   7.568  48.059  1.00  0.00     0.102 A 
HETATM    2  C3  UNL     1      27.552   6.311  48.565  1.00  0.00     0.051 A 
HETATM    3  C4  UNL     1      26.399   5.567  48.850  1.00  0.00    -0.004 A 
HETATM    4  C5  UNL     1      25.160   6.175  48.589  1.00  0.00     0.088 A 
HETATM    5  C6  UNL     1      25.124   7.477  48.064  1.00  0.00     0.077 A 
HETATM    6  C7  UNL     1      26.316   8.119  47.821  1.00  0.00     0.104 A 
HETATM    7  O3  UNL     1      23.989   5.464  48.868  1.00  0.00    -0.289 OA
HETATM    8  C9  UNL     1      23.712   4.936  50.141  1.00  0.00     0.201 A 
HETATM    9  N1  UNL     1      22.576   5.126  50.811  1.00  0.00    -0.215 NA
HETATM   10  C10 UNL     1      22.306   4.634  52.017  1.00  0.00     0.237 A 
HETATM   11  N2  UNL     1      23.212   3.872  52.675  1.00  0.00    -0.227 NA
HETATM   12  C11 UNL     1      24.408   3.622  52.068  1.00  0.00     0.139 A 
HETATM   13  C19 UNL     1      24.625   4.161  50.817  1.00  0.00     0.123 A 
HETATM   14  N4  UNL     1      25.936   3.753  50.441  1.00  0.00    -0.379 N 
HETATM   15  C20 UNL     1      26.782   4.237  49.378  1.00  0.00     0.161 C 
HETATM   16  H16 UNL     1      26.386   2.978  51.020  1.00  0.00     0.160 HD
ENDROOT
BRANCH  12  17
HETATM   17  N3  UNL     1      25.214   2.826  52.864  1.00  0.00    -0.251 NA
HETATM   18  H10 UNL     1      25.744   3.708  53.198  1.00  0.00     0.134 HD
BRANCH  17  19
HETATM   19  C12 UNL     1      26.112   2.214  53.725  1.00  0.00     0.071 C 
BRANCH  19  20
HETATM   20  C13 UNL     1      26.501   0.952  53.479  1.00  0.00    -0.042 A 
HETATM   21  C14 UNL     1      27.866   0.532  53.675  1.00  0.00     0.035 A 
HETATM   22  C15 UNL     1      28.398  -0.652  53.419  1.00  0.00     0.072 A 
HETATM   23 CL1  UNL     1      30.082  -0.999  53.710  1.00  0.00    -0.081 Cl
HETATM   24  C16 UNL     1      27.495  -1.671  52.900  1.00  0.00     0.134 A 
HETATM   25  F1  UNL     1      27.909  -2.922  52.595  1.00  0.00    -0.205 F 
HETATM   26  C17 UNL     1      26.244  -1.343  52.732  1.00  0.00     0.022 A 
HETATM   27  C18 UNL     1      25.530  -0.052  52.988  1.00  0.00     0.070 A 
ENDBRANCH  19  20
ENDBRANCH  17  19
ENDBRANCH  12  17
BRANCH   6  28
HETATM   28  O2  UNL     1      26.196   9.400  47.304  1.00  0.00    -0.353 OA
HETATM   29  C8  UNL     1      25.725  10.471  48.124  1.00  0.00     0.210 C 
ENDBRANCH   6  28
BRANCH   1  30
HETATM   30  O1  UNL     1      28.643   8.373  47.751  1.00  0.00    -0.353 OA
HETATM   31  C1  UNL     1      29.460   8.931  48.749  1.00  0.00     0.210 C 
ENDBRANCH   1  30
TORSDOF 5
ENDMDL
MODEL 3
REMARK VINA RESULT:      -8.3      3.976      7.527
REMARK  5 active torsions:
REMARK  status: ('A' for Active; 'I' for Inactive)
REMARK    1  A    between atoms: O1_2  and  C2_3 
REMARK    2  A    between atoms: C7_8  and  O2_9 
REMARK    3  A    between atoms: C11_16  and  N3_17 
REMARK    4  A    between atoms: N3_17  and  C12_18 
REMARK    5  A    between atoms: C12_18  and  C13_19 
ROOT
HETATM    1  C2  UNL     1      26.539   1.113  53.972  1.00  0.00     0.102 A 
HETATM    2  C3  UNL     1      25.784   2.198  53.671  1.00  0.00     0.051 A 
HETATM    3  C4  UNL     1      24.514   2.167  53.079  1.00  0.00    -0.004 A 
HETATM    4  C5  UNL     1      23.978   0.905  52.772  1.00  0.00     0.088 A 
HETATM    5  C6  UNL     1      24.718  -0.252  53.063  1.00  0.00     0.077 A 
HETATM    6  C7  UNL     1      25.957  -0.108  53.645  1.00  0.00     0.104 A 
HETATM    7  O3  UNL     1      22.716   0.837  52.174  1.00  0.00    -0.289 OA
HETATM    8  C9  UNL     1      22.413   1.505  50.974  1.00  0.00     0.201 A 
HETATM    9  N1  UNL     1      21.853   0.934  49.909  1.00  0.00    -0.215 NA
HETATM   10  C10 UNL     1      21.566   1.555  48.769  1.00  0.00     0.237 A 
HETATM   11  N2  UNL     1      21.837   2.872  48.607  1.00  0.00    -0.227 NA
HETATM   12  C11 UNL     1      22.412   3.545  49.646  1.00  0.00     0.139 A 
HETATM   13  C19 UNL     1      22.684   2.842  50.801  1.00  0.00     0.123 A 
HETATM   14  N4  UNL     1      23.281   3.778  51.693  1.00  0.00    -0.379 N 
HETATM   15  C20 UNL     1      24.005   3.549  52.919  1.00  0.00     0.161 C 
HETATM   16  H16 UNL     1      23.200   4.810  51.436  1.00  0.00     0.160 HD
ENDROOT
BRANCH  12  17
HETATM   17  N3  UNL     1      22.615   4.876  49.326  1.00  0.00    -0.251 NA
HETATM   18  H10 UNL     1      22.655   5.116  50.380  1.00  0.00     0.134 HD
BRANCH  17  19
HETATM   19  C12 UNL     1      22.833   6.241  49.218  1.00  0.00     0.071 C 
BRANCH  19  20
HETATM   20  C13 UNL     1      24.094   6.704  49.184  1.00  0.00    -0.042 A 
HETATM   21  C14 UNL     1      25.208   5.834  48.901  1.00  0.00     0.035 A 
HETATM   22  C15 UNL     1      26.496   6.138  48.893  1.00  0.00     0.072 A 
HETATM   23 CL1  UNL     1      27.729   4.959  48.533  1.00  0.00    -0.081 Cl
HETATM   24  C16 UNL     1      26.837   7.525  49.179  1.00  0.00     0.134 A 
HETATM   25  F1  UNL     1      28.114   7.970  49.204  1.00  0.00    -0.205 F 
HETATM   26  C17 UNL     1      25.858   8.355  49.415  1.00  0.00     0.022 A 
HETATM   27  C18 UNL     1      24.377   8.132  49.445  1.00  0.00     0.070 A 
ENDBRANCH  19  20
ENDBRANCH  17  19
ENDBRANCH  12  17
BRANCH   6  28
HETATM   28  O2  UNL     1      26.624  -1.296  53.900  1.00  0.00    -0.353 OA
HETATM   29  C8  UNL     1      27.163  -2.069  52.826  1.00  0.00     0.210 C 
ENDBRANCH   6  28
BRANCH   1  30
HETATM   30  O1  UNL     1      27.786   1.044  54.546  1.00  0.00    -0.353 OA
HETATM   31  C1  UNL     1      28.946   1.404  53.841  1.00  0.00     0.210 C 
ENDBRANCH   1  30
TORSDOF 5
ENDMDL
MODEL 4
REMARK VINA RESULT:      -8.2      1.441      2.050
REMARK  5 active torsions:
REMARK  status: ('A' for Active; 'I' for Inactive)
REMARK    1  A    between atoms: O1_2  and  C2_3 
REMARK    2  A    between atoms: C7_8  and  O2_9 
REMARK    3  A    between atoms: C11_16  and  N3_17 
REMARK    4  A    between atoms: N3_17  and  C12_18 
REMARK    5  A    between atoms: C12_18  and  C13_19 
ROOT
HETATM    1  C2  UNL     1      29.991   6.487  48.130  1.00  0.00     0.102 A 
HETATM    2  C3  UNL     1      29.139   5.494  48.482  1.00  0.00     0.051 A 
HETATM    3  C4  UNL     1      27.740   5.581  48.475  1.00  0.00    -0.004 A 
HETATM    4  C5  UNL     1      27.173   6.800  48.069  1.00  0.00     0.088 A 
HETATM    5  C6  UNL     1      28.011   7.862  47.692  1.00  0.00     0.077 A 
HETATM    6  C7  UNL     1      29.372   7.671  47.736  1.00  0.00     0.104 A 
HETATM    7  O3  UNL     1      25.781   6.924  48.055  1.00  0.00    -0.289 OA
HETATM    8  C9  UNL     1      24.991   6.681  49.194  1.00  0.00     0.201 A 
HETATM    9  N1  UNL     1      24.068   7.516  49.669  1.00  0.00    -0.215 NA
HETATM   10  C10 UNL     1      23.320   7.299  50.746  1.00  0.00     0.237 A 
HETATM   11  N2  UNL     1      23.453   6.159  51.466  1.00  0.00    -0.227 NA
HETATM   12  C11 UNL     1      24.374   5.240  51.056  1.00  0.00     0.139 A 
HETATM   13  C19 UNL     1      25.118   5.527  49.931  1.00  0.00     0.123 A 
HETATM   14  N4  UNL     1      25.991   4.417  49.750  1.00  0.00    -0.379 N 
HETATM   15  C20 UNL     1      27.159   4.290  48.913  1.00  0.00     0.161 C 
HETATM   16  H16 UNL     1      25.774   3.535  50.309  1.00  0.00     0.160 HD
ENDROOT
BRANCH  12  17
HETATM   17  N3  UNL     1      24.380   4.135  51.889  1.00  0.00    -0.251 NA
HETATM   18  H10 UNL     1      23.455   4.475  52.335  1.00  0.00     0.134 HD
BRANCH  17  19
HETATM   19  C12 UNL     1      24.198   3.102  52.797  1.00  0.00     0.071 C 
BRANCH  19  20
HETATM   20  C13 UNL     1      25.124   2.134  52.884  1.00  0.00    -0.042 A 
HETATM   21  C14 UNL     1      26.468   2.413  53.327  1.00  0.00     0.035 A 
HETATM   22  C15 UNL     1      27.490   1.576  53.404  1.00  0.00     0.072 A 
HETATM   23 CL1  UNL     1      29.064   2.077  53.961  1.00  0.00    -0.081 Cl
HETATM   24  C16 UNL     1      27.228   0.195  53.022  1.00  0.00     0.134 A 
HETATM   25  F1  UNL     1      28.183  -0.762  53.052  1.00  0.00    -0.205 F 
HETATM   26  C17 UNL     1      26.018  -0.110  52.638  1.00  0.00     0.022 A 
HETATM   27  C18 UNL     1      24.790   0.740  52.517  1.00  0.00     0.070 A 
ENDBRANCH  19  20
ENDBRANCH  17  19
ENDBRANCH  12  17
BRANCH   6  28
HETATM   28  O2  UNL     1      30.129   8.766  47.351  1.00  0.00    -0.353 OA
HETATM   29  C8  UNL     1      29.512  10.039  47.150  1.00  0.00     0.210 C 
ENDBRANCH   6  28
BRANCH   1  30
HETATM   30  O1  UNL     1      31.365   6.498  48.108  1.00  0.00    -0.353 OA
HETATM   31  C1  UNL     1      32.125   6.412  49.286  1.00  0.00     0.210 C 
ENDBRANCH   1  30
TORSDOF 5
ENDMDL
MODEL 5
REMARK VINA RESULT:      -8.1      3.191      3.844
REMARK  5 active torsions:
REMARK  status: ('A' for Active; 'I' for Inactive)
REMARK    1  A    between atoms: O1_2  and  C2_3 
REMARK    2  A    between atoms: C7_8  and  O2_9 
REMARK    3  A    between atoms: C11_16  and  N3_17 
REMARK    4  A    between atoms: N3_17  and  C12_18 
REMARK    5  A    between atoms: C12_18  and  C13_19 
ROOT
HETATM    1  C2  UNL     1      28.831   5.960  48.279  1.00  0.00     0.102 A 
HETATM    2  C3  UNL     1      28.191   4.805  48.583  1.00  0.00     0.051 A 
HETATM    3  C4  UNL     1      26.838   4.692  48.932  1.00  0.00    -0.004 A 
HETATM    4  C5  UNL     1      26.082   5.875  48.969  1.00  0.00     0.088 A 
HETATM    5  C6  UNL     1      26.696   7.100  48.662  1.00  0.00     0.077 A 
HETATM    6  C7  UNL     1      28.032   7.099  48.333  1.00  0.00     0.104 A 
HETATM    7  O3  UNL     1      24.731   5.800  49.320  1.00  0.00    -0.289 OA
HETATM    8  C9  UNL     1      24.295   5.220  50.525  1.00  0.00     0.201 A 
HETATM    9  N1  UNL     1      23.464   5.801  51.389  1.00  0.00    -0.215 NA
HETATM   10  C10 UNL     1      23.050   5.264  52.532  1.00  0.00     0.237 A 
HETATM   11  N2  UNL     1      23.465   4.032  52.913  1.00  0.00    -0.227 NA
HETATM   12  C11 UNL     1      24.320   3.357  52.091  1.00  0.00     0.139 A 
HETATM   13  C19 UNL     1      24.711   3.970  50.919  1.00  0.00     0.123 A 
HETATM   14  N4  UNL     1      25.596   3.056  50.280  1.00  0.00    -0.379 N 
HETATM   15  C20 UNL     1      26.506   3.269  49.181  1.00  0.00     0.161 C 
HETATM   16  H16 UNL     1      25.610   2.057  50.653  1.00  0.00     0.160 HD
ENDROOT
BRANCH  12  17
HETATM   17  N3  UNL     1      24.640   2.117  52.616  1.00  0.00    -0.251 NA
HETATM   18  H10 UNL     1      23.693   2.102  53.140  1.00  0.00     0.134 HD
BRANCH  17  19
HETATM   19  C12 UNL     1      24.766   0.882  53.233  1.00  0.00     0.071 C 
BRANCH  19  20
HETATM   20  C13 UNL     1      23.664   0.151  53.469  1.00  0.00    -0.042 A 
HETATM   21  C14 UNL     1      22.448   0.359  52.724  1.00  0.00     0.035 A 
HETATM   22  C15 UNL     1      21.280  -0.242  52.889  1.00  0.00     0.072 A 
HETATM   23 CL1  UNL     1      19.894   0.131  51.898  1.00  0.00    -0.081 Cl
HETATM   24  C16 UNL     1      21.213  -1.257  53.931  1.00  0.00     0.134 A 
HETATM   25  F1  UNL     1      20.081  -1.945  54.205  1.00  0.00    -0.205 F 
HETATM   26  C17 UNL     1      22.298  -1.497  54.614  1.00  0.00     0.022 A 
HETATM   27  C18 UNL     1      23.666  -0.894  54.517  1.00  0.00     0.070 A 
ENDBRANCH  19  20
ENDBRANCH  17  19
ENDBRANCH  12  17
BRANCH   6  28
HETATM   28  O2  UNL     1      28.563   8.346  48.044  1.00  0.00    -0.353 OA
HETATM   29  C8  UNL     1      27.817   9.533  48.318  1.00  0.00     0.210 C 
ENDBRANCH   6  28
BRANCH   1  30
HETATM   30  O1  UNL     1      30.144   6.170  47.931  1.00  0.00    -0.353 OA
HETATM   31  C1  UNL     1      31.176   6.140  48.883  1.00  0.00     0.210 C 
ENDBRANCH   1  30
TORSDOF 5
ENDMDL
MODEL 6
REMARK VINA RESULT:      -8.0      2.457      2.975
REMARK  5 active torsions:
REMARK  status: ('A' for Active; 'I' for Inactive)
REMARK    1  A    between atoms: O1_2  and  C2_3 
REMARK    2  A    between atoms: C7_8  and  O2_9 
REMARK    3  A    between atoms: C11_16  and  N3_17 
REMARK    4  A    between atoms: N3_17  and  C12_18 
REMARK    5  A    between atoms: C12_18  and  C13_19 
ROOT
HETATM    1  C2  UNL     1      28.574   8.762  48.157  1.00  0.00     0.102 A 
HETATM    2  C3  UNL     1      28.601   7.417  48.324  1.00  0.00     0.051 A 
HETATM    3  C4  UNL     1      27.481   6.576  48.332  1.00  0.00    -0.004 A 
HETATM    4  C5  UNL     1      26.224   7.176  48.152  1.00  0.00     0.088 A 
HETATM    5  C6  UNL     1      26.139   8.566  47.974  1.00  0.00     0.077 A 
HETATM    6  C7  UNL     1      27.302   9.300  47.983  1.00  0.00     0.104 A 
HETATM    7  O3  UNL     1      25.083   6.366  48.161  1.00  0.00    -0.289 OA
HETATM    8  C9  UNL     1      24.771   5.516  49.237  1.00  0.00     0.201 A 
HETATM    9  N1  UNL     1      23.591   5.477  49.855  1.00  0.00    -0.215 NA
HETATM   10  C10 UNL     1      23.287   4.681  50.875  1.00  0.00     0.237 A 
HETATM   11  N2  UNL     1      24.199   3.815  51.378  1.00  0.00    -0.227 NA
HETATM   12  C11 UNL     1      25.439   3.782  50.809  1.00  0.00     0.139 A 
HETATM   13  C19 UNL     1      25.690   4.634  49.753  1.00  0.00     0.123 A 
HETATM   14  N4  UNL     1      27.042   4.394  49.375  1.00  0.00    -0.379 N 
HETATM   15  C20 UNL     1      27.914   5.172  48.529  1.00  0.00     0.161 C 
HETATM   16  H16 UNL     1      27.505   3.517  49.767  1.00  0.00     0.160 HD
ENDROOT
BRANCH  12  17
HETATM   17  N3  UNL     1      26.247   2.844  51.428  1.00  0.00    -0.251 NA
HETATM   18  H10 UNL     1      25.750   2.059  50.872  1.00  0.00     0.134 HD
BRANCH  17  19
HETATM   19  C12 UNL     1      26.954   1.760  51.925  1.00  0.00     0.071 C 
BRANCH  19  20
HETATM   20  C13 UNL     1      26.377   0.964  52.841  1.00  0.00    -0.042 A 
HETATM   21  C14 UNL     1      25.045   0.444  52.655  1.00  0.00     0.035 A 
HETATM   22  C15 UNL     1      24.336  -0.297  53.493  1.00  0.00     0.072 A 
HETATM   23 CL1  UNL     1      22.725  -0.845  53.115  1.00  0.00    -0.081 Cl
HETATM   24  C16 UNL     1      24.982  -0.656  54.747  1.00  0.00     0.134 A 
HETATM   25  F1  UNL     1      24.370  -1.406  55.692  1.00  0.00    -0.205 F 
HETATM   26  C17 UNL     1      26.199  -0.229  54.948  1.00  0.00     0.022 A 
HETATM   27  C18 UNL     1      27.097   0.601  54.082  1.00  0.00     0.070 A 
ENDBRANCH  19  20
ENDBRANCH  17  19
ENDBRANCH  12  17
BRANCH   6  28
HETATM   28  O2  UNL     1      27.134  10.664  47.802  1.00  0.00    -0.353 OA
HETATM   29  C8  UNL     1      25.935  11.310  48.235  1.00  0.00     0.210 C 
ENDBRANCH   6  28
BRANCH   1  30
HETATM   30  O1  UNL     1      29.610   9.665  48.137  1.00  0.00    -0.353 OA
HETATM   31  C1  UNL     1      30.920   9.280  47.804  1.00  0.00     0.210 C 
ENDBRANCH   1  30
TORSDOF 5
ENDMDL
MODEL 7
REMARK VINA RESULT:      -7.8      4.762      7.603
REMARK  5 active torsions:
REMARK  status: ('A' for Active; 'I' for Inactive)
REMARK    1  A    between atoms: O1_2  and  C2_3 
REMARK    2  A    between atoms: C7_8  and  O2_9 
REMARK    3  A    between atoms: C11_16  and  N3_17 
REMARK    4  A    between atoms: N3_17  and  C12_18 
REMARK    5  A    between atoms: C12_18  and  C13_19 
ROOT
HETATM    1  C2  UNL     1      25.638   0.113  54.124  1.00  0.00     0.102 A 
HETATM    2  C3  UNL     1      24.635   0.241  53.222  1.00  0.00     0.051 A 
HETATM    3  C4  UNL     1      24.530   1.253  52.259  1.00  0.00    -0.004 A 
HETATM    4  C5  UNL     1      25.551   2.217  52.225  1.00  0.00     0.088 A 
HETATM    5  C6  UNL     1      26.616   2.131  53.136  1.00  0.00     0.077 A 
HETATM    6  C7  UNL     1      26.621   1.096  54.042  1.00  0.00     0.104 A 
HETATM    7  O3  UNL     1      25.475   3.246  51.281  1.00  0.00    -0.289 OA
HETATM    8  C9  UNL     1      24.361   4.099  51.184  1.00  0.00     0.201 A 
HETATM    9  N1  UNL     1      24.426   5.430  51.164  1.00  0.00    -0.215 NA
HETATM   10  C10 UNL     1      23.380   6.246  51.077  1.00  0.00     0.237 A 
HETATM   11  N2  UNL     1      22.119   5.756  50.999  1.00  0.00    -0.227 NA
HETATM   12  C11 UNL     1      21.952   4.401  51.011  1.00  0.00     0.139 A 
HETATM   13  C19 UNL     1      23.079   3.611  51.103  1.00  0.00     0.123 A 
HETATM   14  N4  UNL     1      22.610   2.266  51.107  1.00  0.00    -0.379 N 
HETATM   15  C20 UNL     1      23.303   1.050  51.453  1.00  0.00     0.161 C 
HETATM   16  H16 UNL     1      21.595   2.108  50.819  1.00  0.00     0.160 HD
ENDROOT
BRANCH  12  17
HETATM   17  N3  UNL     1      20.613   4.064  50.916  1.00  0.00    -0.251 NA
HETATM   18  H10 UNL     1      20.754   3.317  51.687  1.00  0.00     0.134 HD
BRANCH  17  19
HETATM   19  C12 UNL     1      19.313   3.587  50.981  1.00  0.00     0.071 C 
BRANCH  19  20
HETATM   20  C13 UNL     1      19.090   2.354  51.466  1.00  0.00    -0.042 A 
HETATM   21  C14 UNL     1      19.891   1.807  52.533  1.00  0.00     0.035 A 
HETATM   22  C15 UNL     1      19.822   0.596  53.063  1.00  0.00     0.072 A 
HETATM   23 CL1  UNL     1      20.875   0.085  54.355  1.00  0.00    -0.081 Cl
HETATM   24  C16 UNL     1      18.797  -0.290  52.528  1.00  0.00     0.134 A 
HETATM   25  F1  UNL     1      18.620  -1.553  52.979  1.00  0.00    -0.205 F 
HETATM   26  C17 UNL     1      18.031   0.173  51.578  1.00  0.00     0.022 A 
HETATM   27  C18 UNL     1      18.009   1.512  50.907  1.00  0.00     0.070 A 
ENDBRANCH  19  20
ENDBRANCH  17  19
ENDBRANCH  12  17
BRANCH   6  28
HETATM   28  O2  UNL     1      27.704   1.081  54.907  1.00  0.00    -0.353 OA
HETATM   29  C8  UNL     1      28.922   0.435  54.532  1.00  0.00     0.210 C 
ENDBRANCH   6  28
BRANCH   1  30
HETATM   30  O1  UNL     1      25.825  -0.836  55.100  1.00  0.00    -0.353 OA
HETATM   31  C1  UNL     1      24.799  -1.195  55.989  1.00  0.00     0.210 C 
ENDBRANCH   1  30
TORSDOF 5
ENDMDL
MODEL 8
REMARK VINA RESULT:      -7.8      3.874      7.599
REMARK  5 active torsions:
REMARK  status: ('A' for Active; 'I' for Inactive)
REMARK    1  A    between atoms: O1_2  and  C2_3 
REMARK    2  A    between atoms: C7_8  and  O2_9 
REMARK    3  A    between atoms: C11_16  and  N3_17 
REMARK    4  A    between atoms: N3_17  and  C12_18 
REMARK    5  A    between atoms: C12_18  and  C13_19 
ROOT
HETATM    1  C2  UNL     1      24.267   0.630  53.067  1.00  0.00     0.102 A 
HETATM    2  C3  UNL     1      24.354   1.969  52.883  1.00  0.00     0.051 A 
HETATM    3  C4  UNL     1      23.273   2.833  52.663  1.00  0.00    -0.004 A 
HETATM    4  C5  UNL     1      21.990   2.263  52.632  1.00  0.00     0.088 A 
HETATM    5  C6  UNL     1      21.842   0.879  52.818  1.00  0.00     0.077 A 
HETATM    6  C7  UNL     1      22.971   0.121  53.026  1.00  0.00     0.104 A 
HETATM    7  O3  UNL     1      20.888   3.095  52.408  1.00  0.00    -0.289 OA
HETATM    8  C9  UNL     1      20.789   3.927  51.278  1.00  0.00     0.201 A 
HETATM    9  N1  UNL     1      19.736   3.975  50.463  1.00  0.00    -0.215 NA
HETATM   10  C10 UNL     1      19.633   4.755  49.391  1.00  0.00     0.237 A 
HETATM   11  N2  UNL     1      20.640   5.590  49.039  1.00  0.00    -0.227 NA
HETATM   12  C11 UNL     1      21.762   5.611  49.815  1.00  0.00     0.139 A 
HETATM   13  C19 UNL     1      21.805   4.778  50.914  1.00  0.00     0.123 A 
HETATM   14  N4  UNL     1      23.075   4.999  51.518  1.00  0.00    -0.379 N 
HETATM   15  C20 UNL     1      23.767   4.223  52.518  1.00  0.00     0.161 C 
HETATM   16  H16 UNL     1      23.620   5.858  51.198  1.00  0.00     0.160 HD
ENDROOT
BRANCH  12  17
HETATM   17  N3  UNL     1      22.687   6.518  49.329  1.00  0.00    -0.251 NA
HETATM   18  H10 UNL     1      23.487   5.854  49.631  1.00  0.00     0.134 HD
BRANCH  17  19
HETATM   19  C12 UNL     1      23.762   7.281  48.900  1.00  0.00     0.071 C 
BRANCH  19  20
HETATM   20  C13 UNL     1      24.958   6.693  48.729  1.00  0.00    -0.042 A 
HETATM   21  C14 UNL     1      25.199   5.338  49.158  1.00  0.00     0.035 A 
HETATM   22  C15 UNL     1      26.334   4.659  49.108  1.00  0.00     0.072 A 
HETATM   23 CL1  UNL     1      26.462   3.016  49.678  1.00  0.00    -0.081 Cl
HETATM   24  C16 UNL     1      27.478   5.347  48.524  1.00  0.00     0.134 A 
HETATM   25  F1  UNL     1      28.696   4.769  48.414  1.00  0.00    -0.205 F 
HETATM   26  C17 UNL     1      27.298   6.567  48.098  1.00  0.00     0.022 A 
HETATM   27  C18 UNL     1      26.074   7.430  48.095  1.00  0.00     0.070 A 
ENDBRANCH  19  20
ENDBRANCH  17  19
ENDBRANCH  12  17
BRANCH   6  28
HETATM   28  O2  UNL     1      22.741  -1.234  53.201  1.00  0.00    -0.353 OA
HETATM   29  C8  UNL     1      21.618  -1.687  53.959  1.00  0.00     0.210 C 
ENDBRANCH   6  28
BRANCH   1  30
HETATM   30  O1  UNL     1      25.262  -0.293  53.285  1.00  0.00    -0.353 OA
HETATM   31  C1  UNL     1      26.613   0.081  53.366  1.00  0.00     0.210 C 
ENDBRANCH   1  30
TORSDOF 5
ENDMDL
MODEL 9
REMARK VINA RESULT:      -7.7      3.183      5.077
REMARK  5 active torsions:
REMARK  status: ('A' for Active; 'I' for Inactive)
REMARK    1  A    between atoms: O1_2  and  C2_3 
REMARK    2  A    between atoms: C7_8  and  O2_9 
REMARK    3  A    between atoms: C11_16  and  N3_17 
REMARK    4  A    between atoms: N3_17  and  C12_18 
REMARK    5  A    between atoms: C12_18  and  C13_19 
ROOT
HETATM    1  C2  UNL     1      21.442   8.608  49.131  1.00  0.00     0.102 A 
HETATM    2  C3  UNL     1      21.953   7.742  50.038  1.00  0.00     0.051 A 
HETATM    3  C4  UNL     1      23.313   7.450  50.209  1.00  0.00    -0.004 A 
HETATM    4  C5  UNL     1      24.224   8.112  49.369  1.00  0.00     0.088 A 
HETATM    5  C6  UNL     1      23.748   9.022  48.412  1.00  0.00     0.077 A 
HETATM    6  C7  UNL     1      22.391   9.235  48.327  1.00  0.00     0.104 A 
HETATM    7  O3  UNL     1      25.588   7.840  49.508  1.00  0.00    -0.289 OA
HETATM    8  C9  UNL     1      26.110   6.538  49.418  1.00  0.00     0.201 A 
HETATM    9  N1  UNL     1      27.132   6.182  48.639  1.00  0.00    -0.215 NA
HETATM   10  C10 UNL     1      27.631   4.954  48.543  1.00  0.00     0.237 A 
HETATM   11  N2  UNL     1      27.108   3.933  49.264  1.00  0.00    -0.227 NA
HETATM   12  C11 UNL     1      26.057   4.200  50.092  1.00  0.00     0.139 A 
HETATM   13  C19 UNL     1      25.587   5.495  50.146  1.00  0.00     0.123 A 
HETATM   14  N4  UNL     1      24.500   5.476  51.065  1.00  0.00    -0.379 N 
HETATM   15  C20 UNL     1      23.478   6.465  51.304  1.00  0.00     0.161 C 
HETATM   16  H16 UNL     1      24.402   4.609  51.678  1.00  0.00     0.160 HD
ENDROOT
BRANCH  12  17
HETATM   17  N3  UNL     1      25.647   3.059  50.761  1.00  0.00    -0.251 NA
HETATM   18  H10 UNL     1      26.653   2.927  51.137  1.00  0.00     0.134 HD
BRANCH  17  19
HETATM   19  C12 UNL     1      25.440   1.907  51.504  1.00  0.00     0.071 C 
BRANCH  19  20
HETATM   20  C13 UNL     1      26.481   1.330  52.126  1.00  0.00    -0.042 A 
HETATM   21  C14 UNL     1      26.622  -0.103  52.187  1.00  0.00     0.035 A 
HETATM   22  C15 UNL     1      27.557  -0.803  52.811  1.00  0.00     0.072 A 
HETATM   23 CL1  UNL     1      27.583  -2.546  52.792  1.00  0.00    -0.081 Cl
HETATM   24  C16 UNL     1      28.588  -0.039  53.500  1.00  0.00     0.134 A 
HETATM   25  F1  UNL     1      29.599  -0.629  54.178  1.00  0.00    -0.205 F 
HETATM   26  C17 UNL     1      28.515   1.262  53.449  1.00  0.00     0.022 A 
HETATM   27  C18 UNL     1      27.520   2.159  52.778  1.00  0.00     0.070 A 
ENDBRANCH  19  20
ENDBRANCH  17  19
ENDBRANCH  12  17
BRANCH   6  28
HETATM   28  O2  UNL     1      22.001  10.145  47.357  1.00  0.00    -0.353 OA
HETATM   29  C8  UNL     1      22.087   9.809  45.971  1.00  0.00     0.210 C 
ENDBRANCH   6  28
BRANCH   1  30
HETATM   30  O1  UNL     1      20.134   8.956  48.888  1.00  0.00    -0.353 OA
HETATM   31  C1  UNL     1      19.273   9.362  49.921  1.00  0.00     0.210 C 
ENDBRANCH   1  30
TORSDOF 5
ENDMDL
