MODEL 1
REMARK VINA RESULT:      -7.0      0.000      0.000
REMARK  1 active torsions:
REMARK  status: ('A' for Active; 'I' for Inactive)
REMARK    1  A    between atoms: C3_3  and  C4_4 
REMARK       I    between atoms: C4_4  and  N1_6 
ROOT
HETATM    1  C1  UNL     1      31.704   0.227  46.684  1.00  0.00     0.112 C 
HETATM    2  C2  UNL     1      32.571   1.406  46.902  1.00  0.00    -0.101 C 
HETATM    3  C3  UNL     1      33.270   2.355  47.099  1.00  0.00    -0.006 C 
ENDROOT
BRANCH   3   4
HETATM    4  C4  UNL     1      34.094   3.499  47.355  1.00  0.00     0.298 C 
HETATM    5  O1  UNL     1      35.331   3.383  47.124  1.00  0.00    -0.258 OA
HETATM    6  N1  UNL     1      33.631   4.752  47.847  1.00  0.00    -0.336 N 
HETATM    7  C5  UNL     1      34.806   5.586  47.946  1.00  0.00     0.132 C 
HETATM    8  C9  UNL     1      32.168   4.773  48.071  1.00  0.00     0.174 C 
HETATM    9  C6  UNL     1      34.528   6.968  48.569  1.00  0.00     0.060 C 
HETATM   10  C7  UNL     1      33.063   7.077  48.417  1.00  0.00    -0.034 C 
HETATM   11  C8  UNL     1      31.930   6.250  48.256  1.00  0.00     0.015 C 
HETATM   12  C16 UNL     1      32.306   8.370  48.312  1.00  0.00    -0.031 C 
HETATM   13  S1  UNL     1      30.388   7.418  48.192  1.00  0.00    -0.064 SA
HETATM   14  N2  UNL     1      29.952   8.470  46.972  1.00  0.00    -0.223 NA
HETATM   15  C17 UNL     1      31.237   8.557  49.422  1.00  0.00     0.132 C 
HETATM   16  C10 UNL     1      31.018   9.438  46.579  1.00  0.00     0.071 C 
HETATM   17  C11 UNL     1      31.003  10.458  45.666  1.00  0.00     0.032 C 
HETATM   18  C15 UNL     1      32.356   9.348  47.352  1.00  0.00    -0.018 C 
HETATM   19  C12 UNL     1      32.215  11.236  45.490  1.00  0.00    -0.001 C 
HETATM   20  C13 UNL     1      33.378  11.110  46.087  1.00  0.00    -0.022 C 
HETATM   21  C14 UNL     1      33.639  10.033  47.134  1.00  0.00     0.068 C 
ENDBRANCH   3   4
TORSDOF 1
ENDMDL
MODEL 2
REMARK VINA RESULT:      -6.9     11.072     13.732
REMARK  1 active torsions:
REMARK  status: ('A' for Active; 'I' for Inactive)
REMARK    1  A    between atoms: C3_3  and  C4_4 
REMARK       I    between atoms: C4_4  and  N1_6 
ROOT
HETATM    1  C1  UNL     1      20.031   9.016  50.064  1.00  0.00     0.112 C 
HETATM    2  C2  UNL     1      21.093   8.029  50.359  1.00  0.00    -0.101 C 
HETATM    3  C3  UNL     1      21.942   7.219  50.582  1.00  0.00    -0.006 C 
ENDROOT
BRANCH   3   4
HETATM    4  C4  UNL     1      22.944   6.229  50.847  1.00  0.00     0.298 C 
HETATM    5  O1  UNL     1      24.071   6.640  51.243  1.00  0.00    -0.258 OA
HETATM    6  N1  UNL     1      22.771   4.824  50.699  1.00  0.00    -0.336 N 
HETATM    7  C5  UNL     1      24.036   4.237  51.075  1.00  0.00     0.132 C 
HETATM    8  C9  UNL     1      21.411   4.461  50.239  1.00  0.00     0.174 C 
HETATM    9  C6  UNL     1      24.087   2.709  50.878  1.00  0.00     0.060 C 
HETATM   10  C7  UNL     1      22.652   2.369  50.796  1.00  0.00    -0.034 C 
HETATM   11  C8  UNL     1      21.415   2.974  50.487  1.00  0.00     0.015 C 
HETATM   12  C16 UNL     1      22.065   1.037  51.165  1.00  0.00    -0.031 C 
HETATM   13  S1  UNL     1      20.063   1.598  50.641  1.00  0.00    -0.064 SA
HETATM   14  N2  UNL     1      19.503   0.866  52.033  1.00  0.00    -0.223 NA
HETATM   15  C17 UNL     1      21.308   0.345  50.000  1.00  0.00     0.132 C 
HETATM   16  C10 UNL     1      20.569   0.269  52.890  1.00  0.00     0.071 C 
HETATM   17  C11 UNL     1      20.481  -0.437  54.060  1.00  0.00     0.032 C 
HETATM   18  C15 UNL     1      22.023   0.394  52.377  1.00  0.00    -0.018 C 
HETATM   19  C12 UNL     1      21.712  -0.887  54.681  1.00  0.00    -0.001 C 
HETATM   20  C13 UNL     1      22.954  -0.713  54.290  1.00  0.00    -0.022 C 
HETATM   21  C14 UNL     1      23.302   0.058  53.021  1.00  0.00     0.068 C 
ENDBRANCH   3   4
TORSDOF 1
ENDMDL
MODEL 3
REMARK VINA RESULT:      -6.7      5.818      8.549
REMARK  1 active torsions:
REMARK  status: ('A' for Active; 'I' for Inactive)
REMARK    1  A    between atoms: C3_3  and  C4_4 
REMARK       I    between atoms: C4_4  and  N1_6 
ROOT
HETATM    1  C1  UNL     1      30.560  12.475  49.330  1.00  0.00     0.112 C 
HETATM    2  C2  UNL     1      30.405  11.010  49.193  1.00  0.00    -0.101 C 
HETATM    3  C3  UNL     1      30.277   9.829  49.060  1.00  0.00    -0.006 C 
ENDROOT
BRANCH   3   4
HETATM    4  C4  UNL     1      30.105   8.417  48.886  1.00  0.00     0.298 C 
HETATM    5  O1  UNL     1      31.144   7.699  48.925  1.00  0.00    -0.258 OA
HETATM    6  N1  UNL     1      28.860   7.761  48.672  1.00  0.00    -0.336 N 
HETATM    7  C5  UNL     1      29.179   6.358  48.553  1.00  0.00     0.132 C 
HETATM    8  C9  UNL     1      27.715   8.699  48.654  1.00  0.00     0.174 C 
HETATM    9  C6  UNL     1      27.961   5.478  48.208  1.00  0.00     0.060 C 
HETATM   10  C7  UNL     1      26.837   6.365  48.572  1.00  0.00    -0.034 C 
HETATM   11  C8  UNL     1      26.558   7.738  48.747  1.00  0.00     0.015 C 
HETATM   12  C16 UNL     1      25.473   5.893  48.987  1.00  0.00    -0.031 C 
HETATM   13  S1  UNL     1      24.683   7.875  49.208  1.00  0.00    -0.064 SA
HETATM   14  N2  UNL     1      23.944   7.412  50.631  1.00  0.00    -0.223 NA
HETATM   15  C17 UNL     1      24.329   6.417  48.077  1.00  0.00     0.132 C 
HETATM   16  C10 UNL     1      24.198   5.996  51.029  1.00  0.00     0.071 C 
HETATM   17  C11 UNL     1      23.729   5.271  52.090  1.00  0.00     0.032 C 
HETATM   18  C15 UNL     1      25.086   5.157  50.079  1.00  0.00    -0.018 C 
HETATM   19  C12 UNL     1      24.168   3.894  52.226  1.00  0.00    -0.001 C 
HETATM   20  C13 UNL     1      24.985   3.203  51.465  1.00  0.00    -0.022 C 
HETATM   21  C14 UNL     1      25.647   3.807  50.231  1.00  0.00     0.068 C 
ENDBRANCH   3   4
TORSDOF 1
ENDMDL
MODEL 4
REMARK VINA RESULT:      -6.7      6.788      9.557
REMARK  1 active torsions:
REMARK  status: ('A' for Active; 'I' for Inactive)
REMARK    1  A    between atoms: C3_3  and  C4_4 
REMARK       I    between atoms: C4_4  and  N1_6 
ROOT
HETATM    1  C1  UNL     1      26.347  11.949  48.202  1.00  0.00     0.112 C 
HETATM    2  C2  UNL     1      26.954  10.602  48.273  1.00  0.00    -0.101 C 
HETATM    3  C3  UNL     1      27.425   9.505  48.335  1.00  0.00    -0.006 C 
ENDROOT
BRANCH   3   4
HETATM    4  C4  UNL     1      27.975   8.186  48.428  1.00  0.00     0.298 C 
HETATM    5  O1  UNL     1      29.235   8.082  48.405  1.00  0.00    -0.258 OA
HETATM    6  N1  UNL     1      27.218   6.986  48.545  1.00  0.00    -0.336 N 
HETATM    7  C5  UNL     1      28.191   5.920  48.605  1.00  0.00     0.132 C 
HETATM    8  C9  UNL     1      25.758   7.231  48.571  1.00  0.00     0.174 C 
HETATM    9  C6  UNL     1      27.560   4.514  48.625  1.00  0.00     0.060 C 
HETATM   10  C7  UNL     1      26.170   4.813  49.027  1.00  0.00    -0.034 C 
HETATM   11  C8  UNL     1      25.251   5.884  49.019  1.00  0.00     0.015 C 
HETATM   12  C16 UNL     1      25.261   3.857  49.744  1.00  0.00    -0.031 C 
HETATM   13  S1  UNL     1      23.598   5.212  49.768  1.00  0.00    -0.064 SA
HETATM   14  N2  UNL     1      23.291   4.793  51.355  1.00  0.00    -0.223 NA
HETATM   15  C17 UNL     1      23.950   3.547  48.972  1.00  0.00     0.132 C 
HETATM   16  C10 UNL     1      24.250   3.804  51.930  1.00  0.00     0.071 C 
HETATM   17  C11 UNL     1      24.283   3.207  53.162  1.00  0.00     0.032 C 
HETATM   18  C15 UNL     1      25.372   3.299  50.992  1.00  0.00    -0.018 C 
HETATM   19  C12 UNL     1      25.362   2.280  53.444  1.00  0.00    -0.001 C 
HETATM   20  C13 UNL     1      26.363   1.910  52.678  1.00  0.00    -0.022 C 
HETATM   21  C14 UNL     1      26.545   2.455  51.266  1.00  0.00     0.068 C 
ENDBRANCH   3   4
TORSDOF 1
ENDMDL
MODEL 5
REMARK VINA RESULT:      -6.7     11.088     13.198
REMARK  1 active torsions:
REMARK  status: ('A' for Active; 'I' for Inactive)
REMARK    1  A    between atoms: C3_3  and  C4_4 
REMARK       I    between atoms: C4_4  and  N1_6 
ROOT
HETATM    1  C1  UNL     1      18.452   4.053  46.524  1.00  0.00     0.112 C 
HETATM    2  C2  UNL     1      18.764   3.217  47.704  1.00  0.00    -0.101 C 
HETATM    3  C3  UNL     1      18.999   2.549  48.667  1.00  0.00    -0.006 C 
ENDROOT
BRANCH   3   4
HETATM    4  C4  UNL     1      19.273   1.767  49.836  1.00  0.00     0.298 C 
HETATM    5  O1  UNL     1      18.523   0.774  50.055  1.00  0.00    -0.258 OA
HETATM    6  N1  UNL     1      20.321   2.019  50.766  1.00  0.00    -0.336 N 
HETATM    7  C5  UNL     1      20.206   0.984  51.766  1.00  0.00     0.132 C 
HETATM    8  C9  UNL     1      21.137   3.199  50.402  1.00  0.00     0.174 C 
HETATM    9  C6  UNL     1      21.197   1.146  52.935  1.00  0.00     0.060 C 
HETATM   10  C7  UNL     1      22.198   2.064  52.354  1.00  0.00    -0.034 C 
HETATM   11  C8  UNL     1      22.313   3.028  51.330  1.00  0.00     0.015 C 
HETATM   12  C16 UNL     1      23.638   2.140  52.776  1.00  0.00    -0.031 C 
HETATM   13  S1  UNL     1      24.114   3.730  51.418  1.00  0.00    -0.064 SA
HETATM   14  N2  UNL     1      25.535   2.950  51.018  1.00  0.00    -0.223 NA
HETATM   15  C17 UNL     1      24.064   3.543  53.287  1.00  0.00     0.132 C 
HETATM   16  C10 UNL     1      25.740   1.643  51.709  1.00  0.00     0.071 C 
HETATM   17  C11 UNL     1      26.789   0.765  51.663  1.00  0.00     0.032 C 
HETATM   18  C15 UNL     1      24.633   1.199  52.696  1.00  0.00    -0.018 C 
HETATM   19  C12 UNL     1      26.697  -0.452  52.447  1.00  0.00    -0.001 C 
HETATM   20  C13 UNL     1      25.724  -0.870  53.224  1.00  0.00    -0.022 C 
HETATM   21  C14 UNL     1      24.443  -0.066  53.420  1.00  0.00     0.068 C 
ENDBRANCH   3   4
TORSDOF 1
ENDMDL
MODEL 6
REMARK VINA RESULT:      -6.6     14.689     16.433
REMARK  1 active torsions:
REMARK  status: ('A' for Active; 'I' for Inactive)
REMARK    1  A    between atoms: C3_3  and  C4_4 
REMARK       I    between atoms: C4_4  and  N1_6 
ROOT
HETATM    1  C1  UNL     1      25.110   0.362  52.948  1.00  0.00     0.112 C 
HETATM    2  C2  UNL     1      23.736  -0.103  53.239  1.00  0.00    -0.101 C 
HETATM    3  C3  UNL     1      22.618  -0.460  53.464  1.00  0.00    -0.006 C 
ENDROOT
BRANCH   3   4
HETATM    4  C4  UNL     1      21.272  -0.866  53.741  1.00  0.00     0.298 C 
HETATM    5  O1  UNL     1      21.067  -1.489  54.821  1.00  0.00    -0.258 OA
HETATM    6  N1  UNL     1      20.151  -0.625  52.897  1.00  0.00    -0.336 N 
HETATM    7  C5  UNL     1      19.022  -1.211  53.579  1.00  0.00     0.132 C 
HETATM    8  C9  UNL     1      20.511   0.118  51.667  1.00  0.00     0.174 C 
HETATM    9  C6  UNL     1      17.713  -1.148  52.767  1.00  0.00     0.060 C 
HETATM   10  C7  UNL     1      18.028  -0.101  51.772  1.00  0.00    -0.034 C 
HETATM   11  C8  UNL     1      19.145   0.506  51.160  1.00  0.00     0.015 C 
HETATM   12  C16 UNL     1      17.010   0.775  51.100  1.00  0.00    -0.031 C 
HETATM   13  S1  UNL     1      18.459   1.805  49.900  1.00  0.00    -0.064 SA
HETATM   14  N2  UNL     1      17.697   3.251  50.237  1.00  0.00    -0.223 NA
HETATM   15  C17 UNL     1      17.012   0.658  49.552  1.00  0.00     0.132 C 
HETATM   16  C10 UNL     1      16.518   3.133  51.144  1.00  0.00     0.071 C 
HETATM   17  C11 UNL     1      15.640   4.083  51.593  1.00  0.00     0.032 C 
HETATM   18  C15 UNL     1      16.158   1.709  51.633  1.00  0.00    -0.018 C 
HETATM   19  C12 UNL     1      14.581   3.664  52.492  1.00  0.00    -0.001 C 
HETATM   20  C13 UNL     1      14.321   2.470  52.973  1.00  0.00    -0.022 C 
HETATM   21  C14 UNL     1      15.173   1.255  52.625  1.00  0.00     0.068 C 
ENDBRANCH   3   4
TORSDOF 1
ENDMDL
MODEL 7
REMARK VINA RESULT:      -6.4     16.782     18.595
REMARK  1 active torsions:
REMARK  status: ('A' for Active; 'I' for Inactive)
REMARK    1  A    between atoms: C3_3  and  C4_4 
REMARK       I    between atoms: C4_4  and  N1_6 
ROOT
HETATM    1  C1  UNL     1      10.336   1.488  54.891  1.00  0.00     0.112 C 
HETATM    2  C2  UNL     1      11.500   2.269  54.418  1.00  0.00    -0.101 C 
HETATM    3  C3  UNL     1      12.450   2.882  54.030  1.00  0.00    -0.006 C 
ENDROOT
BRANCH   3   4
HETATM    4  C4  UNL     1      13.604   3.600  53.576  1.00  0.00     0.298 C 
HETATM    5  O1  UNL     1      13.712   4.807  53.937  1.00  0.00    -0.258 OA
HETATM    6  N1  UNL     1      14.635   3.064  52.754  1.00  0.00    -0.336 N 
HETATM    7  C5  UNL     1      15.573   4.145  52.558  1.00  0.00     0.132 C 
HETATM    8  C9  UNL     1      14.406   1.644  52.403  1.00  0.00     0.174 C 
HETATM    9  C6  UNL     1      16.723   3.792  51.594  1.00  0.00     0.060 C 
HETATM   10  C7  UNL     1      16.665   2.316  51.585  1.00  0.00    -0.034 C 
HETATM   11  C8  UNL     1      15.754   1.270  51.842  1.00  0.00     0.015 C 
HETATM   12  C16 UNL     1      17.834   1.415  51.302  1.00  0.00    -0.031 C 
HETATM   13  S1  UNL     1      16.686  -0.388  51.481  1.00  0.00    -0.064 SA
HETATM   14  N2  UNL     1      17.923  -1.078  52.363  1.00  0.00    -0.223 NA
HETATM   15  C17 UNL     1      17.612   0.471  50.090  1.00  0.00     0.132 C 
HETATM   16  C10 UNL     1      19.091  -0.178  52.600  1.00  0.00     0.071 C 
HETATM   17  C11 UNL     1      20.283  -0.412  53.231  1.00  0.00     0.032 C 
HETATM   18  C15 UNL     1      19.005   1.244  51.994  1.00  0.00    -0.018 C 
HETATM   19  C12 UNL     1      21.236   0.678  53.318  1.00  0.00    -0.001 C 
HETATM   20  C13 UNL     1      21.133   1.911  52.876  1.00  0.00    -0.022 C 
HETATM   21  C14 UNL     1      19.888   2.409  52.151  1.00  0.00     0.068 C 
ENDBRANCH   3   4
TORSDOF 1
ENDMDL
MODEL 8
REMARK VINA RESULT:      -6.4      4.418      5.334
REMARK  1 active torsions:
REMARK  status: ('A' for Active; 'I' for Inactive)
REMARK    1  A    between atoms: C3_3  and  C4_4 
REMARK       I    between atoms: C4_4  and  N1_6 
ROOT
HETATM    1  C1  UNL     1      33.863   1.596  39.870  1.00  0.00     0.112 C 
HETATM    2  C2  UNL     1      33.490   2.945  40.348  1.00  0.00    -0.101 C 
HETATM    3  C3  UNL     1      33.184   4.027  40.753  1.00  0.00    -0.006 C 
ENDROOT
BRANCH   3   4
HETATM    4  C4  UNL     1      32.797   5.314  41.251  1.00  0.00     0.298 C 
HETATM    5  O1  UNL     1      32.364   6.152  40.410  1.00  0.00    -0.258 OA
HETATM    6  N1  UNL     1      32.861   5.722  42.613  1.00  0.00    -0.336 N 
HETATM    7  C5  UNL     1      32.376   7.082  42.632  1.00  0.00     0.132 C 
HETATM    8  C9  UNL     1      33.374   4.657  43.505  1.00  0.00     0.174 C 
HETATM    9  C6  UNL     1      32.468   7.748  44.019  1.00  0.00     0.060 C 
HETATM   10  C7  UNL     1      32.610   6.575  44.906  1.00  0.00    -0.034 C 
HETATM   11  C8  UNL     1      33.029   5.228  44.857  1.00  0.00     0.015 C 
HETATM   12  C16 UNL     1      32.188   6.536  46.347  1.00  0.00    -0.031 C 
HETATM   13  S1  UNL     1      32.863   4.522  46.651  1.00  0.00    -0.064 SA
HETATM   14  N2  UNL     1      31.460   4.189  47.493  1.00  0.00    -0.223 NA
HETATM   15  C17 UNL     1      33.347   6.207  47.327  1.00  0.00     0.132 C 
HETATM   16  C10 UNL     1      30.505   5.333  47.582  1.00  0.00     0.071 C 
HETATM   17  C11 UNL     1      29.299   5.439  48.220  1.00  0.00     0.032 C 
HETATM   18  C15 UNL     1      30.941   6.655  46.907  1.00  0.00    -0.018 C 
HETATM   19  C12 UNL     1      28.579   6.695  48.119  1.00  0.00    -0.001 C 
HETATM   20  C13 UNL     1      28.910   7.793  47.479  1.00  0.00    -0.022 C 
HETATM   21  C14 UNL     1      30.204   7.907  46.682  1.00  0.00     0.068 C 
ENDBRANCH   3   4
TORSDOF 1
ENDMDL
MODEL 9
REMARK VINA RESULT:      -6.3     22.047     23.685
REMARK  1 active torsions:
REMARK  status: ('A' for Active; 'I' for Inactive)
REMARK    1  A    between atoms: C3_3  and  C4_4 
REMARK       I    between atoms: C4_4  and  N1_6 
ROOT
HETATM    1  C1  UNL     1      37.800   3.342  71.688  1.00  0.00     0.112 C 
HETATM    2  C2  UNL     1      39.025   2.924  70.971  1.00  0.00    -0.101 C 
HETATM    3  C3  UNL     1      40.006   2.593  70.374  1.00  0.00    -0.006 C 
ENDROOT
BRANCH   3   4
HETATM    4  C4  UNL     1      41.168   2.188  69.640  1.00  0.00     0.298 C 
HETATM    5  O1  UNL     1      41.189   1.005  69.198  1.00  0.00    -0.258 OA
HETATM    6  N1  UNL     1      42.298   3.012  69.369  1.00  0.00    -0.336 N 
HETATM    7  C5  UNL     1      43.206   2.184  68.611  1.00  0.00     0.132 C 
HETATM    8  C9  UNL     1      42.157   4.376  69.926  1.00  0.00     0.174 C 
HETATM    9  C6  UNL     1      44.554   2.869  68.308  1.00  0.00     0.060 C 
HETATM   10  C7  UNL     1      44.225   4.292  68.533  1.00  0.00    -0.034 C 
HETATM   11  C8  UNL     1      43.290   5.086  69.230  1.00  0.00     0.015 C 
HETATM   12  C16 UNL     1      44.925   5.446  67.876  1.00  0.00    -0.031 C 
HETATM   13  S1  UNL     1      43.763   6.933  68.896  1.00  0.00    -0.064 SA
HETATM   14  N2  UNL     1      43.615   7.784  67.468  1.00  0.00    -0.223 NA
HETATM   15  C17 UNL     1      45.575   6.434  68.882  1.00  0.00     0.132 C 
HETATM   16  C10 UNL     1      44.270   7.140  66.292  1.00  0.00     0.071 C 
HETATM   17  C11 UNL     1      44.391   7.563  64.996  1.00  0.00     0.032 C 
HETATM   18  C15 UNL     1      44.998   5.799  66.552  1.00  0.00    -0.018 C 
HETATM   19  C12 UNL     1      45.084   6.701  64.057  1.00  0.00    -0.001 C 
HETATM   20  C13 UNL     1      45.633   5.525  64.256  1.00  0.00    -0.022 C 
HETATM   21  C14 UNL     1      45.611   4.842  65.619  1.00  0.00     0.068 C 
ENDBRANCH   3   4
TORSDOF 1
ENDMDL
