MODEL 1
REMARK VINA RESULT:      -7.2      0.000      0.000
REMARK  6 active torsions:
REMARK  status: ('A' for Active; 'I' for Inactive)
REMARK    1  A    between atoms: C2_2  and  O1_3 
REMARK    2  A    between atoms: C2_2  and  C4_5 
REMARK    3  A    between atoms: C4_5  and  O2_6 
REMARK    4  A    between atoms: C4_5  and  C6_9 
REMARK    5  A    between atoms: O2_6  and  C5_7 
REMARK    6  A    between atoms: C8_11  and  C9_12 
ROOT
HETATM    1  C6  UNL     1      24.905  -0.312  54.382  1.00  0.00     0.073 A 
HETATM    2  C7  UNL     1      23.732  -0.128  53.678  1.00  0.00     0.062 A 
HETATM    3  C8  UNL     1      22.544  -0.708  54.068  1.00  0.00     0.070 A 
HETATM    4  N1  UNL     1      22.546  -1.481  55.180  1.00  0.00    -0.241 NA
HETATM    5  C15 UNL     1      23.675  -1.671  55.876  1.00  0.00     0.234 A 
HETATM    6  N2  UNL     1      24.820  -1.094  55.475  1.00  0.00    -0.243 NA
ENDROOT
BRANCH   1   7
HETATM    7  C4  UNL     1      26.253   0.191  54.157  1.00  0.00     0.230 C 
BRANCH   7   8
HETATM    8  C2  UNL     1      26.486   0.605  52.755  1.00  0.00     0.071 C 
HETATM    9  C1  UNL     1      26.755   0.484  51.470  1.00  0.00     0.049 C 
BRANCH   8  10
HETATM   10  O1  UNL     1      26.366   1.997  52.580  1.00  0.00    -0.358 OA
HETATM   11  C3  UNL     1      26.662   2.605  51.353  1.00  0.00     0.209 C 
ENDBRANCH   8  10
ENDBRANCH   7   8
BRANCH   7  12
HETATM   12  O2  UNL     1      27.261  -0.613  54.651  1.00  0.00    -0.363 OA
BRANCH  12  13
HETATM   13  C5  UNL     1      28.499  -0.007  54.700  1.00  0.00     0.254 C 
HETATM   14 BR1  UNL     1      29.852  -0.817  53.636  1.00  0.00    -0.068 Br
ENDBRANCH  12  13
ENDBRANCH   7  12
ENDBRANCH   1   7
BRANCH   3  15
HETATM   15  C9  UNL     1      21.347  -0.476  53.284  1.00  0.00    -0.007 A 
HETATM   16  C10 UNL     1      20.059  -0.762  53.626  1.00  0.00     0.017 A 
HETATM   17  C11 UNL     1      18.962  -0.521  52.847  1.00  0.00     0.043 A 
HETATM   18  C12 UNL     1      19.149   0.062  51.596  1.00  0.00     0.116 A 
HETATM   19  F1  UNL     1      18.028   0.273  50.877  1.00  0.00    -0.206 F 
HETATM   20  C13 UNL     1      20.433   0.370  51.205  1.00  0.00     0.043 A 
HETATM   21  C14 UNL     1      21.511   0.109  52.027  1.00  0.00     0.017 A 
ENDBRANCH   3  15
TORSDOF 6
ENDMDL
MODEL 2
REMARK VINA RESULT:      -7.2      1.625      2.412
REMARK  6 active torsions:
REMARK  status: ('A' for Active; 'I' for Inactive)
REMARK    1  A    between atoms: C2_2  and  O1_3 
REMARK    2  A    between atoms: C2_2  and  C4_5 
REMARK    3  A    between atoms: C4_5  and  O2_6 
REMARK    4  A    between atoms: C4_5  and  C6_9 
REMARK    5  A    between atoms: O2_6  and  C5_7 
REMARK    6  A    between atoms: C8_11  and  C9_12 
ROOT
HETATM    1  C6  UNL     1      25.208  -0.348  53.726  1.00  0.00     0.073 A 
HETATM    2  C7  UNL     1      23.961  -0.190  53.157  1.00  0.00     0.062 A 
HETATM    3  C8  UNL     1      22.808  -0.603  53.791  1.00  0.00     0.070 A 
HETATM    4  N1  UNL     1      22.922  -1.182  55.009  1.00  0.00    -0.241 NA
HETATM    5  C15 UNL     1      24.125  -1.345  55.577  1.00  0.00     0.234 A 
HETATM    6  N2  UNL     1      25.234  -0.933  54.938  1.00  0.00    -0.243 NA
ENDROOT
BRANCH   1   7
HETATM    7  C4  UNL     1      26.538   0.003  53.246  1.00  0.00     0.230 C 
BRANCH   7   8
HETATM    8  C2  UNL     1      27.451  -1.161  53.176  1.00  0.00     0.071 C 
HETATM    9  C1  UNL     1      27.930  -2.318  52.768  1.00  0.00     0.049 C 
BRANCH   8  10
HETATM   10  O1  UNL     1      28.522  -1.057  54.083  1.00  0.00    -0.358 OA
HETATM   11  C3  UNL     1      29.849  -0.980  53.638  1.00  0.00     0.209 C 
ENDBRANCH   8  10
ENDBRANCH   7   8
BRANCH   7  12
HETATM   12  O2  UNL     1      27.110   1.093  53.872  1.00  0.00    -0.363 OA
BRANCH  12  13
HETATM   13  C5  UNL     1      27.579   2.062  53.011  1.00  0.00     0.254 C 
HETATM   14 BR1  UNL     1      26.589   2.276  51.400  1.00  0.00    -0.068 Br
ENDBRANCH  12  13
ENDBRANCH   7  12
ENDBRANCH   1   7
BRANCH   3  15
HETATM   15  C9  UNL     1      21.528  -0.408  53.138  1.00  0.00    -0.007 A 
HETATM   16  C10 UNL     1      21.289   0.196  51.940  1.00  0.00     0.017 A 
HETATM   17  C11 UNL     1      20.057   0.355  51.367  1.00  0.00     0.043 A 
HETATM   18  C12 UNL     1      18.941  -0.130  52.044  1.00  0.00     0.116 A 
HETATM   19  F1  UNL     1      17.757   0.059  51.427  1.00  0.00    -0.206 F 
HETATM   20  C13 UNL     1      19.132  -0.748  53.260  1.00  0.00     0.043 A 
HETATM   21  C14 UNL     1      20.395  -0.886  53.799  1.00  0.00     0.017 A 
ENDBRANCH   3  15
TORSDOF 6
ENDMDL
MODEL 3
REMARK VINA RESULT:      -7.0      4.401      7.063
REMARK  6 active torsions:
REMARK  status: ('A' for Active; 'I' for Inactive)
REMARK    1  A    between atoms: C2_2  and  O1_3 
REMARK    2  A    between atoms: C2_2  and  C4_5 
REMARK    3  A    between atoms: C4_5  and  O2_6 
REMARK    4  A    between atoms: C4_5  and  C6_9 
REMARK    5  A    between atoms: O2_6  and  C5_7 
REMARK    6  A    between atoms: C8_11  and  C9_12 
ROOT
HETATM    1  C6  UNL     1      23.191   1.069  52.667  1.00  0.00     0.073 A 
HETATM    2  C7  UNL     1      24.430   0.493  52.859  1.00  0.00     0.062 A 
HETATM    3  C8  UNL     1      25.571   1.247  53.026  1.00  0.00     0.070 A 
HETATM    4  N1  UNL     1      25.455   2.595  52.997  1.00  0.00    -0.241 NA
HETATM    5  C15 UNL     1      24.261   3.173  52.812  1.00  0.00     0.234 A 
HETATM    6  N2  UNL     1      23.162   2.415  52.652  1.00  0.00    -0.243 NA
ENDROOT
BRANCH   1   7
HETATM    7  C4  UNL     1      21.873   0.480  52.468  1.00  0.00     0.230 C 
BRANCH   7   8
HETATM    8  C2  UNL     1      21.392   0.603  51.074  1.00  0.00     0.071 C 
HETATM    9  C1  UNL     1      21.442   0.827  49.776  1.00  0.00     0.049 C 
BRANCH   8  10
HETATM   10  O1  UNL     1      20.018   0.319  50.953  1.00  0.00    -0.358 OA
HETATM   11  C3  UNL     1      19.162   1.155  50.225  1.00  0.00     0.209 C 
ENDBRANCH   8  10
ENDBRANCH   7   8
BRANCH   7  12
HETATM   12  O2  UNL     1      20.923   0.859  53.396  1.00  0.00    -0.363 OA
BRANCH  12  13
HETATM   13  C5  UNL     1      20.953   0.134  54.568  1.00  0.00     0.254 C 
HETATM   14 BR1  UNL     1      21.462  -1.692  54.391  1.00  0.00    -0.068 Br
ENDBRANCH  12  13
ENDBRANCH   7  12
ENDBRANCH   1   7
BRANCH   3  15
HETATM   15  C9  UNL     1      26.843   0.578  53.224  1.00  0.00    -0.007 A 
HETATM   16  C10 UNL     1      27.147  -0.725  52.965  1.00  0.00     0.017 A 
HETATM   17  C11 UNL     1      28.367  -1.307  53.169  1.00  0.00     0.043 A 
HETATM   18  C12 UNL     1      29.399  -0.527  53.685  1.00  0.00     0.116 A 
HETATM   19  F1  UNL     1      30.576  -1.160  53.864  1.00  0.00    -0.206 F 
HETATM   20  C13 UNL     1      29.140   0.797  53.964  1.00  0.00     0.043 A 
HETATM   21  C14 UNL     1      27.892   1.341  53.740  1.00  0.00     0.017 A 
ENDBRANCH   3  15
TORSDOF 6
ENDMDL
MODEL 4
REMARK VINA RESULT:      -6.9      4.359      6.623
REMARK  6 active torsions:
REMARK  status: ('A' for Active; 'I' for Inactive)
REMARK    1  A    between atoms: C2_2  and  O1_3 
REMARK    2  A    between atoms: C2_2  and  C4_5 
REMARK    3  A    between atoms: C4_5  and  O2_6 
REMARK    4  A    between atoms: C4_5  and  C6_9 
REMARK    5  A    between atoms: O2_6  and  C5_7 
REMARK    6  A    between atoms: C8_11  and  C9_12 
ROOT
HETATM    1  C6  UNL     1      23.018   1.087  52.955  1.00  0.00     0.073 A 
HETATM    2  C7  UNL     1      24.378   0.877  53.061  1.00  0.00     0.062 A 
HETATM    3  C8  UNL     1      24.906  -0.135  53.833  1.00  0.00     0.070 A 
HETATM    4  N1  UNL     1      24.049  -0.940  54.504  1.00  0.00    -0.241 NA
HETATM    5  C15 UNL     1      22.725  -0.751  54.414  1.00  0.00     0.234 A 
HETATM    6  N2  UNL     1      22.235   0.243  53.654  1.00  0.00    -0.243 NA
ENDROOT
BRANCH   1   7
HETATM    7  C4  UNL     1      22.250   2.078  52.214  1.00  0.00     0.230 C 
BRANCH   7   8
HETATM    8  C2  UNL     1      22.918   3.398  52.157  1.00  0.00     0.071 C 
HETATM    9  C1  UNL     1      23.478   4.508  52.595  1.00  0.00     0.049 C 
BRANCH   8  10
HETATM   10  O1  UNL     1      23.143   3.828  50.835  1.00  0.00    -0.358 OA
HETATM   11  C3  UNL     1      24.066   3.179  50.005  1.00  0.00     0.209 C 
ENDBRANCH   8  10
ENDBRANCH   7   8
BRANCH   7  12
HETATM   12  O2  UNL     1      20.920   2.168  52.575  1.00  0.00    -0.363 OA
BRANCH  12  13
HETATM   13  C5  UNL     1      20.045   2.220  51.511  1.00  0.00     0.254 C 
HETATM   14 BR1  UNL     1      20.540   1.187  49.991  1.00  0.00    -0.068 Br
ENDBRANCH  12  13
ENDBRANCH   7  12
ENDBRANCH   1   7
BRANCH   3  15
HETATM   15  C9  UNL     1      26.345  -0.302  53.901  1.00  0.00    -0.007 A 
HETATM   16  C10 UNL     1      27.211   0.293  54.769  1.00  0.00     0.017 A 
HETATM   17  C11 UNL     1      28.565   0.101  54.791  1.00  0.00     0.043 A 
HETATM   18  C12 UNL     1      29.129  -0.767  53.860  1.00  0.00     0.116 A 
HETATM   19  F1  UNL     1      30.467  -0.913  53.934  1.00  0.00    -0.206 F 
HETATM   20  C13 UNL     1      28.294  -1.393  52.961  1.00  0.00     0.043 A 
HETATM   21  C14 UNL     1      26.932  -1.168  52.977  1.00  0.00     0.017 A 
ENDBRANCH   3  15
TORSDOF 6
ENDMDL
MODEL 5
REMARK VINA RESULT:      -6.8      5.417      7.368
REMARK  6 active torsions:
REMARK  status: ('A' for Active; 'I' for Inactive)
REMARK    1  A    between atoms: C2_2  and  O1_3 
REMARK    2  A    between atoms: C2_2  and  C4_5 
REMARK    3  A    between atoms: C4_5  and  O2_6 
REMARK    4  A    between atoms: C4_5  and  C6_9 
REMARK    5  A    between atoms: O2_6  and  C5_7 
REMARK    6  A    between atoms: C8_11  and  C9_12 
ROOT
HETATM    1  C6  UNL     1      25.296   3.041  50.857  1.00  0.00     0.073 A 
HETATM    2  C7  UNL     1      26.314   2.215  51.286  1.00  0.00     0.062 A 
HETATM    3  C8  UNL     1      26.405   1.779  52.591  1.00  0.00     0.070 A 
HETATM    4  N1  UNL     1      25.456   2.185  53.467  1.00  0.00    -0.241 NA
HETATM    5  C15 UNL     1      24.460   2.988  53.069  1.00  0.00     0.234 A 
HETATM    6  N2  UNL     1      24.394   3.398  51.791  1.00  0.00    -0.243 NA
ENDROOT
BRANCH   1   7
HETATM    7  C4  UNL     1      25.007   3.618  49.551  1.00  0.00     0.230 C 
BRANCH   7   8
HETATM    8  C2  UNL     1      25.870   4.778  49.231  1.00  0.00     0.071 C 
HETATM    9  C1  UNL     1      26.220   6.039  49.074  1.00  0.00     0.049 C 
BRANCH   8  10
HETATM   10  O1  UNL     1      27.162   4.389  48.826  1.00  0.00    -0.358 OA
HETATM   11  C3  UNL     1      28.126   5.337  48.458  1.00  0.00     0.209 C 
ENDBRANCH   8  10
ENDBRANCH   7   8
BRANCH   7  12
HETATM   12  O2  UNL     1      23.670   3.865  49.310  1.00  0.00    -0.363 OA
BRANCH  12  13
HETATM   13  C5  UNL     1      23.044   2.906  48.543  1.00  0.00     0.254 C 
HETATM   14 BR1  UNL     1      21.953   1.674  49.499  1.00  0.00    -0.068 Br
ENDBRANCH  12  13
ENDBRANCH   7  12
ENDBRANCH   1   7
BRANCH   3  15
HETATM   15  C9  UNL     1      27.502   0.912  52.976  1.00  0.00    -0.007 A 
HETATM   16  C10 UNL     1      28.713   1.277  53.484  1.00  0.00     0.017 A 
HETATM   17  C11 UNL     1      29.715   0.416  53.833  1.00  0.00     0.043 A 
HETATM   18  C12 UNL     1      29.508  -0.950  53.665  1.00  0.00     0.116 A 
HETATM   19  F1  UNL     1      30.535  -1.745  54.027  1.00  0.00    -0.206 F 
HETATM   20  C13 UNL     1      28.300  -1.370  53.155  1.00  0.00     0.043 A 
HETATM   21  C14 UNL     1      27.316  -0.463  52.817  1.00  0.00     0.017 A 
ENDBRANCH   3  15
TORSDOF 6
ENDMDL
MODEL 6
REMARK VINA RESULT:      -6.8      4.463      6.807
REMARK  6 active torsions:
REMARK  status: ('A' for Active; 'I' for Inactive)
REMARK    1  A    between atoms: C2_2  and  O1_3 
REMARK    2  A    between atoms: C2_2  and  C4_5 
REMARK    3  A    between atoms: C4_5  and  O2_6 
REMARK    4  A    between atoms: C4_5  and  C6_9 
REMARK    5  A    between atoms: O2_6  and  C5_7 
REMARK    6  A    between atoms: C8_11  and  C9_12 
ROOT
HETATM    1  C6  UNL     1      22.313  -0.109  53.039  1.00  0.00     0.073 A 
HETATM    2  C7  UNL     1      23.692  -0.111  53.002  1.00  0.00     0.062 A 
HETATM    3  C8  UNL     1      24.453  -0.620  54.033  1.00  0.00     0.070 A 
HETATM    4  N1  UNL     1      23.810  -1.130  55.109  1.00  0.00    -0.241 NA
HETATM    5  C15 UNL     1      22.471  -1.137  55.163  1.00  0.00     0.234 A 
HETATM    6  N2  UNL     1      21.752  -0.635  54.145  1.00  0.00    -0.243 NA
ENDROOT
BRANCH   1   7
HETATM    7  C4  UNL     1      21.323   0.370  52.084  1.00  0.00     0.230 C 
BRANCH   7   8
HETATM    8  C2  UNL     1      21.831   1.470  51.232  1.00  0.00     0.071 C 
HETATM    9  C1  UNL     1      22.251   2.677  50.912  1.00  0.00     0.049 C 
BRANCH   8  10
HETATM   10  O1  UNL     1      22.017   1.070  49.895  1.00  0.00    -0.358 OA
HETATM   11  C3  UNL     1      21.017   1.258  48.933  1.00  0.00     0.209 C 
ENDBRANCH   8  10
ENDBRANCH   7   8
BRANCH   7  12
HETATM   12  O2  UNL     1      20.082   0.643  52.624  1.00  0.00    -0.363 OA
BRANCH  12  13
HETATM   13  C5  UNL     1      19.030   0.054  51.955  1.00  0.00     0.254 C 
HETATM   14 BR1  UNL     1      17.972  -1.147  52.986  1.00  0.00    -0.068 Br
ENDBRANCH  12  13
ENDBRANCH   7  12
ENDBRANCH   1   7
BRANCH   3  15
HETATM   15  C9  UNL     1      25.900  -0.591  53.931  1.00  0.00    -0.007 A 
HETATM   16  C10 UNL     1      26.683  -1.233  53.019  1.00  0.00     0.017 A 
HETATM   17  C11 UNL     1      28.048  -1.171  52.967  1.00  0.00     0.043 A 
HETATM   18  C12 UNL     1      28.716  -0.398  53.912  1.00  0.00     0.116 A 
HETATM   19  F1  UNL     1      30.060  -0.379  53.807  1.00  0.00    -0.206 F 
HETATM   20  C13 UNL     1      27.967   0.271  54.856  1.00  0.00     0.043 A 
HETATM   21  C14 UNL     1      26.590   0.179  54.869  1.00  0.00     0.017 A 
ENDBRANCH   3  15
TORSDOF 6
ENDMDL
MODEL 7
REMARK VINA RESULT:      -6.8      4.508      6.740
REMARK  6 active torsions:
REMARK  status: ('A' for Active; 'I' for Inactive)
REMARK    1  A    between atoms: C2_2  and  O1_3 
REMARK    2  A    between atoms: C2_2  and  C4_5 
REMARK    3  A    between atoms: C4_5  and  O2_6 
REMARK    4  A    between atoms: C4_5  and  C6_9 
REMARK    5  A    between atoms: O2_6  and  C5_7 
REMARK    6  A    between atoms: C8_11  and  C9_12 
ROOT
HETATM    1  C6  UNL     1      23.110   1.286  52.637  1.00  0.00     0.073 A 
HETATM    2  C7  UNL     1      24.449   0.978  52.761  1.00  0.00     0.062 A 
HETATM    3  C8  UNL     1      24.892  -0.055  53.560  1.00  0.00     0.070 A 
HETATM    4  N1  UNL     1      23.971  -0.778  54.238  1.00  0.00    -0.241 NA
HETATM    5  C15 UNL     1      22.666  -0.493  54.130  1.00  0.00     0.234 A 
HETATM    6  N2  UNL     1      22.259   0.519  53.344  1.00  0.00    -0.243 NA
ENDROOT
BRANCH   1   7
HETATM    7  C4  UNL     1      22.425   2.316  51.868  1.00  0.00     0.230 C 
BRANCH   7   8
HETATM    8  C2  UNL     1      22.793   2.303  50.433  1.00  0.00     0.071 C 
HETATM    9  C1  UNL     1      23.352   2.702  49.309  1.00  0.00     0.049 C 
BRANCH   8  10
HETATM   10  O1  UNL     1      22.246   1.201  49.749  1.00  0.00    -0.358 OA
HETATM   11  C3  UNL     1      21.493   1.370  48.580  1.00  0.00     0.209 C 
ENDBRANCH   8  10
ENDBRANCH   7   8
BRANCH   7  12
HETATM   12  O2  UNL     1      22.474   3.581  52.420  1.00  0.00    -0.363 OA
BRANCH  12  13
HETATM   13  C5  UNL     1      21.437   4.407  52.041  1.00  0.00     0.254 C 
HETATM   14 BR1  UNL     1      21.946   5.988  51.111  1.00  0.00    -0.068 Br
ENDBRANCH  12  13
ENDBRANCH   7  12
ENDBRANCH   1   7
BRANCH   3  15
HETATM   15  C9  UNL     1      26.314  -0.327  53.647  1.00  0.00    -0.007 A 
HETATM   16  C10 UNL     1      27.043  -1.194  52.889  1.00  0.00     0.017 A 
HETATM   17  C11 UNL     1      28.387  -1.413  53.012  1.00  0.00     0.043 A 
HETATM   18  C12 UNL     1      29.091  -0.707  53.984  1.00  0.00     0.116 A 
HETATM   19  F1  UNL     1      30.411  -0.969  54.055  1.00  0.00    -0.206 F 
HETATM   20  C13 UNL     1      28.397   0.182  54.776  1.00  0.00     0.043 A 
HETATM   21  C14 UNL     1      27.040   0.371  54.614  1.00  0.00     0.017 A 
ENDBRANCH   3  15
TORSDOF 6
ENDMDL
MODEL 8
REMARK VINA RESULT:      -6.7      4.207      6.673
REMARK  6 active torsions:
REMARK  status: ('A' for Active; 'I' for Inactive)
REMARK    1  A    between atoms: C2_2  and  O1_3 
REMARK    2  A    between atoms: C2_2  and  C4_5 
REMARK    3  A    between atoms: C4_5  and  O2_6 
REMARK    4  A    between atoms: C4_5  and  C6_9 
REMARK    5  A    between atoms: O2_6  and  C5_7 
REMARK    6  A    between atoms: C8_11  and  C9_12 
ROOT
HETATM    1  C6  UNL     1      23.318   1.295  52.216  1.00  0.00     0.073 A 
HETATM    2  C7  UNL     1      24.644   1.006  52.464  1.00  0.00     0.062 A 
HETATM    3  C8  UNL     1      25.027   0.032  53.360  1.00  0.00     0.070 A 
HETATM    4  N1  UNL     1      24.057  -0.653  54.011  1.00  0.00    -0.241 NA
HETATM    5  C15 UNL     1      22.764  -0.386  53.783  1.00  0.00     0.234 A 
HETATM    6  N2  UNL     1      22.417   0.569  52.903  1.00  0.00    -0.243 NA
ENDROOT
BRANCH   1   7
HETATM    7  C4  UNL     1      22.692   2.267  51.329  1.00  0.00     0.230 C 
BRANCH   7   8
HETATM    8  C2  UNL     1      21.386   2.749  51.833  1.00  0.00     0.071 C 
HETATM    9  C1  UNL     1      20.091   2.751  52.073  1.00  0.00     0.049 C 
BRANCH   8  10
HETATM   10  O1  UNL     1      21.491   3.988  52.495  1.00  0.00    -0.358 OA
HETATM   11  C3  UNL     1      22.493   4.909  52.162  1.00  0.00     0.209 C 
ENDBRANCH   8  10
ENDBRANCH   7   8
BRANCH   7  12
HETATM   12  O2  UNL     1      22.646   1.894  50.000  1.00  0.00    -0.363 OA
BRANCH  12  13
HETATM   13  C5  UNL     1      23.126   2.845  49.126  1.00  0.00     0.254 C 
HETATM   14 BR1  UNL     1      24.846   3.547  49.539  1.00  0.00    -0.068 Br
ENDBRANCH  12  13
ENDBRANCH   7  12
ENDBRANCH   1   7
BRANCH   3  15
HETATM   15  C9  UNL     1      26.438  -0.222  53.576  1.00  0.00    -0.007 A 
HETATM   16  C10 UNL     1      27.276   0.414  54.442  1.00  0.00     0.017 A 
HETATM   17  C11 UNL     1      28.604   0.134  54.607  1.00  0.00     0.043 A 
HETATM   18  C12 UNL     1      29.172  -0.878  53.838  1.00  0.00     0.116 A 
HETATM   19  F1  UNL     1      30.484  -1.104  54.048  1.00  0.00    -0.206 F 
HETATM   20  C13 UNL     1      28.365  -1.551  52.947  1.00  0.00     0.043 A 
HETATM   21  C14 UNL     1      27.028  -1.234  52.815  1.00  0.00     0.017 A 
ENDBRANCH   3  15
TORSDOF 6
ENDMDL
MODEL 9
REMARK VINA RESULT:      -6.7      4.447      6.739
REMARK  6 active torsions:
REMARK  status: ('A' for Active; 'I' for Inactive)
REMARK    1  A    between atoms: C2_2  and  O1_3 
REMARK    2  A    between atoms: C2_2  and  C4_5 
REMARK    3  A    between atoms: C4_5  and  O2_6 
REMARK    4  A    between atoms: C4_5  and  C6_9 
REMARK    5  A    between atoms: O2_6  and  C5_7 
REMARK    6  A    between atoms: C8_11  and  C9_12 
ROOT
HETATM    1  C6  UNL     1      24.122   1.708  52.419  1.00  0.00     0.073 A 
HETATM    2  C7  UNL     1      24.967   2.423  51.596  1.00  0.00     0.062 A 
HETATM    3  C8  UNL     1      24.589   3.613  51.011  1.00  0.00     0.070 A 
HETATM    4  N1  UNL     1      23.344   4.080  51.263  1.00  0.00    -0.241 NA
HETATM    5  C15 UNL     1      22.508   3.399  52.059  1.00  0.00     0.234 A 
HETATM    6  N2  UNL     1      22.902   2.241  52.617  1.00  0.00    -0.243 NA
ENDROOT
BRANCH   1   7
HETATM    7  C4  UNL     1      24.304   0.449  53.129  1.00  0.00     0.230 C 
BRANCH   7   8
HETATM    8  C2  UNL     1      25.661  -0.117  52.958  1.00  0.00     0.071 C 
HETATM    9  C1  UNL     1      26.716  -0.603  52.336  1.00  0.00     0.049 C 
BRANCH   8  10
HETATM   10  O1  UNL     1      26.337  -0.270  54.184  1.00  0.00    -0.358 OA
HETATM   11  C3  UNL     1      27.663   0.153  54.343  1.00  0.00     0.209 C 
ENDBRANCH   8  10
ENDBRANCH   7   8
BRANCH   7  12
HETATM   12  O2  UNL     1      23.307  -0.484  52.920  1.00  0.00    -0.363 OA
BRANCH  12  13
HETATM   13  C5  UNL     1      22.756  -0.995  54.076  1.00  0.00     0.254 C 
HETATM   14 BR1  UNL     1      21.157  -0.150  54.667  1.00  0.00    -0.068 Br
ENDBRANCH  12  13
ENDBRANCH   7  12
ENDBRANCH   1   7
BRANCH   3  15
HETATM   15  C9  UNL     1      25.526   4.315  50.156  1.00  0.00    -0.007 A 
HETATM   16  C10 UNL     1      26.650   3.817  49.568  1.00  0.00     0.017 A 
HETATM   17  C11 UNL     1      27.503   4.525  48.767  1.00  0.00     0.043 A 
HETATM   18  C12 UNL     1      27.223   5.865  48.517  1.00  0.00     0.116 A 
HETATM   19  F1  UNL     1      28.101   6.507  47.721  1.00  0.00    -0.206 F 
HETATM   20  C13 UNL     1      26.097   6.415  49.089  1.00  0.00     0.043 A 
HETATM   21  C14 UNL     1      25.265   5.661  49.891  1.00  0.00     0.017 A 
ENDBRANCH   3  15
TORSDOF 6
ENDMDL
