MODEL 1
REMARK VINA RESULT:      -7.3      0.000      0.000
REMARK  5 active torsions:
REMARK  status: ('A' for Active; 'I' for Inactive)
REMARK    1  A    between atoms: O1_2  and  C2_3 
REMARK    2  A    between atoms: C7_9  and  O2_10 
REMARK    3  A    between atoms: N2_11  and  C8_12 
REMARK    4  A    between atoms: C12_16  and  N3_17 
REMARK    5  A    between atoms: N3_17  and  C13_18 
ROOT
HETATM    1  C2  UNL     1      26.522   1.511  53.577  1.00  0.00     0.044 C 
HETATM    2  C3  UNL     1      25.393   1.837  52.924  1.00  0.00     0.036 C 
HETATM    3  C4  UNL     1      24.479   0.759  52.364  1.00  0.00     0.160 A 
HETATM    4  C5  UNL     1      24.682  -0.365  53.352  1.00  0.00     0.039 A 
HETATM    5  N1  UNL     1      23.782  -0.839  54.181  1.00  0.00    -0.263 NA
HETATM    6  C6  UNL     1      22.471  -0.319  54.224  1.00  0.00     0.172 A 
HETATM    7  C7  UNL     1      22.176   0.662  53.386  1.00  0.00     0.157 A 
HETATM    8  N2  UNL     1      23.101   1.200  52.449  1.00  0.00    -0.339 N 
HETATM    9  C17 UNL     1      26.080  -0.930  53.296  1.00  0.00     0.064 C 
HETATM   10  C18 UNL     1      27.000   0.142  53.823  1.00  0.00     0.070 C 
ENDROOT
BRANCH   8  11
HETATM   11  C8  UNL     1      22.493   2.216  51.597  1.00  0.00     0.116 A 
HETATM   12  C9  UNL     1      22.965   2.152  50.200  1.00  0.00    -0.001 A 
HETATM   13  C10 UNL     1      23.437   3.041  49.344  1.00  0.00    -0.000 A 
HETATM   14  C11 UNL     1      23.539   4.409  49.837  1.00  0.00     0.024 A 
HETATM   15  C12 UNL     1      23.134   4.511  51.077  1.00  0.00     0.007 A 
HETATM   16  C16 UNL     1      22.617   3.606  52.117  1.00  0.00     0.086 A 
BRANCH  15  17
HETATM   17  N3  UNL     1      23.213   5.850  51.614  1.00  0.00    -0.389 N 
HETATM   18  H12 UNL     1      23.462   5.945  52.635  1.00  0.00     0.159 HD
BRANCH  17  19
HETATM   19  C13 UNL     1      22.921   6.869  50.602  1.00  0.00     0.073 C 
HETATM   20  C14 UNL     1      23.889   8.029  50.720  1.00  0.00     0.031 C 
HETATM   21  C15 UNL     1      21.532   7.419  50.722  1.00  0.00     0.031 C 
ENDBRANCH  17  19
ENDBRANCH  15  17
ENDBRANCH   8  11
BRANCH   7  22
HETATM   22  O2  UNL     1      20.860   0.973  53.649  1.00  0.00    -0.345 OA
HETATM   23  H7  UNL     1      20.509   1.466  54.450  1.00  0.00     0.219 HD
ENDBRANCH   7  22
BRANCH   1  24
HETATM   24  O1  UNL     1      27.467   2.383  54.152  1.00  0.00    -0.360 OA
HETATM   25  C1  UNL     1      28.815   2.431  53.765  1.00  0.00     0.209 C 
ENDBRANCH   1  24
TORSDOF 5
ENDMDL
MODEL 2
REMARK VINA RESULT:      -7.3      2.659      5.618
REMARK  5 active torsions:
REMARK  status: ('A' for Active; 'I' for Inactive)
REMARK    1  A    between atoms: O1_2  and  C2_3 
REMARK    2  A    between atoms: C7_9  and  O2_10 
REMARK    3  A    between atoms: N2_11  and  C8_12 
REMARK    4  A    between atoms: C12_16  and  N3_17 
REMARK    5  A    between atoms: N3_17  and  C13_18 
ROOT
HETATM    1  C2  UNL     1      21.718  -0.009  53.803  1.00  0.00     0.044 C 
HETATM    2  C3  UNL     1      22.591   0.910  53.359  1.00  0.00     0.036 C 
HETATM    3  C4  UNL     1      22.386   1.595  52.017  1.00  0.00     0.160 A 
HETATM    4  C5  UNL     1      20.880   1.627  51.912  1.00  0.00     0.039 A 
HETATM    5  N1  UNL     1      20.124   2.699  51.928  1.00  0.00    -0.263 NA
HETATM    6  C6  UNL     1      20.679   3.991  52.046  1.00  0.00     0.172 A 
HETATM    7  C7  UNL     1      21.996   4.084  52.128  1.00  0.00     0.157 A 
HETATM    8  N2  UNL     1      22.867   2.960  52.091  1.00  0.00    -0.339 N 
HETATM    9  C17 UNL     1      20.287   0.245  51.773  1.00  0.00     0.064 C 
HETATM   10  C18 UNL     1      20.511  -0.454  53.090  1.00  0.00     0.070 C 
ENDROOT
BRANCH   8  11
HETATM   11  C8  UNL     1      24.272   3.352  52.122  1.00  0.00     0.116 A 
HETATM   12  C9  UNL     1      25.015   2.919  50.922  1.00  0.00    -0.001 A 
HETATM   13  C10 UNL     1      26.155   2.282  50.723  1.00  0.00    -0.000 A 
HETATM   14  C11 UNL     1      26.885   1.890  51.922  1.00  0.00     0.024 A 
HETATM   15  C12 UNL     1      26.257   2.251  53.013  1.00  0.00     0.007 A 
HETATM   16  C16 UNL     1      24.998   2.933  53.353  1.00  0.00     0.086 A 
BRANCH  15  17
HETATM   17  N3  UNL     1      26.941   1.887  54.233  1.00  0.00    -0.389 N 
HETATM   18  H12 UNL     1      27.148   2.662  54.918  1.00  0.00     0.159 HD
BRANCH  17  19
HETATM   19  C13 UNL     1      27.234   0.452  54.296  1.00  0.00     0.073 C 
HETATM   20  C14 UNL     1      26.216  -0.261  55.162  1.00  0.00     0.031 C 
HETATM   21  C15 UNL     1      28.593   0.166  54.859  1.00  0.00     0.031 C 
ENDBRANCH  17  19
ENDBRANCH  15  17
ENDBRANCH   8  11
BRANCH   7  22
HETATM   22  O2  UNL     1      22.253   5.433  52.240  1.00  0.00    -0.345 OA
HETATM   23  H7  UNL     1      21.604   6.182  52.081  1.00  0.00     0.219 HD
ENDBRANCH   7  22
BRANCH   1  24
HETATM   24  O1  UNL     1      21.765  -0.728  55.014  1.00  0.00    -0.360 OA
HETATM   25  C1  UNL     1      22.875  -1.481  55.426  1.00  0.00     0.209 C 
ENDBRANCH   1  24
TORSDOF 5
ENDMDL
MODEL 3
REMARK VINA RESULT:      -7.1      6.870     10.153
REMARK  5 active torsions:
REMARK  status: ('A' for Active; 'I' for Inactive)
REMARK    1  A    between atoms: O1_2  and  C2_3 
REMARK    2  A    between atoms: C7_9  and  O2_10 
REMARK    3  A    between atoms: N2_11  and  C8_12 
REMARK    4  A    between atoms: C12_16  and  N3_17 
REMARK    5  A    between atoms: N3_17  and  C13_18 
ROOT
HETATM    1  C2  UNL     1      27.326   5.215  48.721  1.00  0.00     0.044 C 
HETATM    2  C3  UNL     1      28.448   5.908  48.462  1.00  0.00     0.036 C 
HETATM    3  C4  UNL     1      28.380   7.324  47.912  1.00  0.00     0.160 A 
HETATM    4  C5  UNL     1      27.101   7.835  48.532  1.00  0.00     0.039 A 
HETATM    5  N1  UNL     1      27.002   8.790  49.426  1.00  0.00    -0.263 NA
HETATM    6  C6  UNL     1      28.140   9.468  49.913  1.00  0.00     0.172 A 
HETATM    7  C7  UNL     1      29.318   9.111  49.424  1.00  0.00     0.157 A 
HETATM    8  N2  UNL     1      29.485   8.101  48.437  1.00  0.00    -0.339 N 
HETATM    9  C17 UNL     1      25.883   7.120  48.002  1.00  0.00     0.064 C 
HETATM   10  C18 UNL     1      25.955   5.705  48.517  1.00  0.00     0.070 C 
ENDROOT
BRANCH   8  11
HETATM   11  C8  UNL     1      30.877   7.963  48.022  1.00  0.00     0.116 A 
HETATM   12  C9  UNL     1      31.024   7.761  46.567  1.00  0.00    -0.001 A 
HETATM   13  C10 UNL     1      31.682   6.894  45.818  1.00  0.00    -0.000 A 
HETATM   14  C11 UNL     1      32.450   5.884  46.537  1.00  0.00     0.024 A 
HETATM   15  C12 UNL     1      32.343   6.024  47.834  1.00  0.00     0.007 A 
HETATM   16  C16 UNL     1      31.638   6.920  48.764  1.00  0.00     0.086 A 
BRANCH  15  17
HETATM   17  N3  UNL     1      33.088   5.046  48.594  1.00  0.00    -0.389 N 
HETATM   18  H12 UNL     1      32.573   4.539  49.363  1.00  0.00     0.159 HD
BRANCH  17  19
HETATM   19  C13 UNL     1      34.477   4.935  48.140  1.00  0.00     0.073 C 
HETATM   20  C14 UNL     1      34.848   3.483  47.914  1.00  0.00     0.031 C 
HETATM   21  C15 UNL     1      35.453   5.508  49.122  1.00  0.00     0.031 C 
ENDBRANCH  17  19
ENDBRANCH  15  17
ENDBRANCH   8  11
BRANCH   7  22
HETATM   22  O2  UNL     1      30.231   9.915  50.071  1.00  0.00    -0.345 OA
HETATM   23  H7  UNL     1      30.344  10.016  51.062  1.00  0.00     0.219 HD
ENDBRANCH   7  22
BRANCH   1  24
HETATM   24  O1  UNL     1      27.221   3.905  49.228  1.00  0.00    -0.360 OA
HETATM   25  C1  UNL     1      26.083   3.419  49.890  1.00  0.00     0.209 C 
ENDBRANCH   1  24
TORSDOF 5
ENDMDL
MODEL 4
REMARK VINA RESULT:      -7.1      1.510      2.002
REMARK  5 active torsions:
REMARK  status: ('A' for Active; 'I' for Inactive)
REMARK    1  A    between atoms: O1_2  and  C2_3 
REMARK    2  A    between atoms: C7_9  and  O2_10 
REMARK    3  A    between atoms: N2_11  and  C8_12 
REMARK    4  A    between atoms: C12_16  and  N3_17 
REMARK    5  A    between atoms: N3_17  and  C13_18 
ROOT
HETATM    1  C2  UNL     1      26.389   1.512  53.499  1.00  0.00     0.044 C 
HETATM    2  C3  UNL     1      25.263   1.746  52.803  1.00  0.00     0.036 C 
HETATM    3  C4  UNL     1      24.380   0.597  52.342  1.00  0.00     0.160 A 
HETATM    4  C5  UNL     1      24.593  -0.418  53.439  1.00  0.00     0.039 A 
HETATM    5  N1  UNL     1      23.693  -0.828  54.301  1.00  0.00    -0.263 NA
HETATM    6  C6  UNL     1      22.371  -0.336  54.277  1.00  0.00     0.172 A 
HETATM    7  C7  UNL     1      22.066   0.550  53.342  1.00  0.00     0.157 A 
HETATM    8  N2  UNL     1      22.992   1.013  52.367  1.00  0.00    -0.339 N 
HETATM    9  C17 UNL     1      26.004  -0.954  53.457  1.00  0.00     0.064 C 
HETATM   10  C18 UNL     1      26.893   0.185  53.885  1.00  0.00     0.070 C 
ENDROOT
BRANCH   8  11
HETATM   11  C8  UNL     1      22.374   1.926  51.411  1.00  0.00     0.116 A 
HETATM   12  C9  UNL     1      21.734   1.225  50.280  1.00  0.00    -0.001 A 
HETATM   13  C10 UNL     1      21.783   1.358  48.967  1.00  0.00    -0.000 A 
HETATM   14  C11 UNL     1      22.651   2.416  48.464  1.00  0.00     0.024 A 
HETATM   15  C12 UNL     1      23.245   3.061  49.437  1.00  0.00     0.007 A 
HETATM   16  C16 UNL     1      23.283   2.992  50.906  1.00  0.00     0.086 A 
BRANCH  15  17
HETATM   17  N3  UNL     1      24.117   4.123  48.991  1.00  0.00    -0.389 N 
HETATM   18  H12 UNL     1      23.879   4.589  48.074  1.00  0.00     0.159 HD
BRANCH  17  19
HETATM   19  C13 UNL     1      25.214   4.369  49.930  1.00  0.00     0.073 C 
HETATM   20  C14 UNL     1      25.439   5.856  50.110  1.00  0.00     0.031 C 
HETATM   21  C15 UNL     1      26.508   3.763  49.476  1.00  0.00     0.031 C 
ENDBRANCH  17  19
ENDBRANCH  15  17
ENDBRANCH   8  11
BRANCH   7  22
HETATM   22  O2  UNL     1      20.740   0.855  53.558  1.00  0.00    -0.345 OA
HETATM   23  H7  UNL     1      20.369   1.739  53.854  1.00  0.00     0.219 HD
ENDBRANCH   7  22
BRANCH   1  24
HETATM   24  O1  UNL     1      27.307   2.459  53.995  1.00  0.00    -0.360 OA
HETATM   25  C1  UNL     1      28.673   2.458  53.672  1.00  0.00     0.209 C 
ENDBRANCH   1  24
TORSDOF 5
ENDMDL
MODEL 5
REMARK VINA RESULT:      -7.1      3.171      6.579
REMARK  5 active torsions:
REMARK  status: ('A' for Active; 'I' for Inactive)
REMARK    1  A    between atoms: O1_2  and  C2_3 
REMARK    2  A    between atoms: C7_9  and  O2_10 
REMARK    3  A    between atoms: N2_11  and  C8_12 
REMARK    4  A    between atoms: C12_16  and  N3_17 
REMARK    5  A    between atoms: N3_17  and  C13_18 
ROOT
HETATM    1  C2  UNL     1      27.402   4.962  48.821  1.00  0.00     0.044 C 
HETATM    2  C3  UNL     1      26.726   4.119  49.619  1.00  0.00     0.036 C 
HETATM    3  C4  UNL     1      25.372   4.507  50.192  1.00  0.00     0.160 A 
HETATM    4  C5  UNL     1      24.816   5.392  49.103  1.00  0.00     0.039 A 
HETATM    5  N1  UNL     1      23.778   5.129  48.344  1.00  0.00    -0.263 NA
HETATM    6  C6  UNL     1      23.043   3.933  48.488  1.00  0.00     0.172 A 
HETATM    7  C7  UNL     1      23.433   3.086  49.428  1.00  0.00     0.157 A 
HETATM    8  N2  UNL     1      24.534   3.329  50.296  1.00  0.00    -0.339 N 
HETATM    9  C17 UNL     1      25.594   6.677  48.957  1.00  0.00     0.064 C 
HETATM   10  C18 UNL     1      26.950   6.302  48.417  1.00  0.00     0.070 C 
ENDROOT
BRANCH   8  11
HETATM   11  C8  UNL     1      24.696   2.271  51.287  1.00  0.00     0.116 A 
HETATM   12  C9  UNL     1      24.329   2.701  52.651  1.00  0.00    -0.001 A 
HETATM   13  C10 UNL     1      24.917   2.625  53.831  1.00  0.00    -0.000 A 
HETATM   14  C11 UNL     1      26.227   1.985  53.852  1.00  0.00     0.024 A 
HETATM   15  C12 UNL     1      26.595   1.592  52.659  1.00  0.00     0.007 A 
HETATM   16  C16 UNL     1      26.044   1.638  51.294  1.00  0.00     0.086 A 
BRANCH  15  17
HETATM   17  N3  UNL     1      27.888   0.949  52.625  1.00  0.00    -0.389 N 
HETATM   18  H12 UNL     1      28.636   1.402  52.033  1.00  0.00     0.159 HD
BRANCH  17  19
HETATM   19  C13 UNL     1      27.926  -0.262  53.449  1.00  0.00     0.073 C 
HETATM   20  C14 UNL     1      29.357  -0.693  53.696  1.00  0.00     0.031 C 
HETATM   21  C15 UNL     1      27.204  -1.413  52.817  1.00  0.00     0.031 C 
ENDBRANCH  17  19
ENDBRANCH  15  17
ENDBRANCH   8  11
BRANCH   7  22
HETATM   22  O2  UNL     1      22.559   2.025  49.339  1.00  0.00    -0.345 OA
HETATM   23  H7  UNL     1      22.204   1.476  50.100  1.00  0.00     0.219 HD
ENDBRANCH   7  22
BRANCH   1  24
HETATM   24  O1  UNL     1      28.657   4.754  48.215  1.00  0.00    -0.360 OA
HETATM   25  C1  UNL     1      29.670   5.724  48.176  1.00  0.00     0.209 C 
ENDBRANCH   1  24
TORSDOF 5
ENDMDL
MODEL 6
REMARK VINA RESULT:      -7.0      2.071      6.441
REMARK  5 active torsions:
REMARK  status: ('A' for Active; 'I' for Inactive)
REMARK    1  A    between atoms: O1_2  and  C2_3 
REMARK    2  A    between atoms: C7_9  and  O2_10 
REMARK    3  A    between atoms: N2_11  and  C8_12 
REMARK    4  A    between atoms: C12_16  and  N3_17 
REMARK    5  A    between atoms: N3_17  and  C13_18 
ROOT
HETATM    1  C2  UNL     1      21.888   2.113  49.061  1.00  0.00     0.044 C 
HETATM    2  C3  UNL     1      22.806   2.192  50.040  1.00  0.00     0.036 C 
HETATM    3  C4  UNL     1      23.854   3.294  50.038  1.00  0.00     0.160 A 
HETATM    4  C5  UNL     1      23.109   4.429  49.378  1.00  0.00     0.039 A 
HETATM    5  N1  UNL     1      22.753   5.557  49.946  1.00  0.00    -0.263 NA
HETATM    6  C6  UNL     1      23.055   5.830  51.297  1.00  0.00     0.172 A 
HETATM    7  C7  UNL     1      23.723   4.907  51.972  1.00  0.00     0.157 A 
HETATM    8  N2  UNL     1      24.156   3.678  51.402  1.00  0.00    -0.339 N 
HETATM    9  C17 UNL     1      22.798   4.143  47.929  1.00  0.00     0.064 C 
HETATM   10  C18 UNL     1      21.780   3.031  47.917  1.00  0.00     0.070 C 
ENDROOT
BRANCH   8  11
HETATM   11  C8  UNL     1      24.936   2.880  52.343  1.00  0.00     0.116 A 
HETATM   12  C9  UNL     1      26.118   2.252  51.721  1.00  0.00    -0.001 A 
HETATM   13  C10 UNL     1      26.610   1.026  51.705  1.00  0.00    -0.000 A 
HETATM   14  C11 UNL     1      25.856   0.027  52.450  1.00  0.00     0.024 A 
HETATM   15  C12 UNL     1      24.793   0.541  53.016  1.00  0.00     0.007 A 
HETATM   16  C16 UNL     1      24.145   1.861  53.086  1.00  0.00     0.086 A 
BRANCH  15  17
HETATM   17  N3  UNL     1      24.010  -0.410  53.770  1.00  0.00    -0.389 N 
HETATM   18  H12 UNL     1      24.532  -1.200  54.238  1.00  0.00     0.159 HD
BRANCH  17  19
HETATM   19  C13 UNL     1      22.580  -0.091  53.748  1.00  0.00     0.073 C 
HETATM   20  C14 UNL     1      21.871  -0.736  54.921  1.00  0.00     0.031 C 
HETATM   21  C15 UNL     1      21.905  -0.559  52.494  1.00  0.00     0.031 C 
ENDBRANCH  17  19
ENDBRANCH  15  17
ENDBRANCH   8  11
BRANCH   7  22
HETATM   22  O2  UNL     1      23.868   5.426  53.240  1.00  0.00    -0.345 OA
HETATM   23  H7  UNL     1      23.932   4.907  54.096  1.00  0.00     0.219 HD
ENDBRANCH   7  22
BRANCH   1  24
HETATM   24  O1  UNL     1      20.859   1.162  48.920  1.00  0.00    -0.360 OA
HETATM   25  C1  UNL     1      19.696   1.154  49.707  1.00  0.00     0.209 C 
ENDBRANCH   1  24
TORSDOF 5
ENDMDL
MODEL 7
REMARK VINA RESULT:      -6.8      2.610      5.272
REMARK  5 active torsions:
REMARK  status: ('A' for Active; 'I' for Inactive)
REMARK    1  A    between atoms: O1_2  and  C2_3 
REMARK    2  A    between atoms: C7_9  and  O2_10 
REMARK    3  A    between atoms: N2_11  and  C8_12 
REMARK    4  A    between atoms: C12_16  and  N3_17 
REMARK    5  A    between atoms: N3_17  and  C13_18 
ROOT
HETATM    1  C2  UNL     1      24.850   4.810  50.440  1.00  0.00     0.044 C 
HETATM    2  C3  UNL     1      24.405   3.864  51.285  1.00  0.00     0.036 C 
HETATM    3  C4  UNL     1      25.013   2.471  51.286  1.00  0.00     0.160 A 
HETATM    4  C5  UNL     1      26.443   2.757  50.892  1.00  0.00     0.039 A 
HETATM    5  N1  UNL     1      27.502   2.597  51.650  1.00  0.00    -0.263 NA
HETATM    6  C6  UNL     1      27.398   2.112  52.971  1.00  0.00     0.172 A 
HETATM    7  C7  UNL     1      26.189   1.812  53.418  1.00  0.00     0.157 A 
HETATM    8  N2  UNL     1      25.008   1.941  52.635  1.00  0.00    -0.339 N 
HETATM    9  C17 UNL     1      26.556   3.263  49.475  1.00  0.00     0.064 C 
HETATM   10  C18 UNL     1      25.928   4.634  49.455  1.00  0.00     0.070 C 
ENDROOT
BRANCH   8  11
HETATM   11  C8  UNL     1      23.824   1.469  53.344  1.00  0.00     0.116 A 
HETATM   12  C9  UNL     1      23.791   0.000  53.491  1.00  0.00    -0.001 A 
HETATM   13  C10 UNL     1      22.883  -0.930  53.254  1.00  0.00    -0.000 A 
HETATM   14  C11 UNL     1      21.609  -0.458  52.724  1.00  0.00     0.024 A 
HETATM   15  C12 UNL     1      21.597   0.842  52.573  1.00  0.00     0.007 A 
HETATM   16  C16 UNL     1      22.536   1.957  52.780  1.00  0.00     0.086 A 
BRANCH  15  17
HETATM   17  N3  UNL     1      20.354   1.362  52.051  1.00  0.00    -0.389 N 
HETATM   18  H12 UNL     1      19.965   2.229  52.510  1.00  0.00     0.159 HD
BRANCH  17  19
HETATM   19  C13 UNL     1      19.842   0.557  50.938  1.00  0.00     0.073 C 
HETATM   20  C14 UNL     1      20.160   1.218  49.613  1.00  0.00     0.031 C 
HETATM   21  C15 UNL     1      18.358   0.360  51.005  1.00  0.00     0.031 C 
ENDBRANCH  17  19
ENDBRANCH  15  17
ENDBRANCH   8  11
BRANCH   7  22
HETATM   22  O2  UNL     1      26.383   1.380  54.711  1.00  0.00    -0.345 OA
HETATM   23  H7  UNL     1      25.671   1.158  55.382  1.00  0.00     0.219 HD
ENDBRANCH   7  22
BRANCH   1  24
HETATM   24  O1  UNL     1      24.396   6.138  50.317  1.00  0.00    -0.360 OA
HETATM   25  C1  UNL     1      25.229   7.258  50.457  1.00  0.00     0.209 C 
ENDBRANCH   1  24
TORSDOF 5
ENDMDL
MODEL 8
REMARK VINA RESULT:      -6.7      3.234      6.202
REMARK  5 active torsions:
REMARK  status: ('A' for Active; 'I' for Inactive)
REMARK    1  A    between atoms: O1_2  and  C2_3 
REMARK    2  A    between atoms: C7_9  and  O2_10 
REMARK    3  A    between atoms: N2_11  and  C8_12 
REMARK    4  A    between atoms: C12_16  and  N3_17 
REMARK    5  A    between atoms: N3_17  and  C13_18 
ROOT
HETATM    1  C2  UNL     1      21.238   1.095  49.825  1.00  0.00     0.044 C 
HETATM    2  C3  UNL     1      22.104   1.109  50.852  1.00  0.00     0.036 C 
HETATM    3  C4  UNL     1      21.634   1.426  52.263  1.00  0.00     0.160 A 
HETATM    4  C5  UNL     1      20.227   0.880  52.251  1.00  0.00     0.039 A 
HETATM    5  N1  UNL     1      19.786  -0.140  52.949  1.00  0.00    -0.263 NA
HETATM    6  C6  UNL     1      20.629  -0.856  53.825  1.00  0.00     0.172 A 
HETATM    7  C7  UNL     1      21.886  -0.452  53.928  1.00  0.00     0.157 A 
HETATM    8  N2  UNL     1      22.413   0.662  53.217  1.00  0.00    -0.339 N 
HETATM    9  C17 UNL     1      19.321   1.652  51.324  1.00  0.00     0.064 C 
HETATM   10  C18 UNL     1      19.796   1.369  49.922  1.00  0.00     0.070 C 
ENDROOT
BRANCH   8  11
HETATM   11  C8  UNL     1      23.802   0.934  53.574  1.00  0.00     0.116 A 
HETATM   12  C9  UNL     1      24.240   2.288  53.181  1.00  0.00    -0.001 A 
HETATM   13  C10 UNL     1      25.284   2.766  52.527  1.00  0.00    -0.000 A 
HETATM   14  C11 UNL     1      26.252   1.780  52.063  1.00  0.00     0.024 A 
HETATM   15  C12 UNL     1      25.899   0.562  52.387  1.00  0.00     0.007 A 
HETATM   16  C16 UNL     1      24.772  -0.082  53.082  1.00  0.00     0.086 A 
BRANCH  15  17
HETATM   17  N3  UNL     1      26.828  -0.455  51.951  1.00  0.00    -0.389 N 
HETATM   18  H12 UNL     1      26.944  -0.587  50.910  1.00  0.00     0.159 HD
BRANCH  17  19
HETATM   19  C13 UNL     1      27.463  -1.144  53.077  1.00  0.00     0.073 C 
HETATM   20  C14 UNL     1      28.725  -0.420  53.501  1.00  0.00     0.031 C 
HETATM   21  C15 UNL     1      27.836  -2.558  52.752  1.00  0.00     0.031 C 
ENDBRANCH  17  19
ENDBRANCH  15  17
ENDBRANCH   8  11
BRANCH   7  22
HETATM   22  O2  UNL     1      22.467  -1.318  54.827  1.00  0.00    -0.345 OA
HETATM   23  H7  UNL     1      22.269  -1.385  55.809  1.00  0.00     0.219 HD
ENDBRANCH   7  22
BRANCH   1  24
HETATM   24  O1  UNL     1      21.512   0.821  48.471  1.00  0.00    -0.360 OA
HETATM   25  C1  UNL     1      22.197   1.707  47.624  1.00  0.00     0.209 C 
ENDBRANCH   1  24
TORSDOF 5
ENDMDL
MODEL 9
REMARK VINA RESULT:      -6.6      3.104      6.569
REMARK  5 active torsions:
REMARK  status: ('A' for Active; 'I' for Inactive)
REMARK    1  A    between atoms: O1_2  and  C2_3 
REMARK    2  A    between atoms: C7_9  and  O2_10 
REMARK    3  A    between atoms: N2_11  and  C8_12 
REMARK    4  A    between atoms: C12_16  and  N3_17 
REMARK    5  A    between atoms: N3_17  and  C13_18 
ROOT
HETATM    1  C2  UNL     1      26.920   5.413  48.777  1.00  0.00     0.044 C 
HETATM    2  C3  UNL     1      25.859   4.946  49.458  1.00  0.00     0.036 C 
HETATM    3  C4  UNL     1      24.605   5.790  49.621  1.00  0.00     0.160 A 
HETATM    4  C5  UNL     1      24.600   6.589  48.339  1.00  0.00     0.039 A 
HETATM    5  N1  UNL     1      23.719   6.495  47.371  1.00  0.00    -0.263 NA
HETATM    6  C6  UNL     1      22.634   5.596  47.445  1.00  0.00     0.172 A 
HETATM    7  C7  UNL     1      22.530   4.853  48.536  1.00  0.00     0.157 A 
HETATM    8  N2  UNL     1      23.439   4.929  49.627  1.00  0.00    -0.339 N 
HETATM    9  C17 UNL     1      25.753   7.560  48.266  1.00  0.00     0.064 C 
HETATM   10  C18 UNL     1      27.006   6.733  48.134  1.00  0.00     0.070 C 
ENDROOT
BRANCH   8  11
HETATM   11  C8  UNL     1      23.047   4.059  50.731  1.00  0.00     0.116 A 
HETATM   12  C9  UNL     1      23.252   4.682  52.054  1.00  0.00    -0.001 A 
HETATM   13  C10 UNL     1      23.834   4.295  53.175  1.00  0.00    -0.000 A 
HETATM   14  C11 UNL     1      24.426   2.963  53.160  1.00  0.00     0.024 A 
HETATM   15  C12 UNL     1      24.271   2.375  52.001  1.00  0.00     0.007 A 
HETATM   16  C16 UNL     1      23.670   2.707  50.698  1.00  0.00     0.086 A 
BRANCH  15  17
HETATM   17  N3  UNL     1      24.839   1.048  51.933  1.00  0.00    -0.389 N 
HETATM   18  H12 UNL     1      25.328   0.779  51.037  1.00  0.00     0.159 HD
BRANCH  17  19
HETATM   19  C13 UNL     1      24.625   0.291  53.169  1.00  0.00     0.073 C 
HETATM   20  C14 UNL     1      25.724  -0.734  53.364  1.00  0.00     0.031 C 
HETATM   21  C15 UNL     1      23.315  -0.437  53.179  1.00  0.00     0.031 C 
ENDBRANCH  17  19
ENDBRANCH  15  17
ENDBRANCH   8  11
BRANCH   7  22
HETATM   22  O2  UNL     1      21.408   4.079  48.335  1.00  0.00    -0.345 OA
HETATM   23  H7  UNL     1      21.180   3.222  48.804  1.00  0.00     0.219 HD
ENDBRANCH   7  22
BRANCH   1  24
HETATM   24  O1  UNL     1      28.145   4.761  48.538  1.00  0.00    -0.360 OA
HETATM   25  C1  UNL     1      29.324   5.432  48.178  1.00  0.00     0.209 C 
ENDBRANCH   1  24
TORSDOF 5
ENDMDL
