MODEL 1
REMARK VINA RESULT:      -7.2      0.000      0.000
REMARK  6 active torsions:
REMARK  status: ('A' for Active; 'I' for Inactive)
REMARK    1  A    between atoms: C1_2  and  C2_3 
REMARK    2  A    between atoms: C3_4  and  C4_5 
REMARK    3  A    between atoms: C4_5  and  O1_6 
REMARK    4  A    between atoms: O1_6  and  C5_7 
REMARK    5  A    between atoms: C9_11  and  C10_12 
REMARK    6  A    between atoms: C11_13  and  C12_14 
ROOT
HETATM    1  C5  UNL     1      20.679   1.471  52.038  1.00  0.00     0.060 C 
HETATM    2  C6  UNL     1      20.910   2.663  52.616  1.00  0.00     0.013 C 
HETATM    3  C7  UNL     1      22.108   3.459  52.171  1.00  0.00     0.086 C 
HETATM    4  C8  UNL     1      23.236   2.459  52.220  1.00  0.00     0.017 C 
HETATM    5  C9  UNL     1      24.322   2.780  52.901  1.00  0.00     0.089 C 
HETATM    6  N1  UNL     1      23.023   1.246  51.517  1.00  0.00    -0.386 N 
HETATM    7  C18 UNL     1      21.668   1.052  50.982  1.00  0.00     0.183 C 
HETATM    8  H16 UNL     1      23.837   0.600  51.440  1.00  0.00     0.159 HD
ENDROOT
BRANCH   5   9
HETATM    9  C10 UNL     1      25.422   1.860  52.977  1.00  0.00    -0.071 C 
HETATM   10  C11 UNL     1      26.347   1.082  53.062  1.00  0.00    -0.062 C 
BRANCH  10  11
HETATM   11  C12 UNL     1      27.452   0.165  53.167  1.00  0.00     0.018 A 
HETATM   12  C13 UNL     1      28.695   0.642  53.521  1.00  0.00     0.020 A 
HETATM   13  C14 UNL     1      29.783  -0.202  53.632  1.00  0.00     0.001 A 
HETATM   14  C15 UNL     1      29.521  -1.547  53.363  1.00  0.00     0.000 A 
HETATM   15  C16 UNL     1      28.288  -2.059  53.006  1.00  0.00     0.001 A 
HETATM   16  C17 UNL     1      27.220  -1.165  52.906  1.00  0.00     0.020 A 
ENDBRANCH  10  11
ENDBRANCH   5   9
BRANCH   1  17
HETATM   17  O1  UNL     1      19.518   0.909  52.601  1.00  0.00    -0.350 OA
BRANCH  17  18
HETATM   18  C4  UNL     1      19.565  -0.356  53.193  1.00  0.00     0.202 C 
BRANCH  18  19
HETATM   19  C3  UNL     1      20.748  -0.349  54.114  1.00  0.00    -0.002 C 
HETATM   20  C2  UNL     1      21.641  -1.346  54.200  1.00  0.00     0.002 C 
BRANCH  20  21
HETATM   21  C1  UNL     1      22.810  -1.282  55.144  1.00  0.00     0.249 C 
HETATM   22  F1  UNL     1      23.922  -0.863  54.461  1.00  0.00    -0.251 F 
ENDBRANCH  20  21
ENDBRANCH  18  19
ENDBRANCH  17  18
ENDBRANCH   1  17
TORSDOF 6
ENDMDL
MODEL 2
REMARK VINA RESULT:      -7.1      2.685      4.369
REMARK  6 active torsions:
REMARK  status: ('A' for Active; 'I' for Inactive)
REMARK    1  A    between atoms: C1_2  and  C2_3 
REMARK    2  A    between atoms: C3_4  and  C4_5 
REMARK    3  A    between atoms: C4_5  and  O1_6 
REMARK    4  A    between atoms: O1_6  and  C5_7 
REMARK    5  A    between atoms: C9_11  and  C10_12 
REMARK    6  A    between atoms: C11_13  and  C12_14 
ROOT
HETATM    1  C5  UNL     1      22.679   4.663  51.406  1.00  0.00     0.060 C 
HETATM    2  C6  UNL     1      21.831   3.643  51.188  1.00  0.00     0.013 C 
HETATM    3  C7  UNL     1      21.723   2.561  52.230  1.00  0.00     0.086 C 
HETATM    4  C8  UNL     1      23.159   2.192  52.507  1.00  0.00     0.017 C 
HETATM    5  C9  UNL     1      23.500   0.918  52.423  1.00  0.00     0.089 C 
HETATM    6  N1  UNL     1      24.023   3.266  52.840  1.00  0.00    -0.386 N 
HETATM    7  C18 UNL     1      23.448   4.611  52.700  1.00  0.00     0.183 C 
HETATM    8  H16 UNL     1      24.984   3.013  53.153  1.00  0.00     0.159 HD
ENDROOT
BRANCH   5   9
HETATM    9  C10 UNL     1      24.856   0.519  52.678  1.00  0.00    -0.071 C 
HETATM   10  C11 UNL     1      26.006   0.199  52.885  1.00  0.00    -0.062 C 
BRANCH  10  11
HETATM   11  C12 UNL     1      27.375  -0.182  53.120  1.00  0.00     0.018 A 
HETATM   12  C13 UNL     1      27.742  -1.502  52.982  1.00  0.00     0.020 A 
HETATM   13  C14 UNL     1      29.042  -1.912  53.199  1.00  0.00     0.001 A 
HETATM   14  C15 UNL     1      29.932  -0.898  53.561  1.00  0.00     0.000 A 
HETATM   15  C16 UNL     1      29.598   0.435  53.708  1.00  0.00     0.001 A 
HETATM   16  C17 UNL     1      28.270   0.799  53.478  1.00  0.00     0.020 A 
ENDBRANCH  10  11
ENDBRANCH   5   9
BRANCH   1  17
HETATM   17  O1  UNL     1      22.617   5.548  50.314  1.00  0.00    -0.350 OA
BRANCH  17  18
HETATM   18  C4  UNL     1      23.176   5.191  49.085  1.00  0.00     0.202 C 
BRANCH  18  19
HETATM   19  C3  UNL     1      24.622   4.894  49.348  1.00  0.00    -0.002 C 
HETATM   20  C2  UNL     1      25.141   3.658  49.388  1.00  0.00     0.002 C 
BRANCH  20  21
HETATM   21  C1  UNL     1      26.602   3.421  49.657  1.00  0.00     0.249 C 
HETATM   22  F1  UNL     1      26.757   2.938  50.930  1.00  0.00    -0.251 F 
ENDBRANCH  20  21
ENDBRANCH  18  19
ENDBRANCH  17  18
ENDBRANCH   1  17
TORSDOF 6
ENDMDL
MODEL 3
REMARK VINA RESULT:      -6.9      7.762     10.398
REMARK  6 active torsions:
REMARK  status: ('A' for Active; 'I' for Inactive)
REMARK    1  A    between atoms: C1_2  and  C2_3 
REMARK    2  A    between atoms: C3_4  and  C4_5 
REMARK    3  A    between atoms: C4_5  and  O1_6 
REMARK    4  A    between atoms: O1_6  and  C5_7 
REMARK    5  A    between atoms: C9_11  and  C10_12 
REMARK    6  A    between atoms: C11_13  and  C12_14 
ROOT
HETATM    1  C5  UNL     1      32.340   6.174  47.965  1.00  0.00     0.060 C 
HETATM    2  C6  UNL     1      31.694   6.829  46.985  1.00  0.00     0.013 C 
HETATM    3  C7  UNL     1      30.455   7.610  47.335  1.00  0.00     0.086 C 
HETATM    4  C8  UNL     1      29.637   6.633  48.142  1.00  0.00     0.017 C 
HETATM    5  C9  UNL     1      28.386   6.418  47.774  1.00  0.00     0.089 C 
HETATM    6  N1  UNL     1      30.299   6.026  49.240  1.00  0.00    -0.386 N 
HETATM    7  C18 UNL     1      31.739   6.295  49.341  1.00  0.00     0.183 C 
HETATM    8  H16 UNL     1      29.712   5.445  49.876  1.00  0.00     0.159 HD
ENDROOT
BRANCH   5   9
HETATM    9  C10 UNL     1      27.568   5.496  48.512  1.00  0.00    -0.071 C 
HETATM   10  C11 UNL     1      26.877   4.706  49.117  1.00  0.00    -0.062 C 
BRANCH  10  11
HETATM   11  C12 UNL     1      26.048   3.770  49.830  1.00  0.00     0.018 A 
HETATM   12  C13 UNL     1      26.614   2.958  50.788  1.00  0.00     0.020 A 
HETATM   13  C14 UNL     1      25.857   2.045  51.495  1.00  0.00     0.001 A 
HETATM   14  C15 UNL     1      24.500   2.017  51.165  1.00  0.00     0.000 A 
HETATM   15  C16 UNL     1      23.899   2.816  50.211  1.00  0.00     0.001 A 
HETATM   16  C17 UNL     1      24.708   3.722  49.522  1.00  0.00     0.020 A 
ENDBRANCH  10  11
ENDBRANCH   5   9
BRANCH   1  17
HETATM   17  O1  UNL     1      33.459   5.520  47.416  1.00  0.00    -0.350 OA
BRANCH  17  18
HETATM   18  C4  UNL     1      33.318   4.715  46.282  1.00  0.00     0.202 C 
BRANCH  18  19
HETATM   19  C3  UNL     1      33.309   3.297  46.769  1.00  0.00    -0.002 C 
HETATM   20  C2  UNL     1      32.312   2.429  46.539  1.00  0.00     0.002 C 
BRANCH  20  21
HETATM   21  C1  UNL     1      32.360   1.016  47.053  1.00  0.00     0.249 C 
HETATM   22  F1  UNL     1      31.596   0.214  46.245  1.00  0.00    -0.251 F 
ENDBRANCH  20  21
ENDBRANCH  18  19
ENDBRANCH  17  18
ENDBRANCH   1  17
TORSDOF 6
ENDMDL
MODEL 4
REMARK VINA RESULT:      -6.9      5.313      7.112
REMARK  6 active torsions:
REMARK  status: ('A' for Active; 'I' for Inactive)
REMARK    1  A    between atoms: C1_2  and  C2_3 
REMARK    2  A    between atoms: C3_4  and  C4_5 
REMARK    3  A    between atoms: C4_5  and  O1_6 
REMARK    4  A    between atoms: O1_6  and  C5_7 
REMARK    5  A    between atoms: C9_11  and  C10_12 
REMARK    6  A    between atoms: C11_13  and  C12_14 
ROOT
HETATM    1  C5  UNL     1      25.905   1.794  53.091  1.00  0.00     0.060 C 
HETATM    2  C6  UNL     1      24.693   2.375  53.066  1.00  0.00     0.013 C 
HETATM    3  C7  UNL     1      24.047   2.636  51.731  1.00  0.00     0.086 C 
HETATM    4  C8  UNL     1      25.134   3.317  50.938  1.00  0.00     0.017 C 
HETATM    5  C9  UNL     1      24.852   4.472  50.362  1.00  0.00     0.089 C 
HETATM    6  N1  UNL     1      26.379   2.641  50.883  1.00  0.00    -0.386 N 
HETATM    7  C18 UNL     1      26.499   1.459  51.748  1.00  0.00     0.183 C 
HETATM    8  H16 UNL     1      27.099   3.036  50.241  1.00  0.00     0.159 HD
ENDROOT
BRANCH   5   9
HETATM    9  C10 UNL     1      25.855   5.158  49.596  1.00  0.00    -0.071 C 
HETATM   10  C11 UNL     1      26.687   5.741  48.936  1.00  0.00    -0.062 C 
BRANCH  10  11
HETATM   11  C12 UNL     1      27.676   6.427  48.145  1.00  0.00     0.018 A 
HETATM   12  C13 UNL     1      27.308   7.538  47.418  1.00  0.00     0.020 A 
HETATM   13  C14 UNL     1      28.222   8.225  46.645  1.00  0.00     0.001 A 
HETATM   14  C15 UNL     1      29.521   7.711  46.664  1.00  0.00     0.000 A 
HETATM   15  C16 UNL     1      29.924   6.601  47.381  1.00  0.00     0.001 A 
HETATM   16  C17 UNL     1      28.962   5.940  48.146  1.00  0.00     0.020 A 
ENDBRANCH  10  11
ENDBRANCH   5   9
BRANCH   1  17
HETATM   17  O1  UNL     1      26.312   1.646  54.429  1.00  0.00    -0.350 OA
BRANCH  17  18
HETATM   18  C4  UNL     1      26.620   0.381  54.936  1.00  0.00     0.202 C 
BRANCH  18  19
HETATM   19  C3  UNL     1      28.101   0.209  54.776  1.00  0.00    -0.002 C 
HETATM   20  C2  UNL     1      28.673  -0.530  53.815  1.00  0.00     0.002 C 
BRANCH  20  21
HETATM   21  C1  UNL     1      30.168  -0.665  53.704  1.00  0.00     0.249 C 
HETATM   22  F1  UNL     1      30.537  -1.932  54.073  1.00  0.00    -0.251 F 
ENDBRANCH  20  21
ENDBRANCH  18  19
ENDBRANCH  17  18
ENDBRANCH   1  17
TORSDOF 6
ENDMDL
MODEL 5
REMARK VINA RESULT:      -6.7      3.839      8.614
REMARK  6 active torsions:
REMARK  status: ('A' for Active; 'I' for Inactive)
REMARK    1  A    between atoms: C1_2  and  C2_3 
REMARK    2  A    between atoms: C3_4  and  C4_5 
REMARK    3  A    between atoms: C4_5  and  O1_6 
REMARK    4  A    between atoms: O1_6  and  C5_7 
REMARK    5  A    between atoms: C9_11  and  C10_12 
REMARK    6  A    between atoms: C11_13  and  C12_14 
ROOT
HETATM    1  C5  UNL     1      22.869  -0.533  53.753  1.00  0.00     0.060 C 
HETATM    2  C6  UNL     1      22.383   0.486  53.023  1.00  0.00     0.013 C 
HETATM    3  C7  UNL     1      21.043   1.063  53.392  1.00  0.00     0.086 C 
HETATM    4  C8  UNL     1      20.157  -0.151  53.523  1.00  0.00     0.017 C 
HETATM    5  C9  UNL     1      19.026  -0.171  52.842  1.00  0.00     0.089 C 
HETATM    6  N1  UNL     1      20.631  -1.176  54.381  1.00  0.00    -0.386 N 
HETATM    7  C18 UNL     1      21.997  -0.997  54.891  1.00  0.00     0.183 C 
HETATM    8  H16 UNL     1      19.976  -1.962  54.577  1.00  0.00     0.159 HD
ENDROOT
BRANCH   5   9
HETATM    9  C10 UNL     1      18.150  -1.306  52.934  1.00  0.00    -0.071 C 
HETATM   10  C11 UNL     1      17.410  -2.260  53.032  1.00  0.00    -0.062 C 
BRANCH  10  11
HETATM   11  C12 UNL     1      16.537  -3.398  53.153  1.00  0.00     0.018 A 
HETATM   12  C13 UNL     1      16.893  -4.438  53.984  1.00  0.00     0.020 A 
HETATM   13  C14 UNL     1      16.088  -5.549  54.130  1.00  0.00     0.001 A 
HETATM   14  C15 UNL     1      14.908  -5.529  53.382  1.00  0.00     0.000 A 
HETATM   15  C16 UNL     1      14.520  -4.505  52.540  1.00  0.00     0.001 A 
HETATM   16  C17 UNL     1      15.369  -3.403  52.426  1.00  0.00     0.020 A 
ENDBRANCH  10  11
ENDBRANCH   5   9
BRANCH   1  17
HETATM   17  O1  UNL     1      24.121  -0.909  53.235  1.00  0.00    -0.350 OA
BRANCH  17  18
HETATM   18  C4  UNL     1      25.063   0.064  52.891  1.00  0.00     0.202 C 
BRANCH  18  19
HETATM   19  C3  UNL     1      26.370  -0.651  52.723  1.00  0.00    -0.002 C 
HETATM   20  C2  UNL     1      27.450  -0.433  53.487  1.00  0.00     0.002 C 
BRANCH  20  21
HETATM   21  C1  UNL     1      28.736  -1.183  53.271  1.00  0.00     0.249 C 
HETATM   22  F1  UNL     1      29.790  -0.310  53.349  1.00  0.00    -0.251 F 
ENDBRANCH  20  21
ENDBRANCH  18  19
ENDBRANCH  17  18
ENDBRANCH   1  17
TORSDOF 6
ENDMDL
MODEL 6
REMARK VINA RESULT:      -6.6      4.663      5.865
REMARK  6 active torsions:
REMARK  status: ('A' for Active; 'I' for Inactive)
REMARK    1  A    between atoms: C1_2  and  C2_3 
REMARK    2  A    between atoms: C3_4  and  C4_5 
REMARK    3  A    between atoms: C4_5  and  O1_6 
REMARK    4  A    between atoms: O1_6  and  C5_7 
REMARK    5  A    between atoms: C9_11  and  C10_12 
REMARK    6  A    between atoms: C11_13  and  C12_14 
ROOT
HETATM    1  C5  UNL     1      22.800   2.516  51.992  1.00  0.00     0.060 C 
HETATM    2  C6  UNL     1      23.514   1.414  51.706  1.00  0.00     0.013 C 
HETATM    3  C7  UNL     1      25.007   1.451  51.901  1.00  0.00     0.086 C 
HETATM    4  C8  UNL     1      25.424   2.722  51.202  1.00  0.00     0.017 C 
HETATM    5  C9  UNL     1      26.384   2.647  50.298  1.00  0.00     0.089 C 
HETATM    6  N1  UNL     1      24.734   3.899  51.590  1.00  0.00    -0.386 N 
HETATM    7  C18 UNL     1      23.590   3.698  52.490  1.00  0.00     0.183 C 
HETATM    8  H16 UNL     1      25.094   4.799  51.208  1.00  0.00     0.159 HD
ENDROOT
BRANCH   5   9
HETATM    9  C10 UNL     1      26.814   3.830  49.606  1.00  0.00    -0.071 C 
HETATM   10  C11 UNL     1      27.166   4.822  49.006  1.00  0.00    -0.062 C 
BRANCH  10  11
HETATM   11  C12 UNL     1      27.591   5.995  48.287  1.00  0.00     0.018 A 
HETATM   12  C13 UNL     1      28.916   6.128  47.931  1.00  0.00     0.020 A 
HETATM   13  C14 UNL     1      29.366   7.235  47.243  1.00  0.00     0.001 A 
HETATM   14  C15 UNL     1      28.389   8.187  46.943  1.00  0.00     0.000 A 
HETATM   15  C16 UNL     1      27.053   8.086  47.283  1.00  0.00     0.001 A 
HETATM   16  C17 UNL     1      26.647   6.947  47.980  1.00  0.00     0.020 A 
ENDBRANCH  10  11
ENDBRANCH   5   9
BRANCH   1  17
HETATM   17  O1  UNL     1      21.440   2.257  51.739  1.00  0.00    -0.350 OA
BRANCH  17  18
HETATM   18  C4  UNL     1      20.545   2.094  52.800  1.00  0.00     0.202 C 
BRANCH  18  19
HETATM   19  C3  UNL     1      20.475   0.621  53.073  1.00  0.00    -0.002 C 
HETATM   20  C2  UNL     1      20.988   0.033  54.164  1.00  0.00     0.002 C 
BRANCH  20  21
HETATM   21  C1  UNL     1      20.886  -1.452  54.383  1.00  0.00     0.249 C 
HETATM   22  F1  UNL     1      22.136  -1.963  54.616  1.00  0.00    -0.251 F 
ENDBRANCH  20  21
ENDBRANCH  18  19
ENDBRANCH  17  18
ENDBRANCH   1  17
TORSDOF 6
ENDMDL
MODEL 7
REMARK VINA RESULT:      -6.5      5.539      7.235
REMARK  6 active torsions:
REMARK  status: ('A' for Active; 'I' for Inactive)
REMARK    1  A    between atoms: C1_2  and  C2_3 
REMARK    2  A    between atoms: C3_4  and  C4_5 
REMARK    3  A    between atoms: C4_5  and  O1_6 
REMARK    4  A    between atoms: O1_6  and  C5_7 
REMARK    5  A    between atoms: C9_11  and  C10_12 
REMARK    6  A    between atoms: C11_13  and  C12_14 
ROOT
HETATM    1  C5  UNL     1      25.303   7.328  49.207  1.00  0.00     0.060 C 
HETATM    2  C6  UNL     1      24.787   6.502  48.280  1.00  0.00     0.013 C 
HETATM    3  C7  UNL     1      23.967   5.325  48.739  1.00  0.00     0.086 C 
HETATM    4  C8  UNL     1      24.826   4.687  49.802  1.00  0.00     0.017 C 
HETATM    5  C9  UNL     1      25.090   3.397  49.696  1.00  0.00     0.089 C 
HETATM    6  N1  UNL     1      25.278   5.548  50.835  1.00  0.00    -0.386 N 
HETATM    7  C18 UNL     1      24.996   6.977  50.640  1.00  0.00     0.183 C 
HETATM    8  H16 UNL     1      25.767   5.099  51.638  1.00  0.00     0.159 HD
ENDROOT
BRANCH   5   9
HETATM    9  C10 UNL     1      25.904   2.746  50.685  1.00  0.00    -0.071 C 
HETATM   10  C11 UNL     1      26.593   2.181  51.505  1.00  0.00    -0.062 C 
BRANCH  10  11
HETATM   11  C12 UNL     1      27.404   1.502  52.482  1.00  0.00     0.018 A 
HETATM   12  C13 UNL     1      28.275   2.230  53.262  1.00  0.00     0.020 A 
HETATM   13  C14 UNL     1      29.072   1.621  54.209  1.00  0.00     0.001 A 
HETATM   14  C15 UNL     1      28.924   0.235  54.308  1.00  0.00     0.000 A 
HETATM   15  C16 UNL     1      28.061  -0.526  53.543  1.00  0.00     0.001 A 
HETATM   16  C17 UNL     1      27.277   0.137  52.598  1.00  0.00     0.020 A 
ENDBRANCH  10  11
ENDBRANCH   5   9
BRANCH   1  17
HETATM   17  O1  UNL     1      26.024   8.347  48.559  1.00  0.00    -0.350 OA
BRANCH  17  18
HETATM   18  C4  UNL     1      26.924   8.032  47.538  1.00  0.00     0.202 C 
BRANCH  18  19
HETATM   19  C3  UNL     1      28.115   7.407  48.202  1.00  0.00    -0.002 C 
HETATM   20  C2  UNL     1      28.901   6.487  47.624  1.00  0.00     0.002 C 
BRANCH  20  21
HETATM   21  C1  UNL     1      30.085   5.896  48.340  1.00  0.00     0.249 C 
HETATM   22  F1  UNL     1      30.395   4.684  47.780  1.00  0.00    -0.251 F 
ENDBRANCH  20  21
ENDBRANCH  18  19
ENDBRANCH  17  18
ENDBRANCH   1  17
TORSDOF 6
ENDMDL
MODEL 8
REMARK VINA RESULT:      -6.5      2.646      7.370
REMARK  6 active torsions:
REMARK  status: ('A' for Active; 'I' for Inactive)
REMARK    1  A    between atoms: C1_2  and  C2_3 
REMARK    2  A    between atoms: C3_4  and  C4_5 
REMARK    3  A    between atoms: C4_5  and  O1_6 
REMARK    4  A    between atoms: O1_6  and  C5_7 
REMARK    5  A    between atoms: C9_11  and  C10_12 
REMARK    6  A    between atoms: C11_13  and  C12_14 
ROOT
HETATM    1  C5  UNL     1      25.502   2.480  53.141  1.00  0.00     0.060 C 
HETATM    2  C6  UNL     1      25.794   2.257  51.848  1.00  0.00     0.013 C 
HETATM    3  C7  UNL     1      24.812   2.708  50.800  1.00  0.00     0.086 C 
HETATM    4  C8  UNL     1      23.493   2.167  51.293  1.00  0.00     0.017 C 
HETATM    5  C9  UNL     1      22.770   1.439  50.461  1.00  0.00     0.089 C 
HETATM    6  N1  UNL     1      23.146   2.498  52.628  1.00  0.00    -0.386 N 
HETATM    7  C18 UNL     1      24.192   3.173  53.407  1.00  0.00     0.183 C 
HETATM    8  H16 UNL     1      22.187   2.235  52.940  1.00  0.00     0.159 HD
ENDROOT
BRANCH   5   9
HETATM    9  C10 UNL     1      21.508   0.901  50.886  1.00  0.00    -0.071 C 
HETATM   10  C11 UNL     1      20.434   0.464  51.237  1.00  0.00    -0.062 C 
BRANCH  10  11
HETATM   11  C12 UNL     1      19.156  -0.047  51.661  1.00  0.00     0.018 A 
HETATM   12  C13 UNL     1      19.052  -0.678  52.881  1.00  0.00     0.020 A 
HETATM   13  C14 UNL     1      17.848  -1.184  53.327  1.00  0.00     0.001 A 
HETATM   14  C15 UNL     1      16.770  -1.006  52.456  1.00  0.00     0.000 A 
HETATM   15  C16 UNL     1      16.839  -0.380  51.227  1.00  0.00     0.001 A 
HETATM   16  C17 UNL     1      18.079   0.115  50.821  1.00  0.00     0.020 A 
ENDBRANCH  10  11
ENDBRANCH   5   9
BRANCH   1  17
HETATM   17  O1  UNL     1      26.550   1.982  53.937  1.00  0.00    -0.350 OA
BRANCH  17  18
HETATM   18  C4  UNL     1      26.475   0.694  54.475  1.00  0.00     0.202 C 
BRANCH  18  19
HETATM   19  C3  UNL     1      27.615  -0.079  53.880  1.00  0.00    -0.002 C 
HETATM   20  C2  UNL     1      28.859  -0.089  54.381  1.00  0.00     0.002 C 
BRANCH  20  21
HETATM   21  C1  UNL     1      29.963  -0.886  53.740  1.00  0.00     0.249 C 
HETATM   22  F1  UNL     1      29.419  -1.929  53.037  1.00  0.00    -0.251 F 
ENDBRANCH  20  21
ENDBRANCH  18  19
ENDBRANCH  17  18
ENDBRANCH   1  17
TORSDOF 6
ENDMDL
MODEL 9
REMARK VINA RESULT:      -6.3      8.973     11.681
REMARK  6 active torsions:
REMARK  status: ('A' for Active; 'I' for Inactive)
REMARK    1  A    between atoms: C1_2  and  C2_3 
REMARK    2  A    between atoms: C3_4  and  C4_5 
REMARK    3  A    between atoms: C4_5  and  O1_6 
REMARK    4  A    between atoms: O1_6  and  C5_7 
REMARK    5  A    between atoms: C9_11  and  C10_12 
REMARK    6  A    between atoms: C11_13  and  C12_14 
ROOT
HETATM    1  C5  UNL     1      32.582   8.303  48.392  1.00  0.00     0.060 C 
HETATM    2  C6  UNL     1      32.045   9.033  47.399  1.00  0.00     0.013 C 
HETATM    3  C7  UNL     1      30.702   9.676  47.622  1.00  0.00     0.086 C 
HETATM    4  C8  UNL     1      29.855   8.550  48.161  1.00  0.00     0.017 C 
HETATM    5  C9  UNL     1      28.703   8.299  47.565  1.00  0.00     0.089 C 
HETATM    6  N1  UNL     1      30.385   7.854  49.278  1.00  0.00    -0.386 N 
HETATM    7  C18 UNL     1      31.761   8.205  49.651  1.00  0.00     0.183 C 
HETATM    8  H16 UNL     1      29.758   7.158  49.735  1.00  0.00     0.159 HD
ENDROOT
BRANCH   5   9
HETATM    9  C10 UNL     1      27.862   7.237  48.043  1.00  0.00    -0.071 C 
HETATM   10  C11 UNL     1      27.170   6.328  48.447  1.00  0.00    -0.062 C 
BRANCH  10  11
HETATM   11  C12 UNL     1      26.349   5.244  48.919  1.00  0.00     0.018 A 
HETATM   12  C13 UNL     1      26.944   4.059  49.294  1.00  0.00     0.020 A 
HETATM   13  C14 UNL     1      26.195   2.993  49.750  1.00  0.00     0.001 A 
HETATM   14  C15 UNL     1      24.817   3.213  49.800  1.00  0.00     0.000 A 
HETATM   15  C16 UNL     1      24.188   4.387  49.432  1.00  0.00     0.001 A 
HETATM   16  C17 UNL     1      24.989   5.436  48.976  1.00  0.00     0.020 A 
ENDBRANCH  10  11
ENDBRANCH   5   9
BRANCH   1  17
HETATM   17  O1  UNL     1      33.827   7.803  47.968  1.00  0.00    -0.350 OA
BRANCH  17  18
HETATM   18  C4  UNL     1      34.503   6.853  48.738  1.00  0.00     0.202 C 
BRANCH  18  19
HETATM   19  C3  UNL     1      34.156   5.513  48.159  1.00  0.00    -0.002 C 
HETATM   20  C2  UNL     1      34.976   4.453  48.174  1.00  0.00     0.002 C 
BRANCH  20  21
HETATM   21  C1  UNL     1      34.572   3.132  47.576  1.00  0.00     0.249 C 
HETATM   22  F1  UNL     1      35.174   2.984  46.354  1.00  0.00    -0.251 F 
ENDBRANCH  20  21
ENDBRANCH  18  19
ENDBRANCH  17  18
ENDBRANCH   1  17
TORSDOF 6
ENDMDL
