MODEL 1
REMARK VINA RESULT:      -7.7      0.000      0.000
REMARK  3 active torsions:
REMARK  status: ('A' for Active; 'I' for Inactive)
REMARK    1  A    between atoms: C2_2  and  C3_3 
REMARK    2  A    between atoms: C5_5  and  N1_7 
REMARK    3  A    between atoms: N1_7  and  C6_8 
ROOT
HETATM    1  C6  UNL     1      22.669   2.489  50.488  1.00  0.00     0.112 C 
HETATM    2  C7  UNL     1      22.726   3.735  50.058  1.00  0.00     0.042 C 
HETATM    3  C8  UNL     1      23.994   4.461  50.574  1.00  0.00     0.104 C 
HETATM    4  C9  UNL     1      23.369   5.000  51.865  1.00  0.00     0.010 C 
HETATM    5  C10 UNL     1      23.454   3.946  52.627  1.00  0.00     0.096 C 
HETATM    6  N2  UNL     1      23.112   2.671  51.901  1.00  0.00    -0.304 N 
HETATM    7  C11 UNL     1      23.982   1.572  52.414  1.00  0.00     0.107 C 
HETATM    8  C12 UNL     1      25.272   1.944  51.735  1.00  0.00     0.124 C 
HETATM    9  N3  UNL     1      26.536   1.429  51.686  1.00  0.00    -0.243 NA
HETATM   10  C13 UNL     1      26.951   0.171  51.898  1.00  0.00     0.185 C 
HETATM   11  S1  UNL     1      26.426  -1.031  53.026  1.00  0.00    -0.007 SA
HETATM   12  N4  UNL     1      24.978  -1.151  53.876  1.00  0.00    -0.323 N 
HETATM   13  C14 UNL     1      23.834  -0.472  53.851  1.00  0.00     0.069 A 
HETATM   14  C15 UNL     1      22.816  -1.016  54.590  1.00  0.00     0.034 A 
HETATM   15  C16 UNL     1      21.582  -0.440  54.660  1.00  0.00     0.022 A 
HETATM   16  C17 UNL     1      21.244   0.729  54.001  1.00  0.00     0.117 A 
HETATM   17  N5  UNL     1      22.236   1.254  53.283  1.00  0.00    -0.256 NA
HETATM   18  C18 UNL     1      23.465   0.657  53.230  1.00  0.00     0.113 A 
HETATM   19  S2  UNL     1      25.410   3.425  50.647  1.00  0.00    -0.095 SA
HETATM   20  H12 UNL     1      24.864  -1.892  54.598  1.00  0.00     0.174 HD
ENDROOT
BRANCH   1  21
HETATM   21  N1  UNL     1      22.133   1.762  49.373  1.00  0.00    -0.317 N 
HETATM   22  H6  UNL     1      22.723   1.476  48.601  1.00  0.00     0.170 HD
BRANCH  21  23
HETATM   23  C5  UNL     1      20.768   1.482  49.478  1.00  0.00     0.174 A 
HETATM   24  C4  UNL     1      20.304   0.554  50.533  1.00  0.00     0.052 A 
HETATM   25  C3  UNL     1      19.172   0.865  49.957  1.00  0.00     0.104 A 
HETATM   26  O1  UNL     1      19.900   1.994  48.700  1.00  0.00    -0.278 OA
BRANCH  25  27
HETATM   27  C2  UNL     1      17.792   0.515  50.147  1.00  0.00     0.007 C 
HETATM   28  C1  UNL     1      17.825  -0.242  51.265  1.00  0.00     0.006 C 
ENDBRANCH  25  27
ENDBRANCH  21  23
ENDBRANCH   1  21
TORSDOF 3
ENDMDL
MODEL 2
REMARK VINA RESULT:      -7.5      8.571     11.172
REMARK  3 active torsions:
REMARK  status: ('A' for Active; 'I' for Inactive)
REMARK    1  A    between atoms: C2_2  and  C3_3 
REMARK    2  A    between atoms: C5_5  and  N1_7 
REMARK    3  A    between atoms: N1_7  and  C6_8 
ROOT
HETATM    1  C6  UNL     1      29.911   7.374  47.965  1.00  0.00     0.112 C 
HETATM    2  C7  UNL     1      29.742   8.262  48.927  1.00  0.00     0.042 C 
HETATM    3  C8  UNL     1      30.789   9.402  48.842  1.00  0.00     0.104 C 
HETATM    4  C9  UNL     1      31.842   8.732  49.730  1.00  0.00     0.010 C 
HETATM    5  C10 UNL     1      32.399   7.926  48.870  1.00  0.00     0.096 C 
HETATM    6  N2  UNL     1      31.398   7.257  47.964  1.00  0.00    -0.304 N 
HETATM    7  C11 UNL     1      31.997   7.107  46.605  1.00  0.00     0.107 C 
HETATM    8  C12 UNL     1      31.894   8.532  46.134  1.00  0.00     0.124 C 
HETATM    9  N3  UNL     1      32.213   9.210  44.992  1.00  0.00    -0.243 NA
HETATM   10  C13 UNL     1      32.347   8.751  43.739  1.00  0.00     0.185 C 
HETATM   11  S1  UNL     1      32.998   7.270  43.128  1.00  0.00    -0.007 SA
HETATM   12  N4  UNL     1      33.244   5.799  43.908  1.00  0.00    -0.323 N 
HETATM   13  C14 UNL     1      32.926   5.327  45.110  1.00  0.00     0.069 A 
HETATM   14  C15 UNL     1      33.154   3.988  45.291  1.00  0.00     0.034 A 
HETATM   15  C16 UNL     1      32.874   3.356  46.467  1.00  0.00     0.022 A 
HETATM   16  C17 UNL     1      32.342   3.997  47.573  1.00  0.00     0.117 A 
HETATM   17  N5  UNL     1      32.122   5.298  47.393  1.00  0.00    -0.256 NA
HETATM   18  C18 UNL     1      32.411   5.908  46.203  1.00  0.00     0.113 A 
HETATM   19  S2  UNL     1      31.188   9.862  47.196  1.00  0.00    -0.095 SA
HETATM   20  H12 UNL     1      33.745   5.031  43.414  1.00  0.00     0.174 HD
ENDROOT
BRANCH   1  21
HETATM   21  N1  UNL     1      28.574   7.010  47.592  1.00  0.00    -0.317 N 
HETATM   22  H6  UNL     1      28.041   7.568  46.935  1.00  0.00     0.170 HD
BRANCH  21  23
HETATM   23  C5  UNL     1      28.115   5.834  48.190  1.00  0.00     0.174 A 
HETATM   24  C4  UNL     1      26.710   5.762  48.650  1.00  0.00     0.052 A 
HETATM   25  C3  UNL     1      27.142   4.571  48.977  1.00  0.00     0.104 A 
HETATM   26  O1  UNL     1      28.858   4.814  48.358  1.00  0.00    -0.278 OA
BRANCH  25  27
HETATM   27  C2  UNL     1      26.576   3.408  49.600  1.00  0.00     0.007 C 
HETATM   28  C1  UNL     1      25.261   3.710  49.661  1.00  0.00     0.006 C 
ENDBRANCH  25  27
ENDBRANCH  21  23
ENDBRANCH   1  21
TORSDOF 3
ENDMDL
MODEL 3
REMARK VINA RESULT:      -7.3      2.737      5.277
REMARK  3 active torsions:
REMARK  status: ('A' for Active; 'I' for Inactive)
REMARK    1  A    between atoms: C2_2  and  C3_3 
REMARK    2  A    between atoms: C5_5  and  N1_7 
REMARK    3  A    between atoms: N1_7  and  C6_8 
ROOT
HETATM    1  C6  UNL     1      21.398   3.384  50.775  1.00  0.00     0.112 C 
HETATM    2  C7  UNL     1      20.745   3.665  49.663  1.00  0.00     0.042 C 
HETATM    3  C8  UNL     1      19.975   2.432  49.125  1.00  0.00     0.104 C 
HETATM    4  C9  UNL     1      21.110   1.891  48.250  1.00  0.00     0.010 C 
HETATM    5  C10 UNL     1      21.823   1.268  49.145  1.00  0.00     0.096 C 
HETATM    6  N2  UNL     1      21.942   2.037  50.435  1.00  0.00    -0.304 N 
HETATM    7  C11 UNL     1      21.945   1.074  51.576  1.00  0.00     0.107 C 
HETATM    8  C12 UNL     1      20.484   0.717  51.597  1.00  0.00     0.124 C 
HETATM    9  N3  UNL     1      19.685  -0.092  52.355  1.00  0.00    -0.243 NA
HETATM   10  C13 UNL     1      19.863  -0.526  53.612  1.00  0.00     0.185 C 
HETATM   11  S1  UNL     1      21.288  -1.012  54.463  1.00  0.00    -0.007 SA
HETATM   12  N4  UNL     1      22.904  -0.676  54.137  1.00  0.00    -0.323 N 
HETATM   13  C14 UNL     1      23.525   0.107  53.259  1.00  0.00     0.069 A 
HETATM   14  C15 UNL     1      24.876   0.239  53.446  1.00  0.00     0.034 A 
HETATM   15  C16 UNL     1      25.651   1.012  52.632  1.00  0.00     0.022 A 
HETATM   16  C17 UNL     1      25.154   1.727  51.556  1.00  0.00     0.117 A 
HETATM   17  N5  UNL     1      23.841   1.597  51.377  1.00  0.00    -0.256 NA
HETATM   18  C18 UNL     1      23.086   0.815  52.208  1.00  0.00     0.113 A 
HETATM   19  S2  UNL     1      19.286   1.432  50.393  1.00  0.00    -0.095 SA
HETATM   20  H12 UNL     1      23.650  -1.136  54.699  1.00  0.00     0.174 HD
ENDROOT
BRANCH   1  21
HETATM   21  N1  UNL     1      21.258   4.572  51.567  1.00  0.00    -0.317 N 
HETATM   22  H6  UNL     1      20.530   4.654  52.267  1.00  0.00     0.170 HD
BRANCH  21  23
HETATM   23  C5  UNL     1      22.215   5.554  51.297  1.00  0.00     0.174 A 
HETATM   24  C4  UNL     1      21.766   6.898  50.871  1.00  0.00     0.052 A 
HETATM   25  C3  UNL     1      23.064   7.055  50.868  1.00  0.00     0.104 A 
HETATM   26  O1  UNL     1      23.466   5.341  51.404  1.00  0.00    -0.278 OA
BRANCH  25  27
HETATM   27  C2  UNL     1      23.969   8.130  50.570  1.00  0.00     0.007 C 
HETATM   28  C1  UNL     1      23.568   8.527  49.343  1.00  0.00     0.006 C 
ENDBRANCH  25  27
ENDBRANCH  21  23
ENDBRANCH   1  21
TORSDOF 3
ENDMDL
MODEL 4
REMARK VINA RESULT:      -7.3      2.741      5.657
REMARK  3 active torsions:
REMARK  status: ('A' for Active; 'I' for Inactive)
REMARK    1  A    between atoms: C2_2  and  C3_3 
REMARK    2  A    between atoms: C5_5  and  N1_7 
REMARK    3  A    between atoms: N1_7  and  C6_8 
ROOT
HETATM    1  C6  UNL     1      22.315   1.455  50.329  1.00  0.00     0.112 C 
HETATM    2  C7  UNL     1      21.742   0.620  51.174  1.00  0.00     0.042 C 
HETATM    3  C8  UNL     1      21.350   1.324  52.498  1.00  0.00     0.104 C 
HETATM    4  C9  UNL     1      22.671   1.059  53.228  1.00  0.00     0.010 C 
HETATM    5  C10 UNL     1      23.408   2.016  52.738  1.00  0.00     0.096 C 
HETATM    6  N2  UNL     1      23.198   2.217  51.260  1.00  0.00    -0.304 N 
HETATM    7  C11 UNL     1      23.303   3.673  50.948  1.00  0.00     0.107 C 
HETATM    8  C12 UNL     1      21.976   4.134  51.486  1.00  0.00     0.124 C 
HETATM    9  N3  UNL     1      21.313   5.326  51.566  1.00  0.00    -0.243 NA
HETATM   10  C13 UNL     1      21.448   6.427  50.810  1.00  0.00     0.185 C 
HETATM   11  S1  UNL     1      22.845   7.167  50.108  1.00  0.00    -0.007 SA
HETATM   12  N4  UNL     1      24.361   6.513  49.782  1.00  0.00    -0.323 N 
HETATM   13  C14 UNL     1      24.871   5.286  49.851  1.00  0.00     0.069 A 
HETATM   14  C15 UNL     1      26.123   5.143  49.313  1.00  0.00     0.034 A 
HETATM   15  C16 UNL     1      26.777   3.946  49.302  1.00  0.00     0.022 A 
HETATM   16  C17 UNL     1      26.247   2.780  49.827  1.00  0.00     0.117 A 
HETATM   17  N5  UNL     1      25.030   2.923  50.349  1.00  0.00    -0.256 NA
HETATM   18  C18 UNL     1      24.396   4.134  50.347  1.00  0.00     0.113 A 
HETATM   19  S2  UNL     1      20.783   2.969  52.272  1.00  0.00    -0.095 SA
HETATM   20  H12 UNL     1      25.128   7.131  49.446  1.00  0.00     0.174 HD
ENDROOT
BRANCH   1  21
HETATM   21  N1  UNL     1      21.811   1.053  49.048  1.00  0.00    -0.317 N 
HETATM   22  H6  UNL     1      21.658   0.075  48.827  1.00  0.00     0.170 HD
BRANCH  21  23
HETATM   23  C5  UNL     1      21.539   2.115  48.182  1.00  0.00     0.174 A 
HETATM   24  C4  UNL     1      22.655   2.738  47.437  1.00  0.00     0.052 A 
HETATM   25  C3  UNL     1      21.642   3.446  47.009  1.00  0.00     0.104 A 
HETATM   26  O1  UNL     1      20.364   2.572  48.004  1.00  0.00    -0.278 OA
BRANCH  25  27
HETATM   27  C2  UNL     1      21.465   4.540  46.096  1.00  0.00     0.007 C 
HETATM   28  C1  UNL     1      21.407   3.922  44.896  1.00  0.00     0.006 C 
ENDBRANCH  25  27
ENDBRANCH  21  23
ENDBRANCH   1  21
TORSDOF 3
ENDMDL
MODEL 5
REMARK VINA RESULT:      -7.0      1.081      1.213
REMARK  3 active torsions:
REMARK  status: ('A' for Active; 'I' for Inactive)
REMARK    1  A    between atoms: C2_2  and  C3_3 
REMARK    2  A    between atoms: C5_5  and  N1_7 
REMARK    3  A    between atoms: N1_7  and  C6_8 
ROOT
HETATM    1  C6  UNL     1      22.945   2.888  49.998  1.00  0.00     0.112 C 
HETATM    2  C7  UNL     1      23.167   4.115  49.568  1.00  0.00     0.042 C 
HETATM    3  C8  UNL     1      24.421   4.737  50.233  1.00  0.00     0.104 C 
HETATM    4  C9  UNL     1      23.690   5.355  51.430  1.00  0.00     0.010 C 
HETATM    5  C10 UNL     1      23.584   4.313  52.206  1.00  0.00     0.096 C 
HETATM    6  N2  UNL     1      23.222   3.059  51.454  1.00  0.00    -0.304 N 
HETATM    7  C11 UNL     1      23.920   1.898  52.083  1.00  0.00     0.107 C 
HETATM    8  C12 UNL     1      25.312   2.141  51.569  1.00  0.00     0.124 C 
HETATM    9  N3  UNL     1      26.521   1.516  51.684  1.00  0.00    -0.243 NA
HETATM   10  C13 UNL     1      26.791   0.230  51.958  1.00  0.00     0.185 C 
HETATM   11  S1  UNL     1      26.024  -0.898  53.021  1.00  0.00    -0.007 SA
HETATM   12  N4  UNL     1      24.476  -0.873  53.682  1.00  0.00    -0.323 N 
HETATM   13  C14 UNL     1      23.410  -0.097  53.507  1.00  0.00     0.069 A 
HETATM   14  C15 UNL     1      22.263  -0.534  54.117  1.00  0.00     0.034 A 
HETATM   15  C16 UNL     1      21.086   0.150  54.025  1.00  0.00     0.022 A 
HETATM   16  C17 UNL     1      20.940   1.331  53.318  1.00  0.00     0.117 A 
HETATM   17  N5  UNL     1      22.057   1.752  52.727  1.00  0.00    -0.256 NA
HETATM   18  C18 UNL     1      23.225   1.048  52.834  1.00  0.00     0.113 A 
HETATM   19  S2  UNL     1      25.717   3.582  50.493  1.00  0.00    -0.095 SA
HETATM   20  H12 UNL     1      24.207  -1.586  54.391  1.00  0.00     0.174 HD
ENDROOT
BRANCH   1  21
HETATM   21  N1  UNL     1      22.489   2.189  48.831  1.00  0.00    -0.317 N 
HETATM   22  H6  UNL     1      23.113   1.595  48.298  1.00  0.00     0.170 HD
BRANCH  21  23
HETATM   23  C5  UNL     1      21.138   2.389  48.537  1.00  0.00     0.174 A 
HETATM   24  C4  UNL     1      20.122   2.045  49.557  1.00  0.00     0.052 A 
HETATM   25  C3  UNL     1      19.364   2.481  48.585  1.00  0.00     0.104 A 
HETATM   26  O1  UNL     1      20.740   2.858  47.423  1.00  0.00    -0.278 OA
BRANCH  25  27
HETATM   27  C2  UNL     1      17.953   2.652  48.379  1.00  0.00     0.007 C 
HETATM   28  C1  UNL     1      17.435   2.346  49.588  1.00  0.00     0.006 C 
ENDBRANCH  25  27
ENDBRANCH  21  23
ENDBRANCH   1  21
TORSDOF 3
ENDMDL
MODEL 6
REMARK VINA RESULT:      -7.0      3.442      7.156
REMARK  3 active torsions:
REMARK  status: ('A' for Active; 'I' for Inactive)
REMARK    1  A    between atoms: C2_2  and  C3_3 
REMARK    2  A    between atoms: C5_5  and  N1_7 
REMARK    3  A    between atoms: N1_7  and  C6_8 
ROOT
HETATM    1  C6  UNL     1      25.242   3.433  50.606  1.00  0.00     0.112 C 
HETATM    2  C7  UNL     1      25.893   2.576  51.368  1.00  0.00     0.042 C 
HETATM    3  C8  UNL     1      24.930   1.770  52.277  1.00  0.00     0.104 C 
HETATM    4  C9  UNL     1      24.955   2.746  53.458  1.00  0.00     0.010 C 
HETATM    5  C10 UNL     1      24.097   3.637  53.047  1.00  0.00     0.096 C 
HETATM    6  N2  UNL     1      24.246   3.961  51.584  1.00  0.00    -0.304 N 
HETATM    7  C11 UNL     1      22.894   4.213  51.002  1.00  0.00     0.107 C 
HETATM    8  C12 UNL     1      22.392   2.797  50.927  1.00  0.00     0.124 C 
HETATM    9  N3  UNL     1      21.248   2.186  50.497  1.00  0.00    -0.243 NA
HETATM   10  C13 UNL     1      20.341   2.610  49.604  1.00  0.00     0.185 C 
HETATM   11  S1  UNL     1      19.709   4.186  49.278  1.00  0.00    -0.007 SA
HETATM   12  N4  UNL     1      20.341   5.700  49.656  1.00  0.00    -0.323 N 
HETATM   13  C14 UNL     1      21.493   6.115  50.176  1.00  0.00     0.069 A 
HETATM   14  C15 UNL     1      21.689   7.471  50.151  1.00  0.00     0.034 A 
HETATM   15  C16 UNL     1      22.823   8.050  50.642  1.00  0.00     0.022 A 
HETATM   16  C17 UNL     1      23.866   7.334  51.203  1.00  0.00     0.117 A 
HETATM   17  N5  UNL     1      23.671   6.017  51.226  1.00  0.00    -0.256 NA
HETATM   18  C18 UNL     1      22.525   5.461  50.727  1.00  0.00     0.113 A 
HETATM   19  S2  UNL     1      23.409   1.369  51.498  1.00  0.00    -0.095 SA
HETATM   20  H12 UNL     1      19.776   6.555  49.473  1.00  0.00     0.174 HD
ENDROOT
BRANCH   1  21
HETATM   21  N1  UNL     1      25.949   3.393  49.358  1.00  0.00    -0.317 N 
HETATM   22  H6  UNL     1      26.030   2.533  48.827  1.00  0.00     0.170 HD
BRANCH  21  23
HETATM   23  C5  UNL     1      26.470   4.626  48.958  1.00  0.00     0.174 A 
HETATM   24  C4  UNL     1      27.916   4.735  48.667  1.00  0.00     0.052 A 
HETATM   25  C3  UNL     1      27.521   5.959  48.432  1.00  0.00     0.104 A 
HETATM   26  O1  UNL     1      25.748   5.667  48.830  1.00  0.00    -0.278 OA
BRANCH  25  27
HETATM   27  C2  UNL     1      28.150   7.180  48.013  1.00  0.00     0.007 C 
HETATM   28  C1  UNL     1      29.413   6.788  47.738  1.00  0.00     0.006 C 
ENDBRANCH  25  27
ENDBRANCH  21  23
ENDBRANCH   1  21
TORSDOF 3
ENDMDL
MODEL 7
REMARK VINA RESULT:      -7.0      3.115      6.713
REMARK  3 active torsions:
REMARK  status: ('A' for Active; 'I' for Inactive)
REMARK    1  A    between atoms: C2_2  and  C3_3 
REMARK    2  A    between atoms: C5_5  and  N1_7 
REMARK    3  A    between atoms: N1_7  and  C6_8 
ROOT
HETATM    1  C6  UNL     1      23.875   2.166  51.464  1.00  0.00     0.112 C 
HETATM    2  C7  UNL     1      23.360   1.218  52.224  1.00  0.00     0.042 C 
HETATM    3  C8  UNL     1      21.871   0.958  51.885  1.00  0.00     0.104 C 
HETATM    4  C9  UNL     1      21.291   1.978  52.871  1.00  0.00     0.010 C 
HETATM    5  C10 UNL     1      21.433   3.077  52.185  1.00  0.00     0.096 C 
HETATM    6  N2  UNL     1      22.750   3.147  51.458  1.00  0.00    -0.304 N 
HETATM    7  C11 UNL     1      22.546   3.833  50.148  1.00  0.00     0.107 C 
HETATM    8  C12 UNL     1      21.867   2.722  49.394  1.00  0.00     0.124 C 
HETATM    9  N3  UNL     1      21.375   2.555  48.130  1.00  0.00    -0.243 NA
HETATM   10  C13 UNL     1      21.709   3.190  46.996  1.00  0.00     0.185 C 
HETATM   11  S1  UNL     1      22.133   4.840  46.693  1.00  0.00    -0.007 SA
HETATM   12  N4  UNL     1      22.681   6.024  47.755  1.00  0.00    -0.323 N 
HETATM   13  C14 UNL     1      23.043   6.020  49.036  1.00  0.00     0.069 A 
HETATM   14  C15 UNL     1      23.613   7.182  49.486  1.00  0.00     0.034 A 
HETATM   15  C16 UNL     1      24.041   7.330  50.773  1.00  0.00     0.022 A 
HETATM   16  C17 UNL     1      23.941   6.337  51.731  1.00  0.00     0.117 A 
HETATM   17  N5  UNL     1      23.387   5.209  51.290  1.00  0.00    -0.256 NA
HETATM   18  C18 UNL     1      22.966   5.086  49.995  1.00  0.00     0.113 A 
HETATM   19  S2  UNL     1      21.512   1.089  50.171  1.00  0.00    -0.095 SA
HETATM   20  H12 UNL     1      22.794   7.004  47.422  1.00  0.00     0.174 HD
ENDROOT
BRANCH   1  21
HETATM   21  N1  UNL     1      25.210   1.713  51.201  1.00  0.00    -0.317 N 
HETATM   22  H6  UNL     1      25.503   0.773  51.443  1.00  0.00     0.170 HD
BRANCH  21  23
HETATM   23  C5  UNL     1      26.023   2.662  50.576  1.00  0.00     0.174 A 
HETATM   24  C4  UNL     1      25.661   3.137  49.222  1.00  0.00     0.052 A 
HETATM   25  C3  UNL     1      26.749   3.827  49.448  1.00  0.00     0.104 A 
HETATM   26  O1  UNL     1      27.068   3.139  51.124  1.00  0.00    -0.278 OA
BRANCH  25  27
HETATM   27  C2  UNL     1      27.518   4.800  48.723  1.00  0.00     0.007 C 
HETATM   28  C1  UNL     1      26.741   5.903  48.787  1.00  0.00     0.006 C 
ENDBRANCH  25  27
ENDBRANCH  21  23
ENDBRANCH   1  21
TORSDOF 3
ENDMDL
MODEL 8
REMARK VINA RESULT:      -6.8     11.004     14.188
REMARK  3 active torsions:
REMARK  status: ('A' for Active; 'I' for Inactive)
REMARK    1  A    between atoms: C2_2  and  C3_3 
REMARK    2  A    between atoms: C5_5  and  N1_7 
REMARK    3  A    between atoms: N1_7  and  C6_8 
ROOT
HETATM    1  C6  UNL     1      33.574   5.026  45.366  1.00  0.00     0.112 C 
HETATM    2  C7  UNL     1      34.165   3.851  45.472  1.00  0.00     0.042 C 
HETATM    3  C8  UNL     1      33.855   3.174  46.831  1.00  0.00     0.104 C 
HETATM    4  C9  UNL     1      35.042   3.771  47.593  1.00  0.00     0.010 C 
HETATM    5  C10 UNL     1      34.571   4.952  47.879  1.00  0.00     0.096 C 
HETATM    6  N2  UNL     1      33.807   5.569  46.736  1.00  0.00    -0.304 N 
HETATM    7  C11 UNL     1      32.661   6.352  47.285  1.00  0.00     0.107 C 
HETATM    8  C12 UNL     1      31.745   5.219  47.656  1.00  0.00     0.124 C 
HETATM    9  N3  UNL     1      30.497   5.107  48.202  1.00  0.00    -0.243 NA
HETATM   10  C13 UNL     1      29.489   5.993  48.208  1.00  0.00     0.185 C 
HETATM   11  S1  UNL     1      29.482   7.716  48.360  1.00  0.00    -0.007 SA
HETATM   12  N4  UNL     1      30.721   8.825  48.102  1.00  0.00    -0.323 N 
HETATM   13  C14 UNL     1      31.959   8.731  47.624  1.00  0.00     0.069 A 
HETATM   14  C15 UNL     1      32.592   9.926  47.404  1.00  0.00     0.034 A 
HETATM   15  C16 UNL     1      33.862   9.996  46.910  1.00  0.00     0.022 A 
HETATM   16  C17 UNL     1      34.620   8.883  46.588  1.00  0.00     0.117 A 
HETATM   17  N5  UNL     1      34.001   7.724  46.803  1.00  0.00    -0.256 NA
HETATM   18  C18 UNL     1      32.727   7.681  47.299  1.00  0.00     0.113 A 
HETATM   19  S2  UNL     1      32.216   3.457  47.393  1.00  0.00    -0.095 SA
HETATM   20  H12 UNL     1      30.573   9.828  48.340  1.00  0.00     0.174 HD
ENDROOT
BRANCH   1  21
HETATM   21  N1  UNL     1      33.167   5.086  43.992  1.00  0.00    -0.317 N 
HETATM   22  H6  UNL     1      32.289   4.681  43.686  1.00  0.00     0.170 HD
BRANCH  21  23
HETATM   23  C5  UNL     1      34.063   5.760  43.160  1.00  0.00     0.174 A 
HETATM   24  C4  UNL     1      34.306   5.243  41.795  1.00  0.00     0.052 A 
HETATM   25  C3  UNL     1      35.089   6.291  41.808  1.00  0.00     0.104 A 
HETATM   26  O1  UNL     1      34.685   6.809  43.527  1.00  0.00    -0.278 OA
BRANCH  25  27
HETATM   27  C2  UNL     1      35.989   6.913  40.878  1.00  0.00     0.007 C 
HETATM   28  C1  UNL     1      36.544   5.857  40.246  1.00  0.00     0.006 C 
ENDBRANCH  25  27
ENDBRANCH  21  23
ENDBRANCH   1  21
TORSDOF 3
ENDMDL
MODEL 9
REMARK VINA RESULT:      -6.6      2.983      6.683
REMARK  3 active torsions:
REMARK  status: ('A' for Active; 'I' for Inactive)
REMARK    1  A    between atoms: C2_2  and  C3_3 
REMARK    2  A    between atoms: C5_5  and  N1_7 
REMARK    3  A    between atoms: N1_7  and  C6_8 
ROOT
HETATM    1  C6  UNL     1      23.451   1.877  51.527  1.00  0.00     0.112 C 
HETATM    2  C7  UNL     1      22.853   0.939  52.236  1.00  0.00     0.042 C 
HETATM    3  C8  UNL     1      21.368   0.769  51.825  1.00  0.00     0.104 C 
HETATM    4  C9  UNL     1      20.801   1.793  52.814  1.00  0.00     0.010 C 
HETATM    5  C10 UNL     1      21.032   2.901  52.167  1.00  0.00     0.096 C 
HETATM    6  N2  UNL     1      22.382   2.917  51.500  1.00  0.00    -0.304 N 
HETATM    7  C11 UNL     1      22.273   3.647  50.202  1.00  0.00     0.107 C 
HETATM    8  C12 UNL     1      21.571   2.596  49.388  1.00  0.00     0.124 C 
HETATM    9  N3  UNL     1      21.128   2.489  48.100  1.00  0.00    -0.243 NA
HETATM   10  C13 UNL     1      21.546   3.135  47.001  1.00  0.00     0.185 C 
HETATM   11  S1  UNL     1      22.070   4.766  46.763  1.00  0.00    -0.007 SA
HETATM   12  N4  UNL     1      22.633   5.890  47.882  1.00  0.00    -0.323 N 
HETATM   13  C14 UNL     1      22.936   5.832  49.176  1.00  0.00     0.069 A 
HETATM   14  C15 UNL     1      23.547   6.949  49.684  1.00  0.00     0.034 A 
HETATM   15  C16 UNL     1      23.924   7.040  50.992  1.00  0.00     0.022 A 
HETATM   16  C17 UNL     1      23.728   6.029  51.916  1.00  0.00     0.117 A 
HETATM   17  N5  UNL     1      23.135   4.945  51.419  1.00  0.00    -0.256 NA
HETATM   18  C18 UNL     1      22.766   4.879  50.104  1.00  0.00     0.113 A 
HETATM   19  S2  UNL     1      21.095   0.964  50.102  1.00  0.00    -0.095 SA
HETATM   20  H12 UNL     1      22.813   6.871  47.582  1.00  0.00     0.174 HD
ENDROOT
BRANCH   1  21
HETATM   21  N1  UNL     1      24.771   1.358  51.309  1.00  0.00    -0.317 N 
HETATM   22  H6  UNL     1      25.116   1.176  50.374  1.00  0.00     0.170 HD
BRANCH  21  23
HETATM   23  C5  UNL     1      25.508   1.163  52.480  1.00  0.00     0.174 A 
HETATM   24  C4  UNL     1      26.132  -0.156  52.726  1.00  0.00     0.052 A 
HETATM   25  C3  UNL     1      26.502   0.499  53.795  1.00  0.00     0.104 A 
HETATM   26  O1  UNL     1      25.668   2.078  53.351  1.00  0.00    -0.278 OA
BRANCH  25  27
HETATM   27  C2  UNL     1      27.279   0.201  54.966  1.00  0.00     0.007 C 
HETATM   28  C1  UNL     1      28.543   0.189  54.491  1.00  0.00     0.006 C 
ENDBRANCH  25  27
ENDBRANCH  21  23
ENDBRANCH   1  21
TORSDOF 3
ENDMDL
