MODEL 1
REMARK VINA RESULT:      -7.7      0.000      0.000
REMARK  4 active torsions:
REMARK  status: ('A' for Active; 'I' for Inactive)
REMARK    1  A    between atoms: C4_5  and  C5_6 
REMARK    2  A    between atoms: C8_9  and  N2_10 
REMARK       I    between atoms: N2_10  and  C9_11 
REMARK    3  A    between atoms: C9_11  and  C10_13 
REMARK    4  A    between atoms: C10_13  and  C11_14 
ROOT
HETATM    1  C5  UNL     1      26.012   4.897  49.489  1.00  0.00    -0.054 A 
HETATM    2  C6  UNL     1      26.651   3.663  49.551  1.00  0.00     0.010 A 
HETATM    3  C7  UNL     1      26.223   2.679  50.419  1.00  0.00     0.030 A 
HETATM    4  C8  UNL     1      25.155   2.887  51.245  1.00  0.00     0.034 A 
HETATM    5  C15 UNL     1      24.500   4.118  51.200  1.00  0.00     0.030 A 
HETATM    6  C16 UNL     1      24.935   5.104  50.326  1.00  0.00     0.010 A 
ENDROOT
BRANCH   4   7
HETATM    7  N2  UNL     1      24.808   1.800  52.092  1.00  0.00    -0.327 N 
HETATM    8  C9  UNL     1      23.650   0.999  51.944  1.00  0.00     0.224 C 
HETATM    9  O1  UNL     1      22.883   1.285  50.988  1.00  0.00    -0.273 OA
HETATM   10  H11 UNL     1      25.586   1.791  52.767  1.00  0.00     0.169 HD
BRANCH   8  11
HETATM   11  C10 UNL     1      23.583  -0.052  52.991  1.00  0.00     0.136 C 
BRANCH  11  12
HETATM   12  C11 UNL     1      22.557   0.276  54.051  1.00  0.00     0.164 C 
HETATM   13  N3  UNL     1      21.332   0.609  53.335  1.00  0.00    -0.387 N 
HETATM   14  C12 UNL     1      20.364  -0.447  53.351  1.00  0.00     0.087 C 
HETATM   15  H15 UNL     1      21.248   1.549  52.881  1.00  0.00     0.159 HD
HETATM   16  C13 UNL     1      20.821  -1.403  54.165  1.00  0.00     0.069 C 
HETATM   17  C14 UNL     1      22.123  -0.993  54.717  1.00  0.00     0.173 C 
HETATM   18  O2  UNL     1      22.613  -1.760  55.614  1.00  0.00    -0.291 OA
ENDBRANCH  11  12
ENDBRANCH   8  11
ENDBRANCH   4   7
BRANCH   1  19
HETATM   19  C4  UNL     1      26.512   5.922  48.540  1.00  0.00     0.022 C 
HETATM   20  C3  UNL     1      26.107   7.320  48.875  1.00  0.00     0.039 C 
HETATM   21  C2  UNL     1      27.271   8.195  49.289  1.00  0.00     0.272 C 
HETATM   22  N1  UNL     1      28.333   8.241  48.318  1.00  0.00     0.084 N 
HETATM   23  C1  UNL     1      29.598   8.548  49.005  1.00  0.00     0.309 C 
HETATM   24  C18 UNL     1      28.458   7.028  47.539  1.00  0.00     0.272 C 
HETATM   25  C17 UNL     1      28.015   5.844  48.374  1.00  0.00     0.039 C 
ENDBRANCH   1  19
TORSDOF 4
ENDMDL
MODEL 2
REMARK VINA RESULT:      -7.4      1.306      1.792
REMARK  4 active torsions:
REMARK  status: ('A' for Active; 'I' for Inactive)
REMARK    1  A    between atoms: C4_5  and  C5_6 
REMARK    2  A    between atoms: C8_9  and  N2_10 
REMARK       I    between atoms: N2_10  and  C9_11 
REMARK    3  A    between atoms: C9_11  and  C10_13 
REMARK    4  A    between atoms: C10_13  and  C11_14 
ROOT
HETATM    1  C5  UNL     1      26.482   5.089  49.167  1.00  0.00    -0.054 A 
HETATM    2  C6  UNL     1      25.350   5.613  49.783  1.00  0.00     0.010 A 
HETATM    3  C7  UNL     1      24.597   4.855  50.657  1.00  0.00     0.030 A 
HETATM    4  C8  UNL     1      24.943   3.565  50.946  1.00  0.00     0.034 A 
HETATM    5  C15 UNL     1      26.074   3.020  50.339  1.00  0.00     0.030 A 
HETATM    6  C16 UNL     1      26.827   3.786  49.460  1.00  0.00     0.010 A 
ENDROOT
BRANCH   4   7
HETATM    7  N2  UNL     1      24.092   2.888  51.861  1.00  0.00    -0.327 N 
HETATM    8  C9  UNL     1      23.074   1.975  51.492  1.00  0.00     0.224 C 
HETATM    9  O1  UNL     1      22.926   1.761  50.261  1.00  0.00    -0.273 OA
HETATM   10  H11 UNL     1      24.422   3.240  52.771  1.00  0.00     0.169 HD
BRANCH   8  11
HETATM   11  C10 UNL     1      22.367   1.443  52.685  1.00  0.00     0.136 C 
BRANCH  11  12
HETATM   12  C11 UNL     1      22.182  -0.055  52.608  1.00  0.00     0.164 C 
HETATM   13  N3  UNL     1      23.250  -0.633  53.413  1.00  0.00    -0.387 N 
HETATM   14  C12 UNL     1      22.805  -1.087  54.697  1.00  0.00     0.087 C 
HETATM   15  H15 UNL     1      24.219  -0.674  53.019  1.00  0.00     0.159 HD
HETATM   16  C13 UNL     1      21.474  -0.979  54.726  1.00  0.00     0.069 C 
HETATM   17  C14 UNL     1      20.999  -0.442  53.440  1.00  0.00     0.173 C 
HETATM   18  O2  UNL     1      19.732  -0.408  53.285  1.00  0.00    -0.291 OA
ENDBRANCH  11  12
ENDBRANCH   8  11
ENDBRANCH   4   7
BRANCH   1  19
HETATM   19  C4  UNL     1      27.256   5.944  48.234  1.00  0.00     0.022 C 
HETATM   20  C3  UNL     1      26.968   7.405  48.354  1.00  0.00     0.039 C 
HETATM   21  C2  UNL     1      28.139   8.201  48.892  1.00  0.00     0.272 C 
HETATM   22  N1  UNL     1      29.351   8.028  48.133  1.00  0.00     0.084 N 
HETATM   23  C1  UNL     1      30.505   8.284  49.010  1.00  0.00     0.309 C 
HETATM   24  C18 UNL     1      29.463   6.728  47.508  1.00  0.00     0.272 C 
HETATM   25  C17 UNL     1      28.745   5.698  48.356  1.00  0.00     0.039 C 
ENDBRANCH   1  19
TORSDOF 4
ENDMDL
MODEL 3
REMARK VINA RESULT:      -7.4      1.862      2.405
REMARK  4 active torsions:
REMARK  status: ('A' for Active; 'I' for Inactive)
REMARK    1  A    between atoms: C4_5  and  C5_6 
REMARK    2  A    between atoms: C8_9  and  N2_10 
REMARK       I    between atoms: N2_10  and  C9_11 
REMARK    3  A    between atoms: C9_11  and  C10_13 
REMARK    4  A    between atoms: C10_13  and  C11_14 
ROOT
HETATM    1  C5  UNL     1      26.921   6.305  48.712  1.00  0.00    -0.054 A 
HETATM    2  C6  UNL     1      27.572   5.082  48.582  1.00  0.00     0.010 A 
HETATM    3  C7  UNL     1      27.104   3.952  49.220  1.00  0.00     0.030 A 
HETATM    4  C8  UNL     1      25.983   3.998  50.000  1.00  0.00     0.034 A 
HETATM    5  C15 UNL     1      25.314   5.214  50.145  1.00  0.00     0.030 A 
HETATM    6  C16 UNL     1      25.790   6.349  49.501  1.00  0.00     0.010 A 
ENDROOT
BRANCH   4   7
HETATM    7  N2  UNL     1      25.599   2.770  50.604  1.00  0.00    -0.327 N 
HETATM    8  C9  UNL     1      26.374   2.062  51.554  1.00  0.00     0.224 C 
HETATM    9  O1  UNL     1      27.480   2.570  51.874  1.00  0.00    -0.273 OA
HETATM   10  H11 UNL     1      24.682   2.591  50.172  1.00  0.00     0.169 HD
BRANCH   8  11
HETATM   11  C10 UNL     1      25.690   0.817  51.988  1.00  0.00     0.136 C 
BRANCH  11  12
HETATM   12  C11 UNL     1      25.033   0.978  53.339  1.00  0.00     0.164 C 
HETATM   13  N3  UNL     1      23.632   1.276  53.071  1.00  0.00    -0.387 N 
HETATM   14  C12 UNL     1      22.767   0.153  53.275  1.00  0.00     0.087 C 
HETATM   15  H15 UNL     1      23.367   2.242  52.763  1.00  0.00     0.159 HD
HETATM   16  C13 UNL     1      23.498  -0.830  53.808  1.00  0.00     0.069 C 
HETATM   17  C14 UNL     1      24.887  -0.371  53.973  1.00  0.00     0.173 C 
HETATM   18  O2  UNL     1      25.667  -1.170  54.593  1.00  0.00    -0.291 OA
ENDBRANCH  11  12
ENDBRANCH   8  11
ENDBRANCH   4   7
BRANCH   1  19
HETATM   19  C4  UNL     1      27.464   7.491  48.006  1.00  0.00     0.022 C 
HETATM   20  C3  UNL     1      27.418   8.754  48.801  1.00  0.00     0.039 C 
HETATM   21  C2  UNL     1      28.791   9.269  49.184  1.00  0.00     0.272 C 
HETATM   22  N1  UNL     1      29.669   9.461  48.059  1.00  0.00     0.084 N 
HETATM   23  C1  UNL     1      31.063   9.341  48.515  1.00  0.00     0.309 C 
HETATM   24  C18 UNL     1      29.412   8.554  46.961  1.00  0.00     0.272 C 
HETATM   25  C17 UNL     1      28.872   7.246  47.504  1.00  0.00     0.039 C 
ENDBRANCH   1  19
TORSDOF 4
ENDMDL
MODEL 4
REMARK VINA RESULT:      -7.4      5.236      7.257
REMARK  4 active torsions:
REMARK  status: ('A' for Active; 'I' for Inactive)
REMARK    1  A    between atoms: C4_5  and  C5_6 
REMARK    2  A    between atoms: C8_9  and  N2_10 
REMARK       I    between atoms: N2_10  and  C9_11 
REMARK    3  A    between atoms: C9_11  and  C10_13 
REMARK    4  A    between atoms: C10_13  and  C11_14 
ROOT
HETATM    1  C5  UNL     1      23.935  -0.166  53.276  1.00  0.00    -0.054 A 
HETATM    2  C6  UNL     1      23.840   0.827  52.306  1.00  0.00     0.010 A 
HETATM    3  C7  UNL     1      22.620   1.200  51.782  1.00  0.00     0.030 A 
HETATM    4  C8  UNL     1      21.463   0.606  52.202  1.00  0.00     0.034 A 
HETATM    5  C15 UNL     1      21.535  -0.392  53.174  1.00  0.00     0.030 A 
HETATM    6  C16 UNL     1      22.765  -0.764  53.697  1.00  0.00     0.010 A 
ENDROOT
BRANCH   4   7
HETATM    7  N2  UNL     1      20.269   1.076  51.590  1.00  0.00    -0.327 N 
HETATM    8  C9  UNL     1      19.576   2.250  51.971  1.00  0.00     0.224 C 
HETATM    9  O1  UNL     1      20.064   2.912  52.923  1.00  0.00    -0.273 OA
HETATM   10  H11 UNL     1      20.099   0.364  50.865  1.00  0.00     0.169 HD
BRANCH   8  11
HETATM   11  C10 UNL     1      18.367   2.459  51.133  1.00  0.00     0.136 C 
BRANCH  11  12
HETATM   12  C11 UNL     1      18.023   3.924  50.998  1.00  0.00     0.164 C 
HETATM   13  N3  UNL     1      17.694   4.130  49.593  1.00  0.00    -0.387 N 
HETATM   14  C12 UNL     1      16.285   4.230  49.352  1.00  0.00     0.087 C 
HETATM   15  H15 UNL     1      18.469   4.189  48.892  1.00  0.00     0.159 HD
HETATM   16  C13 UNL     1      15.672   4.252  50.539  1.00  0.00     0.069 C 
HETATM   17  C14 UNL     1      16.679   4.166  51.610  1.00  0.00     0.173 C 
HETATM   18  O2  UNL     1      16.237   4.307  52.801  1.00  0.00    -0.291 OA
ENDBRANCH  11  12
ENDBRANCH   8  11
ENDBRANCH   4   7
BRANCH   1  19
HETATM   19  C4  UNL     1      25.271  -0.532  53.806  1.00  0.00     0.022 C 
HETATM   20  C3  UNL     1      26.209  -1.084  52.784  1.00  0.00     0.039 C 
HETATM   21  C2  UNL     1      27.385  -0.173  52.499  1.00  0.00     0.272 C 
HETATM   22  N1  UNL     1      28.137   0.182  53.674  1.00  0.00     0.084 N 
HETATM   23  C1  UNL     1      28.804   1.474  53.443  1.00  0.00     0.309 C 
HETATM   24  C18 UNL     1      27.340   0.228  54.881  1.00  0.00     0.272 C 
HETATM   25  C17 UNL     1      25.921   0.627  54.532  1.00  0.00     0.039 C 
ENDBRANCH   1  19
TORSDOF 4
ENDMDL
MODEL 5
REMARK VINA RESULT:      -7.3      5.028      6.739
REMARK  4 active torsions:
REMARK  status: ('A' for Active; 'I' for Inactive)
REMARK    1  A    between atoms: C4_5  and  C5_6 
REMARK    2  A    between atoms: C8_9  and  N2_10 
REMARK       I    between atoms: N2_10  and  C9_11 
REMARK    3  A    between atoms: C9_11  and  C10_13 
REMARK    4  A    between atoms: C10_13  and  C11_14 
ROOT
HETATM    1  C5  UNL     1      24.245  -0.041  53.546  1.00  0.00    -0.054 A 
HETATM    2  C6  UNL     1      23.906   1.146  52.906  1.00  0.00     0.010 A 
HETATM    3  C7  UNL     1      22.588   1.508  52.721  1.00  0.00     0.030 A 
HETATM    4  C8  UNL     1      21.571   0.709  53.163  1.00  0.00     0.034 A 
HETATM    5  C15 UNL     1      21.888  -0.488  53.807  1.00  0.00     0.030 A 
HETATM    6  C16 UNL     1      23.216  -0.847  53.991  1.00  0.00     0.010 A 
ENDROOT
BRANCH   4   7
HETATM    7  N2  UNL     1      20.256   1.188  52.915  1.00  0.00    -0.327 N 
HETATM    8  C9  UNL     1      19.552   1.020  51.698  1.00  0.00     0.224 C 
HETATM    9  O1  UNL     1      20.150   0.400  50.780  1.00  0.00    -0.273 OA
HETATM   10  H11 UNL     1      20.016   1.642  53.808  1.00  0.00     0.169 HD
BRANCH   8  11
HETATM   11  C10 UNL     1      18.203   1.637  51.765  1.00  0.00     0.136 C 
BRANCH  11  12
HETATM   12  C11 UNL     1      17.156   0.774  51.100  1.00  0.00     0.164 C 
HETATM   13  N3  UNL     1      17.447  -0.594  51.507  1.00  0.00    -0.387 N 
HETATM   14  C12 UNL     1      16.565  -1.080  52.526  1.00  0.00     0.087 C 
HETATM   15  H15 UNL     1      18.240  -1.104  51.050  1.00  0.00     0.159 HD
HETATM   16  C13 UNL     1      15.613  -0.161  52.708  1.00  0.00     0.069 C 
HETATM   17  C14 UNL     1      15.847   0.973  51.797  1.00  0.00     0.173 C 
HETATM   18  O2  UNL     1      14.935   1.867  51.777  1.00  0.00    -0.291 OA
ENDBRANCH  11  12
ENDBRANCH   8  11
ENDBRANCH   4   7
BRANCH   1  19
HETATM   19  C4  UNL     1      25.678  -0.385  53.720  1.00  0.00     0.022 C 
HETATM   20  C3  UNL     1      26.474  -0.357  52.457  1.00  0.00     0.039 C 
HETATM   21  C2  UNL     1      27.503   0.754  52.425  1.00  0.00     0.272 C 
HETATM   22  N1  UNL     1      28.409   0.734  53.544  1.00  0.00     0.084 N 
HETATM   23  C1  UNL     1      28.913   2.097  53.776  1.00  0.00     0.309 C 
HETATM   24  C18 UNL     1      27.825   0.194  54.753  1.00  0.00     0.272 C 
HETATM   25  C17 UNL     1      26.338   0.486  54.768  1.00  0.00     0.039 C 
ENDBRANCH   1  19
TORSDOF 4
ENDMDL
MODEL 6
REMARK VINA RESULT:      -7.1      1.695      2.206
REMARK  4 active torsions:
REMARK  status: ('A' for Active; 'I' for Inactive)
REMARK    1  A    between atoms: C4_5  and  C5_6 
REMARK    2  A    between atoms: C8_9  and  N2_10 
REMARK       I    between atoms: N2_10  and  C9_11 
REMARK    3  A    between atoms: C9_11  and  C10_13 
REMARK    4  A    between atoms: C10_13  and  C11_14 
ROOT
HETATM    1  C5  UNL     1      27.128   6.030  48.672  1.00  0.00    -0.054 A 
HETATM    2  C6  UNL     1      27.510   4.695  48.740  1.00  0.00     0.010 A 
HETATM    3  C7  UNL     1      26.759   3.772  49.439  1.00  0.00     0.030 A 
HETATM    4  C8  UNL     1      25.614   4.142  50.086  1.00  0.00     0.034 A 
HETATM    5  C15 UNL     1      25.213   5.477  50.031  1.00  0.00     0.030 A 
HETATM    6  C16 UNL     1      25.972   6.402  49.327  1.00  0.00     0.010 A 
ENDROOT
BRANCH   4   7
HETATM    7  N2  UNL     1      24.927   3.102  50.770  1.00  0.00    -0.327 N 
HETATM    8  C9  UNL     1      23.678   2.566  50.376  1.00  0.00     0.224 C 
HETATM    9  O1  UNL     1      23.151   3.058  49.344  1.00  0.00    -0.273 OA
HETATM   10  H11 UNL     1      25.565   2.896  51.552  1.00  0.00     0.169 HD
BRANCH   8  11
HETATM   11  C10 UNL     1      23.234   1.494  51.303  1.00  0.00     0.136 C 
BRANCH  11  12
HETATM   12  C11 UNL     1      22.678   2.057  52.590  1.00  0.00     0.164 C 
HETATM   13  N3  UNL     1      21.683   3.047  52.197  1.00  0.00    -0.387 N 
HETATM   14  C12 UNL     1      20.335   2.578  52.336  1.00  0.00     0.087 C 
HETATM   15  H15 UNL     1      22.003   3.984  51.858  1.00  0.00     0.159 HD
HETATM   16  C13 UNL     1      20.381   1.388  52.941  1.00  0.00     0.069 C 
HETATM   17  C14 UNL     1      21.784   1.036  53.221  1.00  0.00     0.173 C 
HETATM   18  O2  UNL     1      21.963  -0.021  53.915  1.00  0.00    -0.291 OA
ENDBRANCH  11  12
ENDBRANCH   8  11
ENDBRANCH   4   7
BRANCH   1  19
HETATM   19  C4  UNL     1      27.970   6.984  47.909  1.00  0.00     0.022 C 
HETATM   20  C3  UNL     1      27.996   8.368  48.471  1.00  0.00     0.039 C 
HETATM   21  C2  UNL     1      29.349   8.759  49.029  1.00  0.00     0.272 C 
HETATM   22  N1  UNL     1      30.425   8.623  48.082  1.00  0.00     0.084 N 
HETATM   23  C1  UNL     1      31.683   8.408  48.815  1.00  0.00     0.309 C 
HETATM   24  C18 UNL     1      30.214   7.570  47.112  1.00  0.00     0.272 C 
HETATM   25  C17 UNL     1      29.383   6.468  47.737  1.00  0.00     0.039 C 
ENDBRANCH   1  19
TORSDOF 4
ENDMDL
MODEL 7
REMARK VINA RESULT:      -7.0      3.829      8.899
REMARK  4 active torsions:
REMARK  status: ('A' for Active; 'I' for Inactive)
REMARK    1  A    between atoms: C4_5  and  C5_6 
REMARK    2  A    between atoms: C8_9  and  N2_10 
REMARK       I    between atoms: N2_10  and  C9_11 
REMARK    3  A    between atoms: C9_11  and  C10_13 
REMARK    4  A    between atoms: C10_13  and  C11_14 
ROOT
HETATM    1  C5  UNL     1      25.517   2.436  51.532  1.00  0.00    -0.054 A 
HETATM    2  C6  UNL     1      26.637   2.724  50.759  1.00  0.00     0.010 A 
HETATM    3  C7  UNL     1      26.645   3.789  49.881  1.00  0.00     0.030 A 
HETATM    4  C8  UNL     1      25.550   4.595  49.744  1.00  0.00     0.034 A 
HETATM    5  C15 UNL     1      24.415   4.324  50.510  1.00  0.00     0.030 A 
HETATM    6  C16 UNL     1      24.413   3.252  51.391  1.00  0.00     0.010 A 
ENDROOT
BRANCH   4   7
HETATM    7  N2  UNL     1      25.679   5.659  48.810  1.00  0.00    -0.327 N 
HETATM    8  C9  UNL     1      25.833   7.023  49.157  1.00  0.00     0.224 C 
HETATM    9  O1  UNL     1      25.855   7.295  50.386  1.00  0.00    -0.273 OA
HETATM   10  H11 UNL     1      25.628   5.165  47.908  1.00  0.00     0.169 HD
BRANCH   8  11
HETATM   11  C10 UNL     1      25.940   7.879  47.948  1.00  0.00     0.136 C 
BRANCH  11  12
HETATM   12  C11 UNL     1      27.234   8.658  47.923  1.00  0.00     0.164 C 
HETATM   13  N3  UNL     1      28.115   8.003  48.881  1.00  0.00    -0.387 N 
HETATM   14  C12 UNL     1      29.111   7.181  48.262  1.00  0.00     0.087 C 
HETATM   15  H15 UNL     1      27.967   8.170  49.905  1.00  0.00     0.159 HD
HETATM   16  C13 UNL     1      29.032   7.374  46.942  1.00  0.00     0.069 C 
HETATM   17  C14 UNL     1      27.965   8.347  46.654  1.00  0.00     0.173 C 
HETATM   18  O2  UNL     1      27.868   8.721  45.437  1.00  0.00    -0.291 OA
ENDBRANCH  11  12
ENDBRANCH   8  11
ENDBRANCH   4   7
BRANCH   1  19
HETATM   19  C4  UNL     1      25.559   1.280  52.460  1.00  0.00     0.022 C 
HETATM   20  C3  UNL     1      26.352   0.117  51.960  1.00  0.00     0.039 C 
HETATM   21  C2  UNL     1      27.612  -0.134  52.760  1.00  0.00     0.272 C 
HETATM   22  N1  UNL     1      27.376  -0.307  54.170  1.00  0.00     0.084 N 
HETATM   23  C1  UNL     1      28.590   0.076  54.910  1.00  0.00     0.309 C 
HETATM   24  C18 UNL     1      26.228   0.426  54.659  1.00  0.00     0.272 C 
HETATM   25  C17 UNL     1      26.046   1.685  53.836  1.00  0.00     0.039 C 
ENDBRANCH   1  19
TORSDOF 4
ENDMDL
MODEL 8
REMARK VINA RESULT:      -7.0      3.953      7.788
REMARK  4 active torsions:
REMARK  status: ('A' for Active; 'I' for Inactive)
REMARK    1  A    between atoms: C4_5  and  C5_6 
REMARK    2  A    between atoms: C8_9  and  N2_10 
REMARK       I    between atoms: N2_10  and  C9_11 
REMARK    3  A    between atoms: C9_11  and  C10_13 
REMARK    4  A    between atoms: C10_13  and  C11_14 
ROOT
HETATM    1  C5  UNL     1      25.057   1.020  53.060  1.00  0.00    -0.054 A 
HETATM    2  C6  UNL     1      25.533   2.227  52.559  1.00  0.00     0.010 A 
HETATM    3  C7  UNL     1      24.723   3.062  51.817  1.00  0.00     0.030 A 
HETATM    4  C8  UNL     1      23.424   2.729  51.553  1.00  0.00     0.034 A 
HETATM    5  C15 UNL     1      22.926   1.522  52.045  1.00  0.00     0.030 A 
HETATM    6  C16 UNL     1      23.746   0.685  52.790  1.00  0.00     0.010 A 
ENDROOT
BRANCH   4   7
HETATM    7  N2  UNL     1      22.690   3.669  50.780  1.00  0.00    -0.327 N 
HETATM    8  C9  UNL     1      22.003   4.787  51.311  1.00  0.00     0.224 C 
HETATM    9  O1  UNL     1      22.055   4.944  52.558  1.00  0.00    -0.273 OA
HETATM   10  H11 UNL     1      22.811   3.309  49.823  1.00  0.00     0.169 HD
BRANCH   8  11
HETATM   11  C10 UNL     1      21.337   5.570  50.238  1.00  0.00     0.136 C 
BRANCH  11  12
HETATM   12  C11 UNL     1      21.269   7.041  50.575  1.00  0.00     0.164 C 
HETATM   13  N3  UNL     1      22.571   7.386  51.131  1.00  0.00    -0.387 N 
HETATM   14  C12 UNL     1      23.412   8.087  50.207  1.00  0.00     0.087 C 
HETATM   15  H15 UNL     1      22.793   7.111  52.117  1.00  0.00     0.159 HD
HETATM   16  C13 UNL     1      22.682   8.358  49.122  1.00  0.00     0.069 C 
HETATM   17  C14 UNL     1      21.318   7.834  49.307  1.00  0.00     0.173 C 
HETATM   18  O2  UNL     1      20.477   8.138  48.394  1.00  0.00    -0.291 OA
ENDBRANCH  11  12
ENDBRANCH   8  11
ENDBRANCH   4   7
BRANCH   1  19
HETATM   19  C4  UNL     1      25.968   0.156  53.851  1.00  0.00     0.022 C 
HETATM   20  C3  UNL     1      26.384  -1.099  53.156  1.00  0.00     0.039 C 
HETATM   21  C2  UNL     1      27.856  -1.125  52.804  1.00  0.00     0.272 C 
HETATM   22  N1  UNL     1      28.724  -0.912  53.933  1.00  0.00     0.084 N 
HETATM   23  C1  UNL     1      29.997  -0.345  53.458  1.00  0.00     0.309 C 
HETATM   24  C18 UNL     1      28.144  -0.073  54.959  1.00  0.00     0.272 C 
HETATM   25  C17 UNL     1      27.190   0.917  54.321  1.00  0.00     0.039 C 
ENDBRANCH   1  19
TORSDOF 4
ENDMDL
MODEL 9
REMARK VINA RESULT:      -6.9      4.846      6.448
REMARK  4 active torsions:
REMARK  status: ('A' for Active; 'I' for Inactive)
REMARK    1  A    between atoms: C4_5  and  C5_6 
REMARK    2  A    between atoms: C8_9  and  N2_10 
REMARK       I    between atoms: N2_10  and  C9_11 
REMARK    3  A    between atoms: C9_11  and  C10_13 
REMARK    4  A    between atoms: C10_13  and  C11_14 
ROOT
HETATM    1  C5  UNL     1      24.955   1.552  53.424  1.00  0.00    -0.054 A 
HETATM    2  C6  UNL     1      24.198   2.625  52.966  1.00  0.00     0.010 A 
HETATM    3  C7  UNL     1      22.939   2.437  52.435  1.00  0.00     0.030 A 
HETATM    4  C8  UNL     1      22.394   1.187  52.343  1.00  0.00     0.034 A 
HETATM    5  C15 UNL     1      23.136   0.095  52.795  1.00  0.00     0.030 A 
HETATM    6  C16 UNL     1      24.403   0.291  53.328  1.00  0.00     0.010 A 
ENDROOT
BRANCH   4   7
HETATM    7  N2  UNL     1      21.091   1.120  51.779  1.00  0.00    -0.327 N 
HETATM    8  C9  UNL     1      20.816   0.977  50.398  1.00  0.00     0.224 C 
HETATM    9  O1  UNL     1      21.809   0.906  49.628  1.00  0.00    -0.273 OA
HETATM   10  H11 UNL     1      20.488   1.202  52.610  1.00  0.00     0.169 HD
BRANCH   8  11
HETATM   11  C10 UNL     1      19.354   0.941  50.139  1.00  0.00     0.136 C 
BRANCH  11  12
HETATM   12  C11 UNL     1      18.825   2.289  49.710  1.00  0.00     0.164 C 
HETATM   13  N3  UNL     1      17.750   2.016  48.765  1.00  0.00    -0.387 N 
HETATM   14  C12 UNL     1      16.444   2.177  49.334  1.00  0.00     0.087 C 
HETATM   15  H15 UNL     1      17.991   1.734  47.786  1.00  0.00     0.159 HD
HETATM   16  C13 UNL     1      16.597   2.688  50.559  1.00  0.00     0.069 C 
HETATM   17  C14 UNL     1      18.032   2.880  50.833  1.00  0.00     0.173 C 
HETATM   18  O2  UNL     1      18.313   3.484  51.923  1.00  0.00    -0.291 OA
ENDBRANCH  11  12
ENDBRANCH   8  11
ENDBRANCH   4   7
BRANCH   1  19
HETATM   19  C4  UNL     1      26.304   1.807  53.986  1.00  0.00     0.022 C 
HETATM   20  C3  UNL     1      26.716   0.850  55.056  1.00  0.00     0.039 C 
HETATM   21  C2  UNL     1      27.862  -0.049  54.644  1.00  0.00     0.272 C 
HETATM   22  N1  UNL     1      29.026   0.669  54.192  1.00  0.00     0.084 N 
HETATM   23  C1  UNL     1      29.789  -0.188  53.271  1.00  0.00     0.309 C 
HETATM   24  C18 UNL     1      28.717   1.939  53.571  1.00  0.00     0.272 C 
HETATM   25  C17 UNL     1      27.360   1.856  52.902  1.00  0.00     0.039 C 
ENDBRANCH   1  19
TORSDOF 4
ENDMDL
