MODEL 1
REMARK VINA RESULT:      -8.9      0.000      0.000
REMARK  6 active torsions:
REMARK  status: ('A' for Active; 'I' for Inactive)
REMARK    1  A    between atoms: N1_1  and  C1_2 
REMARK    2  A    between atoms: C3_4  and  N2_5 
REMARK    3  A    between atoms: N2_5  and  C4_6 
REMARK    4  A    between atoms: C16_20  and  O1_21 
REMARK    5  A    between atoms: O1_21  and  C17_22 
REMARK    6  A    between atoms: C17_22  and  C18_23 
ROOT
HETATM    1  C1  UNL     1      25.132   6.874  50.449  1.00  0.00     0.061 A 
HETATM    2  C2  UNL     1      24.807   5.514  50.550  1.00  0.00     0.061 A 
HETATM    3  C3  UNL     1      25.493   4.606  49.779  1.00  0.00     0.035 A 
HETATM    4  C14 UNL     1      26.456   5.104  48.960  1.00  0.00     0.032 A 
HETATM    5  C15 UNL     1      26.857   6.406  48.779  1.00  0.00     0.041 A 
HETATM    6  C16 UNL     1      26.148   7.302  49.568  1.00  0.00     0.095 A 
ENDROOT
BRANCH   3   7
HETATM    7  N2  UNL     1      25.163   3.225  49.849  1.00  0.00    -0.340 N 
HETATM    8  H4  UNL     1      24.614   2.818  49.032  1.00  0.00     0.167 HD
BRANCH   7   9
HETATM    9  C4  UNL     1      25.567   2.470  50.987  1.00  0.00     0.142 A 
HETATM   10  N3  UNL     1      26.865   2.673  51.347  1.00  0.00    -0.224 NA
HETATM   11  C5  UNL     1      27.347   2.004  52.410  1.00  0.00     0.236 A 
HETATM   12  N4  UNL     1      26.590   1.130  53.141  1.00  0.00    -0.241 NA
HETATM   13  C6  UNL     1      25.309   0.921  52.799  1.00  0.00     0.072 A 
HETATM   14  C7  UNL     1      24.792   1.593  51.717  1.00  0.00     0.039 A 
HETATM   15  C13 UNL     1      24.694  -0.032  53.700  1.00  0.00     0.032 A 
HETATM   16  C8  UNL     1      23.509   1.699  51.044  1.00  0.00     0.018 A 
HETATM   17  C9  UNL     1      22.323   1.172  51.277  1.00  0.00     0.001 A 
HETATM   18  C10 UNL     1      21.746   0.259  52.277  1.00  0.00     0.000 A 
HETATM   19  C11 UNL     1      22.221  -0.419  53.312  1.00  0.00     0.000 A 
HETATM   20  C12 UNL     1      23.537  -0.592  53.959  1.00  0.00     0.002 A 
ENDBRANCH   7   9
ENDBRANCH   3   7
BRANCH   1  21
HETATM   21  N1  UNL     1      24.407   7.819  51.267  1.00  0.00    -0.397 N 
HETATM   22  H1  UNL     1      24.441   7.633  52.316  1.00  0.00     0.156 HD
HETATM   23  H2  UNL     1      23.913   8.602  50.770  1.00  0.00     0.156 HD
ENDBRANCH   1  21
BRANCH   6  24
HETATM   24  O1  UNL     1      26.333   8.579  49.574  1.00  0.00    -0.344 OA
BRANCH  24  25
HETATM   25  C17 UNL     1      26.608   9.816  49.263  1.00  0.00     0.214 C 
BRANCH  25  26
HETATM   26  C18 UNL     1      28.068  10.208  49.213  1.00  0.00    -0.031 A 
HETATM   27  C19 UNL     1      28.276  11.551  48.856  1.00  0.00     0.009 A 
HETATM   28  C20 UNL     1      29.571  12.042  48.776  1.00  0.00     0.004 A 
HETATM   29  C21 UNL     1      30.676  11.274  49.030  1.00  0.00     0.042 A 
HETATM   30  C22 UNL     1      30.453   9.960  49.379  1.00  0.00     0.117 A 
HETATM   31  F1  UNL     1      31.506   9.184  49.638  1.00  0.00    -0.206 F 
HETATM   32  C23 UNL     1      29.179   9.465  49.461  1.00  0.00     0.051 A 
ENDBRANCH  25  26
ENDBRANCH  24  25
ENDBRANCH   6  24
TORSDOF 6
ENDMDL
MODEL 2
REMARK VINA RESULT:      -8.8      3.406      8.913
REMARK  6 active torsions:
REMARK  status: ('A' for Active; 'I' for Inactive)
REMARK    1  A    between atoms: N1_1  and  C1_2 
REMARK    2  A    between atoms: C3_4  and  N2_5 
REMARK    3  A    between atoms: N2_5  and  C4_6 
REMARK    4  A    between atoms: C16_20  and  O1_21 
REMARK    5  A    between atoms: O1_21  and  C17_22 
REMARK    6  A    between atoms: C17_22  and  C18_23 
ROOT
HETATM    1  C1  UNL     1      24.572   3.698  51.329  1.00  0.00     0.061 A 
HETATM    2  C2  UNL     1      24.618   4.777  50.435  1.00  0.00     0.061 A 
HETATM    3  C3  UNL     1      25.631   4.831  49.507  1.00  0.00     0.035 A 
HETATM    4  C14 UNL     1      26.529   3.811  49.524  1.00  0.00     0.032 A 
HETATM    5  C15 UNL     1      26.584   2.712  50.347  1.00  0.00     0.041 A 
HETATM    6  C16 UNL     1      25.551   2.683  51.275  1.00  0.00     0.095 A 
ENDROOT
BRANCH   3   7
HETATM    7  N2  UNL     1      25.709   5.928  48.607  1.00  0.00    -0.340 N 
HETATM    8  H4  UNL     1      25.343   5.768  47.619  1.00  0.00     0.167 HD
BRANCH   7   9
HETATM    9  C4  UNL     1      26.268   7.158  49.055  1.00  0.00     0.142 A 
HETATM   10  N3  UNL     1      25.375   7.965  49.695  1.00  0.00    -0.224 NA
HETATM   11  C5  UNL     1      25.802   9.153  50.157  1.00  0.00     0.236 A 
HETATM   12  N4  UNL     1      27.092   9.585  50.010  1.00  0.00    -0.241 NA
HETATM   13  C6  UNL     1      27.983   8.802  49.383  1.00  0.00     0.072 A 
HETATM   14  C7  UNL     1      27.572   7.581  48.902  1.00  0.00     0.039 A 
HETATM   15  C13 UNL     1      29.280   9.445  49.339  1.00  0.00     0.032 A 
HETATM   16  C8  UNL     1      28.176   6.446  48.227  1.00  0.00     0.018 A 
HETATM   17  C9  UNL     1      29.408   6.175  47.846  1.00  0.00     0.001 A 
HETATM   18  C10 UNL     1      30.712   6.856  47.909  1.00  0.00     0.000 A 
HETATM   19  C11 UNL     1      31.133   8.035  48.343  1.00  0.00     0.000 A 
HETATM   20  C12 UNL     1      30.517   9.224  48.963  1.00  0.00     0.002 A 
ENDBRANCH   7   9
ENDBRANCH   3   7
BRANCH   1  21
HETATM   21  N1  UNL     1      23.501   3.650  52.298  1.00  0.00    -0.397 N 
HETATM   22  H1  UNL     1      22.564   3.306  51.923  1.00  0.00     0.156 HD
HETATM   23  H2  UNL     1      23.728   3.953  53.278  1.00  0.00     0.156 HD
ENDBRANCH   1  21
BRANCH   6  24
HETATM   24  O1  UNL     1      25.387   1.760  52.160  1.00  0.00    -0.344 OA
BRANCH  24  25
HETATM   25  C17 UNL     1      25.542   0.762  52.988  1.00  0.00     0.214 C 
BRANCH  25  26
HETATM   26  C18 UNL     1      26.949   0.247  53.193  1.00  0.00    -0.031 A 
HETATM   27  C19 UNL     1      27.839   1.222  53.672  1.00  0.00     0.009 A 
HETATM   28  C20 UNL     1      29.164   0.882  53.906  1.00  0.00     0.004 A 
HETATM   29  C21 UNL     1      29.657  -0.377  53.691  1.00  0.00     0.042 A 
HETATM   30  C22 UNL     1      28.771  -1.321  53.222  1.00  0.00     0.117 A 
HETATM   31  F1  UNL     1      29.218  -2.559  53.004  1.00  0.00    -0.206 F 
HETATM   32  C23 UNL     1      27.462  -0.996  52.986  1.00  0.00     0.051 A 
ENDBRANCH  25  26
ENDBRANCH  24  25
ENDBRANCH   6  24
TORSDOF 6
ENDMDL
MODEL 3
REMARK VINA RESULT:      -8.8      1.462      2.122
REMARK  6 active torsions:
REMARK  status: ('A' for Active; 'I' for Inactive)
REMARK    1  A    between atoms: N1_1  and  C1_2 
REMARK    2  A    between atoms: C3_4  and  N2_5 
REMARK    3  A    between atoms: N2_5  and  C4_6 
REMARK    4  A    between atoms: C16_20  and  O1_21 
REMARK    5  A    between atoms: O1_21  and  C17_22 
REMARK    6  A    between atoms: C17_22  and  C18_23 
ROOT
HETATM    1  C1  UNL     1      24.546   5.776  51.072  1.00  0.00     0.061 A 
HETATM    2  C2  UNL     1      23.914   4.534  51.221  1.00  0.00     0.061 A 
HETATM    3  C3  UNL     1      24.268   3.502  50.385  1.00  0.00     0.035 A 
HETATM    4  C14 UNL     1      25.226   3.767  49.459  1.00  0.00     0.032 A 
HETATM    5  C15 UNL     1      25.909   4.935  49.222  1.00  0.00     0.041 A 
HETATM    6  C16 UNL     1      25.531   5.962  50.078  1.00  0.00     0.095 A 
ENDROOT
BRANCH   3   7
HETATM    7  N2  UNL     1      23.622   2.241  50.505  1.00  0.00    -0.340 N 
HETATM    8  H4  UNL     1      22.938   1.974  49.733  1.00  0.00     0.167 HD
BRANCH   7   9
HETATM    9  C4  UNL     1      23.908   1.416  51.629  1.00  0.00     0.142 A 
HETATM   10  N3  UNL     1      25.224   1.411  51.985  1.00  0.00    -0.224 NA
HETATM   11  C5  UNL     1      25.600   0.660  53.036  1.00  0.00     0.236 A 
HETATM   12  N4  UNL     1      24.719  -0.097  53.758  1.00  0.00    -0.241 NA
HETATM   13  C6  UNL     1      23.420  -0.102  53.421  1.00  0.00     0.072 A 
HETATM   14  C7  UNL     1      23.010   0.659  52.351  1.00  0.00     0.039 A 
HETATM   15  C13 UNL     1      22.669  -0.962  54.312  1.00  0.00     0.032 A 
HETATM   16  C8  UNL     1      21.756   0.971  51.687  1.00  0.00     0.018 A 
HETATM   17  C9  UNL     1      20.504   0.629  51.919  1.00  0.00     0.001 A 
HETATM   18  C10 UNL     1      19.797  -0.199  52.909  1.00  0.00     0.000 A 
HETATM   19  C11 UNL     1      20.165  -0.957  53.932  1.00  0.00     0.000 A 
HETATM   20  C12 UNL     1      21.440  -1.340  54.569  1.00  0.00     0.002 A 
ENDBRANCH   7   9
ENDBRANCH   3   7
BRANCH   1  21
HETATM   21  N1  UNL     1      24.170   6.853  51.958  1.00  0.00    -0.397 N 
HETATM   22  H1  UNL     1      23.984   6.568  52.968  1.00  0.00     0.156 HD
HETATM   23  H2  UNL     1      24.110   7.817  51.543  1.00  0.00     0.156 HD
ENDBRANCH   1  21
BRANCH   6  24
HETATM   24  O1  UNL     1      26.021   7.155  50.052  1.00  0.00    -0.344 OA
BRANCH  24  25
HETATM   25  C17 UNL     1      26.359   8.374  49.731  1.00  0.00     0.214 C 
BRANCH  25  26
HETATM   26  C18 UNL     1      27.793   8.604  49.306  1.00  0.00    -0.031 A 
HETATM   27  C19 UNL     1      28.248   7.683  48.349  1.00  0.00     0.009 A 
HETATM   28  C20 UNL     1      29.547   7.782  47.871  1.00  0.00     0.004 A 
HETATM   29  C21 UNL     1      30.423   8.747  48.290  1.00  0.00     0.042 A 
HETATM   30  C22 UNL     1      29.959   9.643  49.229  1.00  0.00     0.117 A 
HETATM   31  F1  UNL     1      30.784  10.599  49.657  1.00  0.00    -0.206 F 
HETATM   32  C23 UNL     1      28.680   9.553  49.708  1.00  0.00     0.051 A 
ENDBRANCH  25  26
ENDBRANCH  24  25
ENDBRANCH   6  24
TORSDOF 6
ENDMDL
MODEL 4
REMARK VINA RESULT:      -8.7      3.715      9.031
REMARK  6 active torsions:
REMARK  status: ('A' for Active; 'I' for Inactive)
REMARK    1  A    between atoms: N1_1  and  C1_2 
REMARK    2  A    between atoms: C3_4  and  N2_5 
REMARK    3  A    between atoms: N2_5  and  C4_6 
REMARK    4  A    between atoms: C16_20  and  O1_21 
REMARK    5  A    between atoms: O1_21  and  C17_22 
REMARK    6  A    between atoms: C17_22  and  C18_23 
ROOT
HETATM    1  C1  UNL     1      25.266   5.637  50.409  1.00  0.00     0.061 A 
HETATM    2  C2  UNL     1      26.051   6.351  49.494  1.00  0.00     0.061 A 
HETATM    3  C3  UNL     1      27.003   5.679  48.764  1.00  0.00     0.035 A 
HETATM    4  C14 UNL     1      27.112   4.343  48.987  1.00  0.00     0.032 A 
HETATM    5  C15 UNL     1      26.404   3.544  49.851  1.00  0.00     0.041 A 
HETATM    6  C16 UNL     1      25.451   4.247  50.577  1.00  0.00     0.095 A 
ENDROOT
BRANCH   3   7
HETATM    7  N2  UNL     1      27.825   6.390  47.848  1.00  0.00    -0.340 N 
HETATM    8  H4  UNL     1      27.628   6.246  46.811  1.00  0.00     0.167 HD
BRANCH   7   9
HETATM    9  C4  UNL     1      28.855   7.235  48.348  1.00  0.00     0.142 A 
HETATM   10  N3  UNL     1      28.399   8.414  48.857  1.00  0.00    -0.224 NA
HETATM   11  C5  UNL     1      29.293   9.286  49.354  1.00  0.00     0.236 A 
HETATM   12  N4  UNL     1      30.638   9.041  49.368  1.00  0.00    -0.241 NA
HETATM   13  C6  UNL     1      31.104   7.884  48.871  1.00  0.00     0.072 A 
HETATM   14  C7  UNL     1      30.209   6.974  48.358  1.00  0.00     0.039 A 
HETATM   15  C13 UNL     1      32.547   7.828  48.986  1.00  0.00     0.032 A 
HETATM   16  C8  UNL     1      30.261   5.643  47.781  1.00  0.00     0.018 A 
HETATM   17  C9  UNL     1      31.243   4.791  47.566  1.00  0.00     0.001 A 
HETATM   18  C10 UNL     1      32.699   4.773  47.787  1.00  0.00     0.000 A 
HETATM   19  C11 UNL     1      33.586   5.637  48.256  1.00  0.00     0.000 A 
HETATM   20  C12 UNL     1      33.556   7.018  48.775  1.00  0.00     0.002 A 
ENDBRANCH   7   9
ENDBRANCH   3   7
BRANCH   1  21
HETATM   21  N1  UNL     1      24.267   6.352  51.168  1.00  0.00    -0.397 N 
HETATM   22  H1  UNL     1      24.405   7.408  51.220  1.00  0.00     0.156 HD
HETATM   23  H2  UNL     1      23.496   5.784  51.602  1.00  0.00     0.156 HD
ENDBRANCH   1  21
BRANCH   6  24
HETATM   24  O1  UNL     1      24.665   3.724  51.456  1.00  0.00    -0.344 OA
BRANCH  24  25
HETATM   25  C17 UNL     1      24.154   3.166  52.519  1.00  0.00     0.214 C 
BRANCH  25  26
HETATM   26  C18 UNL     1      24.873   1.959  53.080  1.00  0.00    -0.031 A 
HETATM   27  C19 UNL     1      24.223   0.744  52.810  1.00  0.00     0.009 A 
HETATM   28  C20 UNL     1      24.778  -0.443  53.267  1.00  0.00     0.004 A 
HETATM   29  C21 UNL     1      25.946  -0.492  53.979  1.00  0.00     0.042 A 
HETATM   30  C22 UNL     1      26.570   0.709  54.234  1.00  0.00     0.117 A 
HETATM   31  F1  UNL     1      27.713   0.698  54.923  1.00  0.00    -0.206 F 
HETATM   32  C23 UNL     1      26.031   1.886  53.789  1.00  0.00     0.051 A 
ENDBRANCH  25  26
ENDBRANCH  24  25
ENDBRANCH   6  24
TORSDOF 6
ENDMDL
MODEL 5
REMARK VINA RESULT:      -8.5      4.749      9.118
REMARK  6 active torsions:
REMARK  status: ('A' for Active; 'I' for Inactive)
REMARK    1  A    between atoms: N1_1  and  C1_2 
REMARK    2  A    between atoms: C3_4  and  N2_5 
REMARK    3  A    between atoms: N2_5  and  C4_6 
REMARK    4  A    between atoms: C16_20  and  O1_21 
REMARK    5  A    between atoms: O1_21  and  C17_22 
REMARK    6  A    between atoms: C17_22  and  C18_23 
ROOT
HETATM    1  C1  UNL     1      26.754   4.443  49.343  1.00  0.00     0.061 A 
HETATM    2  C2  UNL     1      27.900   4.731  48.590  1.00  0.00     0.061 A 
HETATM    3  C3  UNL     1      28.145   6.033  48.221  1.00  0.00     0.035 A 
HETATM    4  C14 UNL     1      27.240   6.962  48.624  1.00  0.00     0.032 A 
HETATM    5  C15 UNL     1      26.090   6.797  49.358  1.00  0.00     0.041 A 
HETATM    6  C16 UNL     1      25.865   5.474  49.716  1.00  0.00     0.095 A 
ENDROOT
BRANCH   3   7
HETATM    7  N2  UNL     1      29.290   6.343  47.438  1.00  0.00    -0.340 N 
HETATM    8  H4  UNL     1      29.175   6.304  46.379  1.00  0.00     0.167 HD
BRANCH   7   9
HETATM    9  C4  UNL     1      30.510   6.676  48.090  1.00  0.00     0.142 A 
HETATM   10  N3  UNL     1      30.450   7.831  48.811  1.00  0.00    -0.224 NA
HETATM   11  C5  UNL     1      31.552   8.236  49.465  1.00  0.00     0.236 A 
HETATM   12  N4  UNL     1      32.729   7.540  49.436  1.00  0.00    -0.241 NA
HETATM   13  C6  UNL     1      32.805   6.400  48.731  1.00  0.00     0.072 A 
HETATM   14  C7  UNL     1      31.690   5.963  48.054  1.00  0.00     0.039 A 
HETATM   15  C13 UNL     1      34.131   5.827  48.836  1.00  0.00     0.032 A 
HETATM   16  C8  UNL     1      31.323   4.820  47.237  1.00  0.00     0.018 A 
HETATM   17  C9  UNL     1      31.969   3.732  46.867  1.00  0.00     0.001 A 
HETATM   18  C10 UNL     1      33.312   3.170  47.084  1.00  0.00     0.000 A 
HETATM   19  C11 UNL     1      34.408   3.576  47.708  1.00  0.00     0.000 A 
HETATM   20  C12 UNL     1      34.816   4.767  48.478  1.00  0.00     0.002 A 
ENDBRANCH   7   9
ENDBRANCH   3   7
BRANCH   1  21
HETATM   21  N1  UNL     1      26.508   3.072  49.728  1.00  0.00    -0.397 N 
HETATM   22  H1  UNL     1      25.511   2.727  49.570  1.00  0.00     0.156 HD
HETATM   23  H2  UNL     1      27.317   2.533  50.128  1.00  0.00     0.156 HD
ENDBRANCH   1  21
BRANCH   6  24
HETATM   24  O1  UNL     1      24.852   5.062  50.399  1.00  0.00    -0.344 OA
BRANCH  24  25
HETATM   25  C17 UNL     1      23.971   4.822  51.333  1.00  0.00     0.214 C 
BRANCH  25  26
HETATM   26  C18 UNL     1      23.707   3.373  51.678  1.00  0.00    -0.031 A 
HETATM   27  C19 UNL     1      24.499   2.896  52.736  1.00  0.00     0.009 A 
HETATM   28  C20 UNL     1      24.356   1.582  53.156  1.00  0.00     0.004 A 
HETATM   29  C21 UNL     1      23.468   0.710  52.584  1.00  0.00     0.042 A 
HETATM   30  C22 UNL     1      22.700   1.195  51.548  1.00  0.00     0.117 A 
HETATM   31  F1  UNL     1      21.822   0.374  50.970  1.00  0.00    -0.206 F 
HETATM   32  C23 UNL     1      22.834   2.490  51.126  1.00  0.00     0.051 A 
ENDBRANCH  25  26
ENDBRANCH  24  25
ENDBRANCH   6  24
TORSDOF 6
ENDMDL
MODEL 6
REMARK VINA RESULT:      -8.4      3.610      9.791
REMARK  6 active torsions:
REMARK  status: ('A' for Active; 'I' for Inactive)
REMARK    1  A    between atoms: N1_1  and  C1_2 
REMARK    2  A    between atoms: C3_4  and  N2_5 
REMARK    3  A    between atoms: N2_5  and  C4_6 
REMARK    4  A    between atoms: C16_20  and  O1_21 
REMARK    5  A    between atoms: O1_21  and  C17_22 
REMARK    6  A    between atoms: C17_22  and  C18_23 
ROOT
HETATM    1  C1  UNL     1      24.153   3.641  50.980  1.00  0.00     0.061 A 
HETATM    2  C2  UNL     1      24.340   4.716  50.101  1.00  0.00     0.061 A 
HETATM    3  C3  UNL     1      25.524   4.813  49.408  1.00  0.00     0.035 A 
HETATM    4  C14 UNL     1      26.443   3.837  49.631  1.00  0.00     0.032 A 
HETATM    5  C15 UNL     1      26.370   2.746  50.462  1.00  0.00     0.041 A 
HETATM    6  C16 UNL     1      25.166   2.673  51.151  1.00  0.00     0.095 A 
ENDROOT
BRANCH   3   7
HETATM    7  N2  UNL     1      25.743   5.908  48.529  1.00  0.00    -0.340 N 
HETATM    8  H4  UNL     1      25.497   5.759  47.503  1.00  0.00     0.167 HD
BRANCH   7   9
HETATM    9  C4  UNL     1      26.275   7.122  49.048  1.00  0.00     0.142 A 
HETATM   10  N3  UNL     1      25.371   7.861  49.750  1.00  0.00    -0.224 NA
HETATM   11  C5  UNL     1      25.773   9.029  50.282  1.00  0.00     0.236 A 
HETATM   12  N4  UNL     1      27.048   9.505  50.145  1.00  0.00    -0.241 NA
HETATM   13  C6  UNL     1      27.950   8.789  49.457  1.00  0.00     0.072 A 
HETATM   14  C7  UNL     1      27.564   7.590  48.905  1.00  0.00     0.039 A 
HETATM   15  C13 UNL     1      29.228   9.470  49.438  1.00  0.00     0.032 A 
HETATM   16  C8  UNL     1      28.188   6.517  48.150  1.00  0.00     0.018 A 
HETATM   17  C9  UNL     1      29.422   6.306  47.736  1.00  0.00     0.001 A 
HETATM   18  C10 UNL     1      30.707   7.017  47.826  1.00  0.00     0.000 A 
HETATM   19  C11 UNL     1      31.103   8.177  48.329  1.00  0.00     0.000 A 
HETATM   20  C12 UNL     1      30.465   9.307  49.031  1.00  0.00     0.002 A 
ENDBRANCH   7   9
ENDBRANCH   3   7
BRANCH   1  21
HETATM   21  N1  UNL     1      22.904   3.548  51.700  1.00  0.00    -0.397 N 
HETATM   22  H1  UNL     1      22.773   4.264  52.479  1.00  0.00     0.156 HD
HETATM   23  H2  UNL     1      22.235   2.793  51.404  1.00  0.00     0.156 HD
ENDBRANCH   1  21
BRANCH   6  24
HETATM   24  O1  UNL     1      24.859   1.747  51.995  1.00  0.00    -0.344 OA
BRANCH  24  25
HETATM   25  C17 UNL     1      24.880   0.772  52.863  1.00  0.00     0.214 C 
BRANCH  25  26
HETATM   26  C18 UNL     1      23.554   0.137  53.220  1.00  0.00    -0.031 A 
HETATM   27  C19 UNL     1      23.607  -0.656  54.378  1.00  0.00     0.009 A 
HETATM   28  C20 UNL     1      22.458  -1.296  54.820  1.00  0.00     0.004 A 
HETATM   29  C21 UNL     1      21.255  -1.193  54.175  1.00  0.00     0.042 A 
HETATM   30  C22 UNL     1      21.221  -0.411  53.042  1.00  0.00     0.117 A 
HETATM   31  F1  UNL     1      20.064  -0.286  52.391  1.00  0.00    -0.206 F 
HETATM   32  C23 UNL     1      22.349   0.224  52.597  1.00  0.00     0.051 A 
ENDBRANCH  25  26
ENDBRANCH  24  25
ENDBRANCH   6  24
TORSDOF 6
ENDMDL
MODEL 7
REMARK VINA RESULT:      -8.4      1.546      2.173
REMARK  6 active torsions:
REMARK  status: ('A' for Active; 'I' for Inactive)
REMARK    1  A    between atoms: N1_1  and  C1_2 
REMARK    2  A    between atoms: C3_4  and  N2_5 
REMARK    3  A    between atoms: N2_5  and  C4_6 
REMARK    4  A    between atoms: C16_20  and  O1_21 
REMARK    5  A    between atoms: O1_21  and  C17_22 
REMARK    6  A    between atoms: C17_22  and  C18_23 
ROOT
HETATM    1  C1  UNL     1      25.284   5.712  49.617  1.00  0.00     0.061 A 
HETATM    2  C2  UNL     1      24.639   4.648  50.261  1.00  0.00     0.061 A 
HETATM    3  C3  UNL     1      25.232   3.407  50.257  1.00  0.00     0.035 A 
HETATM    4  C14 UNL     1      26.426   3.304  49.616  1.00  0.00     0.032 A 
HETATM    5  C15 UNL     1      27.146   4.269  48.956  1.00  0.00     0.041 A 
HETATM    6  C16 UNL     1      26.524   5.511  48.973  1.00  0.00     0.095 A 
ENDROOT
BRANCH   3   7
HETATM    7  N2  UNL     1      24.582   2.310  50.885  1.00  0.00    -0.340 N 
HETATM    8  H4  UNL     1      23.608   2.060  50.532  1.00  0.00     0.167 HD
BRANCH   7   9
HETATM    9  C4  UNL     1      25.246   1.617  51.936  1.00  0.00     0.142 A 
HETATM   10  N3  UNL     1      26.587   1.854  51.989  1.00  0.00    -0.224 NA
HETATM   11  C5  UNL     1      27.308   1.245  52.946  1.00  0.00     0.236 A 
HETATM   12  N4  UNL     1      26.753   0.398  53.866  1.00  0.00    -0.241 NA
HETATM   13  C6  UNL     1      25.434   0.155  53.828  1.00  0.00     0.072 A 
HETATM   14  C7  UNL     1      24.673   0.767  52.859  1.00  0.00     0.039 A 
HETATM   15  C13 UNL     1      25.057  -0.760  54.885  1.00  0.00     0.032 A 
HETATM   16  C8  UNL     1      23.271   0.822  52.485  1.00  0.00     0.018 A 
HETATM   17  C9  UNL     1      22.180   0.291  53.000  1.00  0.00     0.001 A 
HETATM   18  C10 UNL     1      21.861  -0.579  54.143  1.00  0.00     0.000 A 
HETATM   19  C11 UNL     1      22.570  -1.199  55.075  1.00  0.00     0.000 A 
HETATM   20  C12 UNL     1      23.999  -1.322  55.420  1.00  0.00     0.002 A 
ENDBRANCH   7   9
ENDBRANCH   3   7
BRANCH   1  21
HETATM   21  N1  UNL     1      24.654   7.012  49.630  1.00  0.00    -0.397 N 
HETATM   22  H1  UNL     1      23.589   7.001  49.575  1.00  0.00     0.156 HD
HETATM   23  H2  UNL     1      25.284   7.850  49.692  1.00  0.00     0.156 HD
ENDBRANCH   1  21
BRANCH   6  24
HETATM   24  O1  UNL     1      26.996   6.575  48.417  1.00  0.00    -0.344 OA
BRANCH  24  25
HETATM   25  C17 UNL     1      27.708   7.439  47.745  1.00  0.00     0.214 C 
BRANCH  25  26
HETATM   26  C18 UNL     1      29.017   7.883  48.360  1.00  0.00    -0.031 A 
HETATM   27  C19 UNL     1      29.998   6.878  48.375  1.00  0.00     0.009 A 
HETATM   28  C20 UNL     1      31.248   7.153  48.910  1.00  0.00     0.004 A 
HETATM   29  C21 UNL     1      31.581   8.374  49.433  1.00  0.00     0.042 A 
HETATM   30  C22 UNL     1      30.607   9.347  49.410  1.00  0.00     0.117 A 
HETATM   31  F1  UNL     1      30.899  10.550  49.908  1.00  0.00    -0.206 F 
HETATM   32  C23 UNL     1      29.370   9.086  48.885  1.00  0.00     0.051 A 
ENDBRANCH  25  26
ENDBRANCH  24  25
ENDBRANCH   6  24
TORSDOF 6
ENDMDL
MODEL 8
REMARK VINA RESULT:      -8.3      3.280      9.207
REMARK  6 active torsions:
REMARK  status: ('A' for Active; 'I' for Inactive)
REMARK    1  A    between atoms: N1_1  and  C1_2 
REMARK    2  A    between atoms: C3_4  and  N2_5 
REMARK    3  A    between atoms: N2_5  and  C4_6 
REMARK    4  A    between atoms: C16_20  and  O1_21 
REMARK    5  A    between atoms: O1_21  and  C17_22 
REMARK    6  A    between atoms: C17_22  and  C18_23 
ROOT
HETATM    1  C1  UNL     1      25.189   5.296  50.539  1.00  0.00     0.061 A 
HETATM    2  C2  UNL     1      25.765   6.205  49.642  1.00  0.00     0.061 A 
HETATM    3  C3  UNL     1      26.779   5.777  48.817  1.00  0.00     0.035 A 
HETATM    4  C14 UNL     1      27.152   4.476  48.934  1.00  0.00     0.032 A 
HETATM    5  C15 UNL     1      26.664   3.502  49.771  1.00  0.00     0.041 A 
HETATM    6  C16 UNL     1      25.644   3.960  50.594  1.00  0.00     0.095 A 
ENDROOT
BRANCH   3   7
HETATM    7  N2  UNL     1      27.392   6.690  47.916  1.00  0.00    -0.340 N 
HETATM    8  H4  UNL     1      26.856   6.921  47.024  1.00  0.00     0.167 HD
BRANCH   7   9
HETATM    9  C4  UNL     1      28.667   7.234  48.237  1.00  0.00     0.142 A 
HETATM   10  N3  UNL     1      29.660   6.304  48.302  1.00  0.00    -0.224 NA
HETATM   11  C5  UNL     1      30.905   6.715  48.601  1.00  0.00     0.236 A 
HETATM   12  N4  UNL     1      31.214   8.025  48.844  1.00  0.00    -0.241 NA
HETATM   13  C6  UNL     1      30.247   8.954  48.782  1.00  0.00     0.072 A 
HETATM   14  C7  UNL     1      28.965   8.559  48.477  1.00  0.00     0.039 A 
HETATM   15  C13 UNL     1      30.788  10.267  49.068  1.00  0.00     0.032 A 
HETATM   16  C8  UNL     1      27.677   9.197  48.274  1.00  0.00     0.018 A 
HETATM   17  C9  UNL     1      27.281  10.454  48.287  1.00  0.00     0.001 A 
HETATM   18  C10 UNL     1      27.916  11.763  48.509  1.00  0.00     0.000 A 
HETATM   19  C11 UNL     1      29.136  12.172  48.825  1.00  0.00     0.000 A 
HETATM   20  C12 UNL     1      30.434  11.530  49.107  1.00  0.00     0.002 A 
ENDBRANCH   7   9
ENDBRANCH   3   7
BRANCH   1  21
HETATM   21  N1  UNL     1      24.122   5.755  51.398  1.00  0.00    -0.397 N 
HETATM   22  H1  UNL     1      23.137   5.596  51.024  1.00  0.00     0.156 HD
HETATM   23  H2  UNL     1      24.399   6.202  52.308  1.00  0.00     0.156 HD
ENDBRANCH   1  21
BRANCH   6  24
HETATM   24  O1  UNL     1      25.028   3.240  51.469  1.00  0.00    -0.344 OA
BRANCH  24  25
HETATM   25  C17 UNL     1      24.716   2.412  52.429  1.00  0.00     0.214 C 
BRANCH  25  26
HETATM   26  C18 UNL     1      25.776   1.423  52.860  1.00  0.00    -0.031 A 
HETATM   27  C19 UNL     1      25.893   0.317  52.002  1.00  0.00     0.009 A 
HETATM   28  C20 UNL     1      26.831  -0.666  52.281  1.00  0.00     0.004 A 
HETATM   29  C21 UNL     1      27.663  -0.614  53.368  1.00  0.00     0.042 A 
HETATM   30  C22 UNL     1      27.535   0.478  54.198  1.00  0.00     0.117 A 
HETATM   31  F1  UNL     1      28.333   0.563  55.263  1.00  0.00    -0.206 F 
HETATM   32  C23 UNL     1      26.612   1.453  53.932  1.00  0.00     0.051 A 
ENDBRANCH  25  26
ENDBRANCH  24  25
ENDBRANCH   6  24
TORSDOF 6
ENDMDL
MODEL 9
REMARK VINA RESULT:      -8.2      7.737     11.556
REMARK  6 active torsions:
REMARK  status: ('A' for Active; 'I' for Inactive)
REMARK    1  A    between atoms: N1_1  and  C1_2 
REMARK    2  A    between atoms: C3_4  and  N2_5 
REMARK    3  A    between atoms: N2_5  and  C4_6 
REMARK    4  A    between atoms: C16_20  and  O1_21 
REMARK    5  A    between atoms: O1_21  and  C17_22 
REMARK    6  A    between atoms: C17_22  and  C18_23 
ROOT
HETATM    1  C1  UNL     1      18.129  -1.230  53.242  1.00  0.00     0.061 A 
HETATM    2  C2  UNL     1      16.845  -0.950  52.757  1.00  0.00     0.061 A 
HETATM    3  C3  UNL     1      16.673   0.112  51.900  1.00  0.00     0.035 A 
HETATM    4  C14 UNL     1      17.784   0.824  51.579  1.00  0.00     0.032 A 
HETATM    5  C15 UNL     1      19.083   0.644  51.991  1.00  0.00     0.041 A 
HETATM    6  C16 UNL     1      19.229  -0.432  52.857  1.00  0.00     0.095 A 
ENDROOT
BRANCH   3   7
HETATM    7  N2  UNL     1      15.374   0.426  51.414  1.00  0.00    -0.340 N 
HETATM    8  H4  UNL     1      14.860  -0.340  50.881  1.00  0.00     0.167 HD
BRANCH   7   9
HETATM    9  C4  UNL     1      14.838   1.723  51.651  1.00  0.00     0.142 A 
HETATM   10  N3  UNL     1      15.277   2.667  50.772  1.00  0.00    -0.224 NA
HETATM   11  C5  UNL     1      14.830   3.928  50.910  1.00  0.00     0.236 A 
HETATM   12  N4  UNL     1      13.957   4.300  51.895  1.00  0.00    -0.241 NA
HETATM   13  C6  UNL     1      13.514   3.382  52.767  1.00  0.00     0.072 A 
HETATM   14  C7  UNL     1      13.955   2.085  52.647  1.00  0.00     0.039 A 
HETATM   15  C13 UNL     1      12.602   3.985  53.718  1.00  0.00     0.032 A 
HETATM   16  C8  UNL     1      13.719   0.816  53.312  1.00  0.00     0.018 A 
HETATM   17  C9  UNL     1      12.931   0.450  54.303  1.00  0.00     0.001 A 
HETATM   18  C10 UNL     1      11.956   1.115  55.183  1.00  0.00     0.000 A 
HETATM   19  C11 UNL     1      11.529   2.360  55.338  1.00  0.00     0.000 A 
HETATM   20  C12 UNL     1      11.815   3.669  54.718  1.00  0.00     0.002 A 
ENDBRANCH   7   9
ENDBRANCH   3   7
BRANCH   1  21
HETATM   21  N1  UNL     1      18.299  -2.349  54.140  1.00  0.00    -0.397 N 
HETATM   22  H1  UNL     1      18.468  -2.092  55.160  1.00  0.00     0.156 HD
HETATM   23  H2  UNL     1      18.245  -3.312  53.721  1.00  0.00     0.156 HD
ENDBRANCH   1  21
BRANCH   6  24
HETATM   24  O1  UNL     1      20.345  -0.802  53.386  1.00  0.00    -0.344 OA
BRANCH  24  25
HETATM   25  C17 UNL     1      21.457  -0.874  54.066  1.00  0.00     0.214 C 
BRANCH  25  26
HETATM   26  C18 UNL     1      22.686  -0.242  53.451  1.00  0.00    -0.031 A 
HETATM   27  C19 UNL     1      23.886  -0.636  54.065  1.00  0.00     0.009 A 
HETATM   28  C20 UNL     1      25.090  -0.130  53.596  1.00  0.00     0.004 A 
HETATM   29  C21 UNL     1      25.171   0.748  52.549  1.00  0.00     0.042 A 
HETATM   30  C22 UNL     1      23.984   1.123  51.959  1.00  0.00     0.117 A 
HETATM   31  F1  UNL     1      24.027   1.975  50.933  1.00  0.00    -0.206 F 
HETATM   32  C23 UNL     1      22.791   0.631  52.414  1.00  0.00     0.051 A 
ENDBRANCH  25  26
ENDBRANCH  24  25
ENDBRANCH   6  24
TORSDOF 6
ENDMDL
