MODEL 1
REMARK VINA RESULT:      -9.0      0.000      0.000
REMARK  3 active torsions:
REMARK  status: ('A' for Active; 'I' for Inactive)
REMARK    1  A    between atoms: C8_11  and  O1_12 
REMARK    2  A    between atoms: O1_12  and  C9_13 
REMARK    3  A    between atoms: C13_17  and  N4_18 
ROOT
HETATM    1  C1  UNL     1      24.084   1.386  51.854  1.00  0.00     0.049 C 
HETATM    2  C2  UNL     1      22.983   0.636  52.466  1.00  0.00    -0.044 C 
HETATM    3  C3  UNL     1      21.741   0.657  51.944  1.00  0.00     0.009 C 
HETATM    4  C4  UNL     1      20.435   0.076  52.239  1.00  0.00     0.018 C 
HETATM    5  C5  UNL     1      20.145  -0.493  53.398  1.00  0.00     0.090 C 
HETATM    6  N1  UNL     1      20.926  -0.691  54.581  1.00  0.00    -0.350 N 
HETATM    7  C6  UNL     1      22.364  -0.750  54.610  1.00  0.00     0.143 A 
HETATM    8  N2  UNL     1      22.805  -1.447  55.658  1.00  0.00    -0.223 NA
HETATM    9  C7  UNL     1      24.146  -1.578  55.797  1.00  0.00     0.238 A 
HETATM   10  N3  UNL     1      25.028  -1.034  54.922  1.00  0.00    -0.217 NA
HETATM   11  C8  UNL     1      24.558  -0.337  53.876  1.00  0.00     0.185 A 
HETATM   12  C15 UNL     1      23.218  -0.172  53.686  1.00  0.00     0.069 A 
HETATM   13  H7  UNL     1      20.440  -0.804  55.498  1.00  0.00     0.166 HD
ENDROOT
BRANCH  11  14
HETATM   14  O1  UNL     1      25.485   0.200  53.009  1.00  0.00    -0.291 OA
BRANCH  14  15
HETATM   15  C9  UNL     1      26.837  -0.053  53.202  1.00  0.00     0.080 A 
HETATM   16  C10 UNL     1      27.559  -1.205  52.963  1.00  0.00     0.037 A 
HETATM   17  C11 UNL     1      28.908  -1.229  53.232  1.00  0.00     0.005 A 
HETATM   18  C12 UNL     1      29.560  -0.111  53.743  1.00  0.00     0.029 A 
HETATM   19  C13 UNL     1      28.845   1.054  53.988  1.00  0.00     0.028 A 
HETATM   20  C14 UNL     1      27.480   1.074  53.713  1.00  0.00     0.066 A 
BRANCH  19  21
HETATM   21  N4  UNL     1      29.553   2.175  54.511  1.00  0.00    -0.399 N 
HETATM   22  H12 UNL     1      29.679   3.065  53.973  1.00  0.00     0.156 HD
HETATM   23  H13 UNL     1      29.935   2.035  55.476  1.00  0.00     0.156 HD
ENDBRANCH  19  21
ENDBRANCH  14  15
ENDBRANCH  11  14
TORSDOF 3
ENDMDL
MODEL 2
REMARK VINA RESULT:      -8.0      2.813      4.051
REMARK  3 active torsions:
REMARK  status: ('A' for Active; 'I' for Inactive)
REMARK    1  A    between atoms: C8_11  and  O1_12 
REMARK    2  A    between atoms: O1_12  and  C9_13 
REMARK    3  A    between atoms: C13_17  and  N4_18 
ROOT
HETATM    1  C1  UNL     1      23.849   0.103  53.363  1.00  0.00     0.049 C 
HETATM    2  C2  UNL     1      23.406   1.225  52.529  1.00  0.00    -0.044 C 
HETATM    3  C3  UNL     1      22.132   1.664  52.559  1.00  0.00     0.009 C 
HETATM    4  C4  UNL     1      21.332   2.700  51.916  1.00  0.00     0.018 C 
HETATM    5  C5  UNL     1      21.735   3.358  50.840  1.00  0.00     0.090 C 
HETATM    6  N1  UNL     1      22.936   3.268  50.067  1.00  0.00    -0.350 N 
HETATM    7  C6  UNL     1      24.194   2.781  50.566  1.00  0.00     0.143 A 
HETATM    8  N2  UNL     1      25.222   3.279  49.877  1.00  0.00    -0.223 NA
HETATM    9  C7  UNL     1      26.465   2.898  50.252  1.00  0.00     0.238 A 
HETATM   10  N3  UNL     1      26.688   2.045  51.283  1.00  0.00    -0.217 NA
HETATM   11  C8  UNL     1      25.638   1.558  51.960  1.00  0.00     0.185 A 
HETATM   12  C15 UNL     1      24.363   1.906  51.627  1.00  0.00     0.069 A 
HETATM   13  H7  UNL     1      22.921   3.574  49.069  1.00  0.00     0.166 HD
ENDROOT
BRANCH  11  14
HETATM   14  O1  UNL     1      25.904   0.694  53.001  1.00  0.00    -0.291 OA
BRANCH  14  15
HETATM   15  C9  UNL     1      27.202   0.244  53.208  1.00  0.00     0.080 A 
HETATM   16  C10 UNL     1      28.340   0.958  53.525  1.00  0.00     0.037 A 
HETATM   17  C11 UNL     1      29.535   0.294  53.685  1.00  0.00     0.005 A 
HETATM   18  C12 UNL     1      29.618  -1.086  53.533  1.00  0.00     0.029 A 
HETATM   19  C13 UNL     1      28.480  -1.816  53.214  1.00  0.00     0.028 A 
HETATM   20  C14 UNL     1      27.273  -1.140  53.053  1.00  0.00     0.066 A 
BRANCH  19  21
HETATM   21  N4  UNL     1      28.610  -3.228  53.067  1.00  0.00    -0.399 N 
HETATM   22  H12 UNL     1      28.726  -3.691  52.135  1.00  0.00     0.156 HD
HETATM   23  H13 UNL     1      28.579  -3.761  53.968  1.00  0.00     0.156 HD
ENDBRANCH  19  21
ENDBRANCH  14  15
ENDBRANCH  11  14
TORSDOF 3
ENDMDL
MODEL 3
REMARK VINA RESULT:      -7.7      1.638      2.253
REMARK  3 active torsions:
REMARK  status: ('A' for Active; 'I' for Inactive)
REMARK    1  A    between atoms: C8_11  and  O1_12 
REMARK    2  A    between atoms: O1_12  and  C9_13 
REMARK    3  A    between atoms: C13_17  and  N4_18 
ROOT
HETATM    1  C1  UNL     1      24.756   3.064  51.437  1.00  0.00     0.049 C 
HETATM    2  C2  UNL     1      23.643   2.193  51.044  1.00  0.00    -0.044 C 
HETATM    3  C3  UNL     1      22.995   2.364  49.875  1.00  0.00     0.009 C 
HETATM    4  C4  UNL     1      21.891   1.741  49.151  1.00  0.00     0.018 C 
HETATM    5  C5  UNL     1      21.046   0.894  49.716  1.00  0.00     0.090 C 
HETATM    6  N1  UNL     1      20.960   0.387  51.051  1.00  0.00    -0.350 N 
HETATM    7  C6  UNL     1      22.067   0.305  51.967  1.00  0.00     0.143 A 
HETATM    8  N2  UNL     1      21.878  -0.645  52.883  1.00  0.00    -0.223 NA
HETATM    9  C7  UNL     1      22.854  -0.824  53.804  1.00  0.00     0.238 A 
HETATM   10  N3  UNL     1      23.989  -0.081  53.820  1.00  0.00    -0.217 NA
HETATM   11  C8  UNL     1      24.155   0.868  52.887  1.00  0.00     0.185 A 
HETATM   12  C15 UNL     1      23.206   1.093  51.935  1.00  0.00     0.069 A 
HETATM   13  H7  UNL     1      20.041   0.044  51.407  1.00  0.00     0.166 HD
ENDROOT
BRANCH  11  14
HETATM   14  O1  UNL     1      25.321   1.601  52.936  1.00  0.00    -0.291 OA
BRANCH  14  15
HETATM   15  C9  UNL     1      26.536   0.954  53.121  1.00  0.00     0.080 A 
HETATM   16  C10 UNL     1      26.902  -0.336  52.794  1.00  0.00     0.037 A 
HETATM   17  C11 UNL     1      28.178  -0.771  53.075  1.00  0.00     0.005 A 
HETATM   18  C12 UNL     1      29.106   0.067  53.683  1.00  0.00     0.029 A 
HETATM   19  C13 UNL     1      28.750   1.367  54.017  1.00  0.00     0.028 A 
HETATM   20  C14 UNL     1      27.459   1.803  53.731  1.00  0.00     0.066 A 
BRANCH  19  21
HETATM   21  N4  UNL     1      29.732   2.191  54.639  1.00  0.00    -0.399 N 
HETATM   22  H12 UNL     1      30.759   2.001  54.564  1.00  0.00     0.156 HD
HETATM   23  H13 UNL     1      29.342   3.001  55.176  1.00  0.00     0.156 HD
ENDBRANCH  19  21
ENDBRANCH  14  15
ENDBRANCH  11  14
TORSDOF 3
ENDMDL
MODEL 4
REMARK VINA RESULT:      -7.6      2.113      3.183
REMARK  3 active torsions:
REMARK  status: ('A' for Active; 'I' for Inactive)
REMARK    1  A    between atoms: C8_11  and  O1_12 
REMARK    2  A    between atoms: O1_12  and  C9_13 
REMARK    3  A    between atoms: C13_17  and  N4_18 
ROOT
HETATM    1  C1  UNL     1      22.384  -1.238  54.395  1.00  0.00     0.049 C 
HETATM    2  C2  UNL     1      21.327  -0.699  53.533  1.00  0.00    -0.044 C 
HETATM    3  C3  UNL     1      20.026  -0.962  53.766  1.00  0.00     0.009 C 
HETATM    4  C4  UNL     1      18.735  -0.633  53.173  1.00  0.00     0.018 C 
HETATM    5  C5  UNL     1      18.609  -0.111  51.962  1.00  0.00     0.090 C 
HETATM    6  N1  UNL     1      19.585   0.247  50.978  1.00  0.00    -0.350 N 
HETATM    7  C6  UNL     1      20.955   0.576  51.267  1.00  0.00     0.143 A 
HETATM    8  N2  UNL     1      21.482   1.359  50.325  1.00  0.00    -0.223 NA
HETATM    9  C7  UNL     1      22.771   1.743  50.484  1.00  0.00     0.238 A 
HETATM   10  N3  UNL     1      23.521   1.362  51.548  1.00  0.00    -0.217 NA
HETATM   11  C8  UNL     1      22.967   0.574  52.482  1.00  0.00     0.185 A 
HETATM   12  C15 UNL     1      21.674   0.156  52.374  1.00  0.00     0.069 A 
HETATM   13  H7  UNL     1      19.303   0.281  49.973  1.00  0.00     0.166 HD
ENDROOT
BRANCH  11  14
HETATM   14  O1  UNL     1      23.761   0.208  53.548  1.00  0.00    -0.291 OA
BRANCH  14  15
HETATM   15  C9  UNL     1      25.134   0.089  53.377  1.00  0.00     0.080 A 
HETATM   16  C10 UNL     1      25.866  -0.959  52.856  1.00  0.00     0.037 A 
HETATM   17  C11 UNL     1      27.237  -0.857  52.781  1.00  0.00     0.005 A 
HETATM   18  C12 UNL     1      27.899   0.283  53.223  1.00  0.00     0.029 A 
HETATM   19  C13 UNL     1      27.174   1.344  53.749  1.00  0.00     0.028 A 
HETATM   20  C14 UNL     1      25.787   1.237  53.822  1.00  0.00     0.066 A 
BRANCH  19  21
HETATM   21  N4  UNL     1      27.893   2.493  54.189  1.00  0.00    -0.399 N 
HETATM   22  H12 UNL     1      28.927   2.485  54.353  1.00  0.00     0.156 HD
HETATM   23  H13 UNL     1      27.301   3.345  54.335  1.00  0.00     0.156 HD
ENDBRANCH  19  21
ENDBRANCH  14  15
ENDBRANCH  11  14
TORSDOF 3
ENDMDL
MODEL 5
REMARK VINA RESULT:      -7.5      3.443      5.302
REMARK  3 active torsions:
REMARK  status: ('A' for Active; 'I' for Inactive)
REMARK    1  A    between atoms: C8_11  and  O1_12 
REMARK    2  A    between atoms: O1_12  and  C9_13 
REMARK    3  A    between atoms: C13_17  and  N4_18 
ROOT
HETATM    1  C1  UNL     1      23.541   1.698  51.835  1.00  0.00     0.049 C 
HETATM    2  C2  UNL     1      24.266   0.913  52.839  1.00  0.00    -0.044 C 
HETATM    3  C3  UNL     1      23.670  -0.095  53.508  1.00  0.00     0.009 C 
HETATM    4  C4  UNL     1      24.027  -1.069  54.534  1.00  0.00     0.018 C 
HETATM    5  C5  UNL     1      25.121  -0.971  55.272  1.00  0.00     0.090 C 
HETATM    6  N1  UNL     1      26.167   0.006  55.293  1.00  0.00    -0.350 N 
HETATM    7  C6  UNL     1      26.523   0.846  54.181  1.00  0.00     0.143 A 
HETATM    8  N2  UNL     1      27.792   1.248  54.254  1.00  0.00    -0.223 NA
HETATM    9  C7  UNL     1      28.251   2.045  53.261  1.00  0.00     0.238 A 
HETATM   10  N3  UNL     1      27.474   2.436  52.220  1.00  0.00    -0.217 NA
HETATM   11  C8  UNL     1      26.200   2.019  52.169  1.00  0.00     0.185 A 
HETATM   12  C15 UNL     1      25.684   1.215  53.142  1.00  0.00     0.069 A 
HETATM   13  H7  UNL     1      26.726   0.132  56.165  1.00  0.00     0.166 HD
ENDROOT
BRANCH  11  14
HETATM   14  O1  UNL     1      25.443   2.437  51.097  1.00  0.00    -0.291 OA
BRANCH  14  15
HETATM   15  C9  UNL     1      25.848   3.538  50.353  1.00  0.00     0.080 A 
HETATM   16  C10 UNL     1      26.844   3.637  49.402  1.00  0.00     0.037 A 
HETATM   17  C11 UNL     1      27.074   4.845  48.784  1.00  0.00     0.005 A 
HETATM   18  C12 UNL     1      26.321   5.970  49.101  1.00  0.00     0.029 A 
HETATM   19  C13 UNL     1      25.317   5.884  50.056  1.00  0.00     0.028 A 
HETATM   20  C14 UNL     1      25.087   4.659  50.679  1.00  0.00     0.066 A 
BRANCH  19  21
HETATM   21  N4  UNL     1      24.569   7.061  50.350  1.00  0.00    -0.399 N 
HETATM   22  H12 UNL     1      24.858   8.011  50.018  1.00  0.00     0.156 HD
HETATM   23  H13 UNL     1      23.710   6.897  50.926  1.00  0.00     0.156 HD
ENDBRANCH  19  21
ENDBRANCH  14  15
ENDBRANCH  11  14
TORSDOF 3
ENDMDL
MODEL 6
REMARK VINA RESULT:      -7.5      1.961      2.854
REMARK  3 active torsions:
REMARK  status: ('A' for Active; 'I' for Inactive)
REMARK    1  A    between atoms: C8_11  and  O1_12 
REMARK    2  A    between atoms: O1_12  and  C9_13 
REMARK    3  A    between atoms: C13_17  and  N4_18 
ROOT
HETATM    1  C1  UNL     1      25.903   2.720  50.800  1.00  0.00     0.049 C 
HETATM    2  C2  UNL     1      24.482   2.373  50.913  1.00  0.00    -0.044 C 
HETATM    3  C3  UNL     1      23.559   2.910  50.090  1.00  0.00     0.009 C 
HETATM    4  C4  UNL     1      22.117   2.828  49.886  1.00  0.00     0.018 C 
HETATM    5  C5  UNL     1      21.293   2.290  50.772  1.00  0.00     0.090 C 
HETATM    6  N1  UNL     1      21.532   1.693  52.050  1.00  0.00    -0.350 N 
HETATM    7  C6  UNL     1      22.779   1.101  52.455  1.00  0.00     0.143 A 
HETATM    8  N2  UNL     1      22.601   0.184  53.407  1.00  0.00    -0.223 NA
HETATM    9  C7  UNL     1      23.703  -0.450  53.873  1.00  0.00     0.238 A 
HETATM   10  N3  UNL     1      24.950  -0.185  53.410  1.00  0.00    -0.217 NA
HETATM   11  C8  UNL     1      25.102   0.742  52.453  1.00  0.00     0.185 A 
HETATM   12  C15 UNL     1      24.029   1.413  51.946  1.00  0.00     0.069 A 
HETATM   13  H7  UNL     1      20.761   1.673  52.753  1.00  0.00     0.166 HD
ENDROOT
BRANCH  11  14
HETATM   14  O1  UNL     1      26.384   0.984  52.007  1.00  0.00    -0.291 OA
BRANCH  14  15
HETATM   15  C9  UNL     1      27.465   0.438  52.688  1.00  0.00     0.080 A 
HETATM   16  C10 UNL     1      28.455   1.069  53.413  1.00  0.00     0.037 A 
HETATM   17  C11 UNL     1      29.441   0.317  54.011  1.00  0.00     0.005 A 
HETATM   18  C12 UNL     1      29.458  -1.069  53.898  1.00  0.00     0.029 A 
HETATM   19  C13 UNL     1      28.467  -1.715  53.171  1.00  0.00     0.028 A 
HETATM   20  C14 UNL     1      27.472  -0.951  52.568  1.00  0.00     0.066 A 
BRANCH  19  21
HETATM   21  N4  UNL     1      28.523  -3.137  53.081  1.00  0.00    -0.399 N 
HETATM   22  H12 UNL     1      29.426  -3.668  53.073  1.00  0.00     0.156 HD
HETATM   23  H13 UNL     1      27.588  -3.604  53.022  1.00  0.00     0.156 HD
ENDBRANCH  19  21
ENDBRANCH  14  15
ENDBRANCH  11  14
TORSDOF 3
ENDMDL
MODEL 7
REMARK VINA RESULT:      -7.5      2.827      7.165
REMARK  3 active torsions:
REMARK  status: ('A' for Active; 'I' for Inactive)
REMARK    1  A    between atoms: C8_11  and  O1_12 
REMARK    2  A    between atoms: O1_12  and  C9_13 
REMARK    3  A    between atoms: C13_17  and  N4_18 
ROOT
HETATM    1  C1  UNL     1      23.486  -0.599  53.663  1.00  0.00     0.049 C 
HETATM    2  C2  UNL     1      24.329   0.373  52.959  1.00  0.00    -0.044 C 
HETATM    3  C3  UNL     1      25.609   0.095  52.640  1.00  0.00     0.009 C 
HETATM    4  C4  UNL     1      26.724   0.759  51.975  1.00  0.00     0.018 C 
HETATM    5  C5  UNL     1      26.743   2.058  51.722  1.00  0.00     0.090 C 
HETATM    6  N1  UNL     1      25.790   3.092  51.992  1.00  0.00    -0.350 N 
HETATM    7  C6  UNL     1      24.378   2.876  52.164  1.00  0.00     0.143 A 
HETATM    8  N2  UNL     1      23.675   3.971  51.871  1.00  0.00    -0.223 NA
HETATM    9  C7  UNL     1      22.329   3.895  51.991  1.00  0.00     0.238 A 
HETATM   10  N3  UNL     1      21.692   2.766  52.391  1.00  0.00    -0.217 NA
HETATM   11  C8  UNL     1      22.423   1.679  52.680  1.00  0.00     0.185 A 
HETATM   12  C15 UNL     1      23.782   1.696  52.578  1.00  0.00     0.069 A 
HETATM   13  H7  UNL     1      26.120   4.079  52.071  1.00  0.00     0.166 HD
ENDROOT
BRANCH  11  14
HETATM   14  O1  UNL     1      21.741   0.551  53.083  1.00  0.00    -0.291 OA
BRANCH  14  15
HETATM   15  C9  UNL     1      20.504   0.257  52.524  1.00  0.00     0.080 A 
HETATM   16  C10 UNL     1      19.997   0.595  51.286  1.00  0.00     0.037 A 
HETATM   17  C11 UNL     1      18.728   0.190  50.939  1.00  0.00     0.005 A 
HETATM   18  C12 UNL     1      17.945  -0.554  51.815  1.00  0.00     0.029 A 
HETATM   19  C13 UNL     1      18.443  -0.899  53.064  1.00  0.00     0.028 A 
HETATM   20  C14 UNL     1      19.728  -0.489  53.411  1.00  0.00     0.066 A 
BRANCH  19  21
HETATM   21  N4  UNL     1      17.607  -1.662  53.931  1.00  0.00    -0.399 N 
HETATM   22  H12 UNL     1      16.914  -1.221  54.580  1.00  0.00     0.156 HD
HETATM   23  H13 UNL     1      17.744  -2.699  53.863  1.00  0.00     0.156 HD
ENDBRANCH  19  21
ENDBRANCH  14  15
ENDBRANCH  11  14
TORSDOF 3
ENDMDL
MODEL 8
REMARK VINA RESULT:      -7.5      2.335      5.885
REMARK  3 active torsions:
REMARK  status: ('A' for Active; 'I' for Inactive)
REMARK    1  A    between atoms: C8_11  and  O1_12 
REMARK    2  A    between atoms: O1_12  and  C9_13 
REMARK    3  A    between atoms: C13_17  and  N4_18 
ROOT
HETATM    1  C1  UNL     1      26.429   1.958  51.075  1.00  0.00     0.049 C 
HETATM    2  C2  UNL     1      26.939   1.523  52.379  1.00  0.00    -0.044 C 
HETATM    3  C3  UNL     1      28.139   1.932  52.837  1.00  0.00     0.009 C 
HETATM    4  C4  UNL     1      28.966   1.736  54.023  1.00  0.00     0.018 C 
HETATM    5  C5  UNL     1      28.739   0.780  54.910  1.00  0.00     0.090 C 
HETATM    6  N1  UNL     1      27.734  -0.237  54.973  1.00  0.00    -0.350 N 
HETATM    7  C6  UNL     1      26.444  -0.152  54.341  1.00  0.00     0.143 A 
HETATM    8  N2  UNL     1      25.543  -0.915  54.959  1.00  0.00    -0.223 NA
HETATM    9  C7  UNL     1      24.284  -0.919  54.460  1.00  0.00     0.238 A 
HETATM   10  N3  UNL     1      23.926  -0.187  53.375  1.00  0.00    -0.217 NA
HETATM   11  C8  UNL     1      24.852   0.572  52.771  1.00  0.00     0.185 A 
HETATM   12  C15 UNL     1      26.135   0.615  53.230  1.00  0.00     0.069 A 
HETATM   13  H7  UNL     1      27.927  -1.109  55.513  1.00  0.00     0.166 HD
ENDROOT
BRANCH  11  14
HETATM   14  O1  UNL     1      24.450   1.301  51.673  1.00  0.00    -0.291 OA
BRANCH  14  15
HETATM   15  C9  UNL     1      23.231   1.968  51.696  1.00  0.00     0.080 A 
HETATM   16  C10 UNL     1      21.971   1.505  51.376  1.00  0.00     0.037 A 
HETATM   17  C11 UNL     1      20.892   2.354  51.474  1.00  0.00     0.005 A 
HETATM   18  C12 UNL     1      21.048   3.672  51.889  1.00  0.00     0.029 A 
HETATM   19  C13 UNL     1      22.311   4.150  52.212  1.00  0.00     0.028 A 
HETATM   20  C14 UNL     1      23.400   3.288  52.113  1.00  0.00     0.066 A 
BRANCH  19  21
HETATM   21  N4  UNL     1      22.426   5.507  52.633  1.00  0.00    -0.399 N 
HETATM   22  H12 UNL     1      23.349   5.995  52.722  1.00  0.00     0.156 HD
HETATM   23  H13 UNL     1      21.513   5.974  52.846  1.00  0.00     0.156 HD
ENDBRANCH  19  21
ENDBRANCH  14  15
ENDBRANCH  11  14
TORSDOF 3
ENDMDL
MODEL 9
REMARK VINA RESULT:      -7.5      3.484      6.037
REMARK  3 active torsions:
REMARK  status: ('A' for Active; 'I' for Inactive)
REMARK    1  A    between atoms: C8_11  and  O1_12 
REMARK    2  A    between atoms: O1_12  and  C9_13 
REMARK    3  A    between atoms: C13_17  and  N4_18 
ROOT
HETATM    1  C1  UNL     1      26.456   1.517  51.214  1.00  0.00     0.049 C 
HETATM    2  C2  UNL     1      26.057   2.834  50.708  1.00  0.00    -0.044 C 
HETATM    3  C3  UNL     1      26.780   3.477  49.770  1.00  0.00     0.009 C 
HETATM    4  C4  UNL     1      26.724   4.739  49.039  1.00  0.00     0.018 C 
HETATM    5  C5  UNL     1      25.939   5.743  49.395  1.00  0.00     0.090 C 
HETATM    6  N1  UNL     1      25.013   5.887  50.477  1.00  0.00    -0.350 N 
HETATM    7  C6  UNL     1      24.362   4.792  51.146  1.00  0.00     0.143 A 
HETATM    8  N2  UNL     1      23.210   5.172  51.702  1.00  0.00    -0.223 NA
HETATM    9  C7  UNL     1      22.497   4.228  52.361  1.00  0.00     0.238 A 
HETATM   10  N3  UNL     1      22.913   2.941  52.469  1.00  0.00    -0.217 NA
HETATM   11  C8  UNL     1      24.074   2.586  51.901  1.00  0.00     0.185 A 
HETATM   12  C15 UNL     1      24.834   3.493  51.225  1.00  0.00     0.069 A 
HETATM   13  H7  UNL     1      24.777   6.844  50.820  1.00  0.00     0.166 HD
ENDROOT
BRANCH  11  14
HETATM   14  O1  UNL     1      24.462   1.269  52.032  1.00  0.00    -0.291 OA
BRANCH  14  15
HETATM   15  C9  UNL     1      23.744   0.417  52.861  1.00  0.00     0.080 A 
HETATM   16  C10 UNL     1      22.425   0.017  52.778  1.00  0.00     0.037 A 
HETATM   17  C11 UNL     1      21.918  -0.845  53.723  1.00  0.00     0.005 A 
HETATM   18  C12 UNL     1      22.709  -1.321  54.763  1.00  0.00     0.029 A 
HETATM   19  C13 UNL     1      24.037  -0.924  54.858  1.00  0.00     0.028 A 
HETATM   20  C14 UNL     1      24.547  -0.053  53.899  1.00  0.00     0.066 A 
BRANCH  19  21
HETATM   21  N4  UNL     1      24.812  -1.436  55.940  1.00  0.00    -0.399 N 
HETATM   22  H12 UNL     1      25.855  -1.521  55.896  1.00  0.00     0.156 HD
HETATM   23  H13 UNL     1      24.253  -1.719  56.778  1.00  0.00     0.156 HD
ENDBRANCH  19  21
ENDBRANCH  14  15
ENDBRANCH  11  14
TORSDOF 3
ENDMDL
