MODEL 1
REMARK VINA RESULT:      -9.6      0.000      0.000
REMARK  6 active torsions:
REMARK  status: ('A' for Active; 'I' for Inactive)
REMARK    1  A    between atoms: O1_2  and  C2_3 
REMARK    2  A    between atoms: C5_6  and  O2_7 
REMARK    3  A    between atoms: C7_9  and  C8_10 
REMARK    4  A    between atoms: C8_10  and  C9_11 
REMARK    5  A    between atoms: C13_16  and  N2_17 
REMARK    6  A    between atoms: C14_19  and  N4_20 
ROOT
HETATM    1  C9  UNL     1      26.003   3.027  50.371  1.00  0.00     0.012 A 
HETATM    2  C10 UNL     1      25.748   1.734  50.497  1.00  0.00     0.015 A 
HETATM    3  C11 UNL     1      26.525   1.123  51.574  1.00  0.00     0.114 A 
HETATM    4  C12 UNL     1      27.286   2.313  52.099  1.00  0.00     0.135 A 
HETATM    5  N1  UNL     1      28.116   2.425  53.061  1.00  0.00    -0.049 NA
HETATM    6  C13 UNL     1      28.660   1.502  54.018  1.00  0.00     0.719 C 
HETATM    7  N3  UNL     1      28.498   0.305  54.457  1.00  0.00    -0.065 NA
HETATM    8  C14 UNL     1      27.613  -0.776  54.165  1.00  0.00     0.391 C 
HETATM    9  C15 UNL     1      26.266  -0.302  53.678  1.00  0.00     0.004 A 
HETATM   10  C16 UNL     1      25.336  -0.824  54.574  1.00  0.00     0.013 A 
HETATM   11  C17 UNL     1      24.003  -0.600  54.448  1.00  0.00     0.024 A 
HETATM   12  C18 UNL     1      23.510   0.161  53.414  1.00  0.00     0.034 A 
HETATM   13 CL1  UNL     1      21.806   0.492  53.188  1.00  0.00    -0.084 Cl
HETATM   14  C19 UNL     1      24.397   0.697  52.505  1.00  0.00     0.032 A 
HETATM   15  C20 UNL     1      25.754   0.468  52.635  1.00  0.00    -0.031 A 
HETATM   16  N5  UNL     1      26.956   3.471  51.336  1.00  0.00    -0.346 N 
HETATM   17  H21 UNL     1      27.353   4.427  51.483  1.00  0.00     0.167 HD
ENDROOT
BRANCH   1  18
HETATM   18  C8  UNL     1      25.423   3.990  49.402  1.00  0.00     0.098 C 
BRANCH  18  19
HETATM   19  C7  UNL     1      26.395   5.053  49.023  1.00  0.00    -0.017 A 
HETATM   20  C5  UNL     1      25.947   6.379  49.091  1.00  0.00     0.075 A 
HETATM   21  C4  UNL     1      26.823   7.410  48.745  1.00  0.00     0.040 A 
HETATM   22  C3  UNL     1      28.091   7.038  48.353  1.00  0.00     0.039 A 
HETATM   23  C2  UNL     1      28.577   5.749  48.271  1.00  0.00     0.068 A 
HETATM   24  C21 UNL     1      27.699   4.742  48.616  1.00  0.00     0.047 A 
BRANCH  20  25
HETATM   25  O2  UNL     1      24.654   6.661  49.497  1.00  0.00    -0.355 OA
HETATM   26  C6  UNL     1      24.445   7.378  50.697  1.00  0.00     0.210 C 
ENDBRANCH  20  25
BRANCH  23  27
HETATM   27  O1  UNL     1      29.872   5.461  47.865  1.00  0.00    -0.356 OA
HETATM   28  C1  UNL     1      30.951   6.015  48.616  1.00  0.00     0.210 C 
ENDBRANCH  23  27
ENDBRANCH  18  19
ENDBRANCH   1  18
BRANCH   6  29
HETATM   29  N2  UNL     1      29.751   2.108  54.734  1.00  0.00    -0.231 N 
HETATM   30  H13 UNL     1      30.014   3.109  54.558  1.00  0.00     0.174 HD
HETATM   31  H14 UNL     1      30.459   1.871  55.455  1.00  0.00     0.174 HD
ENDBRANCH   6  29
BRANCH   8  32
HETATM   32  N4  UNL     1      28.193  -1.711  53.198  1.00  0.00     0.108 N 
HETATM   33  H16 UNL     1      28.010  -1.315  52.243  1.00  0.00     0.316 HD
HETATM   34  H17 UNL     1      29.226  -1.769  53.312  1.00  0.00     0.316 HD
ENDBRANCH   8  32
TORSDOF 6
ENDMDL
MODEL 2
REMARK VINA RESULT:      -9.4      3.740      8.271
REMARK  6 active torsions:
REMARK  status: ('A' for Active; 'I' for Inactive)
REMARK    1  A    between atoms: O1_2  and  C2_3 
REMARK    2  A    between atoms: C5_6  and  O2_7 
REMARK    3  A    between atoms: C7_9  and  C8_10 
REMARK    4  A    between atoms: C8_10  and  C9_11 
REMARK    5  A    between atoms: C13_16  and  N2_17 
REMARK    6  A    between atoms: C14_19  and  N4_20 
ROOT
HETATM    1  C9  UNL     1      26.132   2.607  51.218  1.00  0.00     0.012 A 
HETATM    2  C10 UNL     1      26.118   2.899  49.927  1.00  0.00     0.015 A 
HETATM    3  C11 UNL     1      25.181   3.977  49.617  1.00  0.00     0.114 A 
HETATM    4  C12 UNL     1      24.645   4.303  50.988  1.00  0.00     0.135 A 
HETATM    5  N1  UNL     1      23.805   5.181  51.376  1.00  0.00    -0.049 NA
HETATM    6  C13 UNL     1      23.041   6.194  50.704  1.00  0.00     0.719 C 
HETATM    7  N3  UNL     1      22.939   6.778  49.563  1.00  0.00    -0.065 NA
HETATM    8  C14 UNL     1      23.606   6.679  48.305  1.00  0.00     0.391 C 
HETATM    9  C15 UNL     1      25.044   6.244  48.448  1.00  0.00     0.004 A 
HETATM   10  C16 UNL     1      25.804   7.262  47.876  1.00  0.00     0.013 A 
HETATM   11  C17 UNL     1      27.160   7.211  47.824  1.00  0.00     0.024 A 
HETATM   12  C18 UNL     1      27.847   6.137  48.340  1.00  0.00     0.034 A 
HETATM   13 CL1  UNL     1      29.592   6.004  48.309  1.00  0.00    -0.084 Cl
HETATM   14  C19 UNL     1      27.131   5.108  48.915  1.00  0.00     0.032 A 
HETATM   15  C20 UNL     1      25.751   5.161  48.968  1.00  0.00    -0.031 A 
HETATM   16  N5  UNL     1      25.237   3.440  51.955  1.00  0.00    -0.346 N 
HETATM   17  H21 UNL     1      25.031   3.446  52.980  1.00  0.00     0.167 HD
ENDROOT
BRANCH   1  18
HETATM   18  C8  UNL     1      26.940   1.580  51.922  1.00  0.00     0.098 C 
BRANCH  18  19
HETATM   19  C7  UNL     1      26.118   0.776  52.869  1.00  0.00    -0.017 A 
HETATM   20  C5  UNL     1      26.645   0.566  54.149  1.00  0.00     0.075 A 
HETATM   21  C4  UNL     1      25.910  -0.183  55.072  1.00  0.00     0.040 A 
HETATM   22  C3  UNL     1      24.694  -0.671  54.642  1.00  0.00     0.039 A 
HETATM   23  C2  UNL     1      24.135  -0.491  53.394  1.00  0.00     0.068 A 
HETATM   24  C21 UNL     1      24.874   0.251  52.495  1.00  0.00     0.047 A 
BRANCH  20  25
HETATM   25  O2  UNL     1      27.876   1.095  54.495  1.00  0.00    -0.355 OA
HETATM   26  C6  UNL     1      28.993   0.235  54.611  1.00  0.00     0.210 C 
ENDBRANCH  20  25
BRANCH  23  27
HETATM   27  O1  UNL     1      22.901  -1.018  53.042  1.00  0.00    -0.356 OA
HETATM   28  C1  UNL     1      21.976  -1.319  54.085  1.00  0.00     0.210 C 
ENDBRANCH  23  27
ENDBRANCH  18  19
ENDBRANCH   1  18
BRANCH   6  29
HETATM   29  N2  UNL     1      22.056   6.752  51.592  1.00  0.00    -0.231 N 
HETATM   30  H13 UNL     1      22.024   7.787  51.769  1.00  0.00     0.174 HD
HETATM   31  H14 UNL     1      21.267   6.453  52.194  1.00  0.00     0.174 HD
ENDBRANCH   6  29
BRANCH   8  32
HETATM   32  N4  UNL     1      22.903   5.784  47.383  1.00  0.00     0.108 N 
HETATM   33  H16 UNL     1      22.453   5.037  47.967  1.00  0.00     0.316 HD
HETATM   34  H17 UNL     1      22.138   6.288  46.889  1.00  0.00     0.316 HD
ENDBRANCH   8  32
TORSDOF 6
ENDMDL
MODEL 3
REMARK VINA RESULT:      -9.1      1.588      3.507
REMARK  6 active torsions:
REMARK  status: ('A' for Active; 'I' for Inactive)
REMARK    1  A    between atoms: O1_2  and  C2_3 
REMARK    2  A    between atoms: C5_6  and  O2_7 
REMARK    3  A    between atoms: C7_9  and  C8_10 
REMARK    4  A    between atoms: C8_10  and  C9_11 
REMARK    5  A    between atoms: C13_16  and  N2_17 
REMARK    6  A    between atoms: C14_19  and  N4_20 
ROOT
HETATM    1  C9  UNL     1      25.893   3.072  50.283  1.00  0.00     0.012 A 
HETATM    2  C10 UNL     1      25.636   1.781  50.422  1.00  0.00     0.015 A 
HETATM    3  C11 UNL     1      26.422   1.176  51.496  1.00  0.00     0.114 A 
HETATM    4  C12 UNL     1      27.191   2.369  52.004  1.00  0.00     0.135 A 
HETATM    5  N1  UNL     1      28.031   2.486  52.956  1.00  0.00    -0.049 NA
HETATM    6  C13 UNL     1      28.582   1.570  53.916  1.00  0.00     0.719 C 
HETATM    7  N3  UNL     1      28.421   0.377  54.366  1.00  0.00    -0.065 NA
HETATM    8  C14 UNL     1      27.530  -0.704  54.091  1.00  0.00     0.391 C 
HETATM    9  C15 UNL     1      26.180  -0.230  53.615  1.00  0.00     0.004 A 
HETATM   10  C16 UNL     1      25.257  -0.743  54.524  1.00  0.00     0.013 A 
HETATM   11  C17 UNL     1      23.924  -0.516  54.409  1.00  0.00     0.024 A 
HETATM   12  C18 UNL     1      23.422   0.238  53.374  1.00  0.00     0.034 A 
HETATM   13 CL1  UNL     1      21.717   0.572  53.162  1.00  0.00    -0.084 Cl
HETATM   14  C19 UNL     1      24.303   0.764  52.452  1.00  0.00     0.032 A 
HETATM   15  C20 UNL     1      25.660   0.532  52.570  1.00  0.00    -0.031 A 
HETATM   16  N5  UNL     1      26.857   3.522  51.234  1.00  0.00    -0.346 N 
HETATM   17  H21 UNL     1      27.258   4.477  51.370  1.00  0.00     0.167 HD
ENDROOT
BRANCH   1  18
HETATM   18  C8  UNL     1      25.306   4.029  49.312  1.00  0.00     0.098 C 
BRANCH  18  19
HETATM   19  C7  UNL     1      24.315   4.937  49.953  1.00  0.00    -0.017 A 
HETATM   20  C5  UNL     1      24.756   6.222  50.293  1.00  0.00     0.075 A 
HETATM   21  C4  UNL     1      23.862   7.109  50.897  1.00  0.00     0.040 A 
HETATM   22  C3  UNL     1      22.584   6.642  51.119  1.00  0.00     0.039 A 
HETATM   23  C2  UNL     1      22.105   5.388  50.803  1.00  0.00     0.068 A 
HETATM   24  C21 UNL     1      23.000   4.525  50.207  1.00  0.00     0.047 A 
BRANCH  20  25
HETATM   25  O2  UNL     1      26.060   6.607  50.032  1.00  0.00    -0.355 OA
HETATM   26  C6  UNL     1      26.303   7.658  49.118  1.00  0.00     0.210 C 
ENDBRANCH  20  25
BRANCH  23  27
HETATM   27  O1  UNL     1      20.799   4.998  51.062  1.00  0.00    -0.356 OA
HETATM   28  C1  UNL     1      20.590   3.797  51.805  1.00  0.00     0.210 C 
ENDBRANCH  23  27
ENDBRANCH  18  19
ENDBRANCH   1  18
BRANCH   6  29
HETATM   29  N2  UNL     1      29.682   2.178  54.616  1.00  0.00    -0.231 N 
HETATM   30  H13 UNL     1      30.634   2.223  54.176  1.00  0.00     0.174 HD
HETATM   31  H14 UNL     1      29.890   2.647  55.518  1.00  0.00     0.174 HD
ENDBRANCH   6  29
BRANCH   8  32
HETATM   32  N4  UNL     1      28.099  -1.648  53.126  1.00  0.00     0.108 N 
HETATM   33  H16 UNL     1      27.292  -2.089  52.620  1.00  0.00     0.316 HD
HETATM   34  H17 UNL     1      28.673  -1.152  52.415  1.00  0.00     0.316 HD
ENDBRANCH   8  32
TORSDOF 6
ENDMDL
MODEL 4
REMARK VINA RESULT:      -8.9      2.433      3.956
REMARK  6 active torsions:
REMARK  status: ('A' for Active; 'I' for Inactive)
REMARK    1  A    between atoms: O1_2  and  C2_3 
REMARK    2  A    between atoms: C5_6  and  O2_7 
REMARK    3  A    between atoms: C7_9  and  C8_10 
REMARK    4  A    between atoms: C8_10  and  C9_11 
REMARK    5  A    between atoms: C13_16  and  N2_17 
REMARK    6  A    between atoms: C14_19  and  N4_20 
ROOT
HETATM    1  C9  UNL     1      25.818   3.043  50.355  1.00  0.00     0.012 A 
HETATM    2  C10 UNL     1      25.583   1.747  50.490  1.00  0.00     0.015 A 
HETATM    3  C11 UNL     1      26.399   1.148  51.544  1.00  0.00     0.114 A 
HETATM    4  C12 UNL     1      27.160   2.349  52.045  1.00  0.00     0.135 A 
HETATM    5  N1  UNL     1      28.017   2.472  52.982  1.00  0.00    -0.049 NA
HETATM    6  C13 UNL     1      28.600   1.559  53.924  1.00  0.00     0.719 C 
HETATM    7  N3  UNL     1      28.466   0.361  54.369  1.00  0.00    -0.065 NA
HETATM    8  C14 UNL     1      27.586  -0.732  54.105  1.00  0.00     0.391 C 
HETATM    9  C15 UNL     1      26.220  -0.276  53.658  1.00  0.00     0.004 A 
HETATM   10  C16 UNL     1      25.323  -0.808  54.581  1.00  0.00     0.013 A 
HETATM   11  C17 UNL     1      23.985  -0.601  54.494  1.00  0.00     0.024 A 
HETATM   12  C18 UNL     1      23.452   0.152  53.474  1.00  0.00     0.034 A 
HETATM   13 CL1  UNL     1      21.738   0.461  53.298  1.00  0.00    -0.084 Cl
HETATM   14  C19 UNL     1      24.305   0.697  52.538  1.00  0.00     0.032 A 
HETATM   15  C20 UNL     1      25.668   0.486  52.629  1.00  0.00    -0.031 A 
HETATM   16  N5  UNL     1      26.793   3.501  51.290  1.00  0.00    -0.346 N 
HETATM   17  H21 UNL     1      27.182   4.462  51.424  1.00  0.00     0.167 HD
ENDROOT
BRANCH   1  18
HETATM   18  C8  UNL     1      25.197   3.997  49.401  1.00  0.00     0.098 C 
BRANCH  18  19
HETATM   19  C7  UNL     1      23.709   3.948  49.452  1.00  0.00    -0.017 A 
HETATM   20  C5  UNL     1      23.093   4.501  50.582  1.00  0.00     0.075 A 
HETATM   21  C4  UNL     1      21.699   4.478  50.675  1.00  0.00     0.040 A 
HETATM   22  C3  UNL     1      21.020   3.899  49.624  1.00  0.00     0.039 A 
HETATM   23  C2  UNL     1      21.582   3.342  48.494  1.00  0.00     0.068 A 
HETATM   24  C21 UNL     1      22.959   3.374  48.418  1.00  0.00     0.047 A 
BRANCH  20  25
HETATM   25  O2  UNL     1      23.855   5.064  51.591  1.00  0.00    -0.355 OA
HETATM   26  C6  UNL     1      23.651   4.649  52.928  1.00  0.00     0.210 C 
ENDBRANCH  20  25
BRANCH  23  27
HETATM   27  O1  UNL     1      20.823   2.778  47.479  1.00  0.00    -0.356 OA
HETATM   28  C1  UNL     1      19.448   3.149  47.381  1.00  0.00     0.210 C 
ENDBRANCH  23  27
ENDBRANCH  18  19
ENDBRANCH   1  18
BRANCH   6  29
HETATM   29  N2  UNL     1      29.704   2.179  54.607  1.00  0.00    -0.231 N 
HETATM   30  H13 UNL     1      30.250   2.950  54.147  1.00  0.00     0.174 HD
HETATM   31  H14 UNL     1      30.215   2.125  55.508  1.00  0.00     0.174 HD
ENDBRANCH   6  29
BRANCH   8  32
HETATM   32  N4  UNL     1      28.150  -1.661  53.122  1.00  0.00     0.108 N 
HETATM   33  H16 UNL     1      28.323  -1.110  52.246  1.00  0.00     0.316 HD
HETATM   34  H17 UNL     1      29.071  -2.026  53.442  1.00  0.00     0.316 HD
ENDBRANCH   8  32
TORSDOF 6
ENDMDL
MODEL 5
REMARK VINA RESULT:      -8.6      3.675      5.566
REMARK  6 active torsions:
REMARK  status: ('A' for Active; 'I' for Inactive)
REMARK    1  A    between atoms: O1_2  and  C2_3 
REMARK    2  A    between atoms: C5_6  and  O2_7 
REMARK    3  A    between atoms: C7_9  and  C8_10 
REMARK    4  A    between atoms: C8_10  and  C9_11 
REMARK    5  A    between atoms: C13_16  and  N2_17 
REMARK    6  A    between atoms: C14_19  and  N4_20 
ROOT
HETATM    1  C9  UNL     1      23.583   3.386  51.049  1.00  0.00     0.012 A 
HETATM    2  C10 UNL     1      23.429   2.072  51.016  1.00  0.00     0.015 A 
HETATM    3  C11 UNL     1      24.459   1.379  51.788  1.00  0.00     0.114 A 
HETATM    4  C12 UNL     1      25.258   2.541  52.321  1.00  0.00     0.135 A 
HETATM    5  N1  UNL     1      26.277   2.581  53.087  1.00  0.00    -0.049 NA
HETATM    6  C13 UNL     1      27.069   1.578  53.744  1.00  0.00     0.719 C 
HETATM    7  N3  UNL     1      27.072   0.321  54.008  1.00  0.00    -0.065 NA
HETATM    8  C14 UNL     1      26.199  -0.777  53.743  1.00  0.00     0.391 C 
HETATM    9  C15 UNL     1      24.755  -0.355  53.640  1.00  0.00     0.004 A 
HETATM   10  C16 UNL     1      24.079  -1.079  54.619  1.00  0.00     0.013 A 
HETATM   11  C17 UNL     1      22.743  -0.954  54.820  1.00  0.00     0.024 A 
HETATM   12  C18 UNL     1      21.991  -0.095  54.054  1.00  0.00     0.034 A 
HETATM   13 CL1  UNL     1      20.265   0.119  54.256  1.00  0.00    -0.084 Cl
HETATM   14  C19 UNL     1      22.622   0.641  53.073  1.00  0.00     0.032 A 
HETATM   15  C20 UNL     1      23.983   0.513  52.870  1.00  0.00    -0.031 A 
HETATM   16  N5  UNL     1      24.706   3.765  51.844  1.00  0.00    -0.346 N 
HETATM   17  H21 UNL     1      25.076   4.719  52.055  1.00  0.00     0.167 HD
ENDROOT
BRANCH   1  18
HETATM   18  C8  UNL     1      22.751   4.428  50.395  1.00  0.00     0.098 C 
BRANCH  18  19
HETATM   19  C7  UNL     1      21.343   3.978  50.204  1.00  0.00    -0.017 A 
HETATM   20  C5  UNL     1      21.002   3.479  48.941  1.00  0.00     0.075 A 
HETATM   21  C4  UNL     1      19.693   3.045  48.714  1.00  0.00     0.040 A 
HETATM   22  C3  UNL     1      18.817   3.144  49.774  1.00  0.00     0.039 A 
HETATM   23  C2  UNL     1      19.107   3.628  51.033  1.00  0.00     0.068 A 
HETATM   24  C21 UNL     1      20.404   4.052  51.240  1.00  0.00     0.047 A 
BRANCH  20  25
HETATM   25  O2  UNL     1      21.948   3.415  47.933  1.00  0.00    -0.355 OA
HETATM   26  C6  UNL     1      22.428   2.154  47.511  1.00  0.00     0.210 C 
ENDBRANCH  20  25
BRANCH  23  27
HETATM   27  O1  UNL     1      18.163   3.694  52.046  1.00  0.00    -0.356 OA
HETATM   28  C1  UNL     1      16.821   4.031  51.696  1.00  0.00     0.210 C 
ENDBRANCH  23  27
ENDBRANCH  18  19
ENDBRANCH   1  18
BRANCH   6  29
HETATM   29  N2  UNL     1      28.262   2.164  54.296  1.00  0.00    -0.231 N 
HETATM   30  H13 UNL     1      29.196   1.706  54.153  1.00  0.00     0.174 HD
HETATM   31  H14 UNL     1      28.560   2.983  54.858  1.00  0.00     0.174 HD
ENDBRANCH   6  29
BRANCH   8  32
HETATM   32  N4  UNL     1      26.593  -1.508  52.535  1.00  0.00     0.108 N 
HETATM   33  H16 UNL     1      27.485  -1.073  52.193  1.00  0.00     0.316 HD
HETATM   34  H17 UNL     1      26.803  -2.503  52.756  1.00  0.00     0.316 HD
ENDBRANCH   8  32
TORSDOF 6
ENDMDL
MODEL 6
REMARK VINA RESULT:      -8.5      3.448      7.565
REMARK  6 active torsions:
REMARK  status: ('A' for Active; 'I' for Inactive)
REMARK    1  A    between atoms: O1_2  and  C2_3 
REMARK    2  A    between atoms: C5_6  and  O2_7 
REMARK    3  A    between atoms: C7_9  and  C8_10 
REMARK    4  A    between atoms: C8_10  and  C9_11 
REMARK    5  A    between atoms: C13_16  and  N2_17 
REMARK    6  A    between atoms: C14_19  and  N4_20 
ROOT
HETATM    1  C9  UNL     1      24.912   3.104  50.596  1.00  0.00     0.012 A 
HETATM    2  C10 UNL     1      24.581   4.385  50.654  1.00  0.00     0.015 A 
HETATM    3  C11 UNL     1      25.586   5.242  50.028  1.00  0.00     0.114 A 
HETATM    4  C12 UNL     1      26.587   4.220  49.551  1.00  0.00     0.135 A 
HETATM    5  N1  UNL     1      27.680   4.349  48.907  1.00  0.00    -0.049 NA
HETATM    6  C13 UNL     1      28.397   5.475  48.378  1.00  0.00     0.719 C 
HETATM    7  N3  UNL     1      28.259   6.734  48.157  1.00  0.00    -0.065 NA
HETATM    8  C14 UNL     1      27.224   7.695  48.356  1.00  0.00     0.391 C 
HETATM    9  C15 UNL     1      25.847   7.084  48.278  1.00  0.00     0.004 A 
HETATM   10  C16 UNL     1      25.191   7.761  47.252  1.00  0.00     0.013 A 
HETATM   11  C17 UNL     1      23.914   7.473  46.896  1.00  0.00     0.024 A 
HETATM   12  C18 UNL     1      23.204   6.488  47.543  1.00  0.00     0.034 A 
HETATM   13 CL1  UNL     1      21.556   6.061  47.138  1.00  0.00    -0.084 Cl
HETATM   14  C19 UNL     1      23.818   5.794  48.565  1.00  0.00     0.032 A 
HETATM   15  C20 UNL     1      25.119   6.088  48.927  1.00  0.00    -0.031 A 
HETATM   16  N5  UNL     1      26.156   2.913  49.923  1.00  0.00    -0.346 N 
HETATM   17  H21 UNL     1      26.672   2.026  49.725  1.00  0.00     0.167 HD
ENDROOT
BRANCH   1  18
HETATM   18  C8  UNL     1      24.161   1.934  51.116  1.00  0.00     0.098 C 
BRANCH  18  19
HETATM   19  C7  UNL     1      24.829   1.324  52.300  1.00  0.00    -0.017 A 
HETATM   20  C5  UNL     1      24.142   0.297  52.958  1.00  0.00     0.075 A 
HETATM   21  C4  UNL     1      24.729  -0.305  54.074  1.00  0.00     0.040 A 
HETATM   22  C3  UNL     1      25.967   0.168  54.452  1.00  0.00     0.039 A 
HETATM   23  C2  UNL     1      26.680   1.176  53.837  1.00  0.00     0.068 A 
HETATM   24  C21 UNL     1      26.087   1.760  52.736  1.00  0.00     0.047 A 
BRANCH  20  25
HETATM   25  O2  UNL     1      22.900  -0.116  52.508  1.00  0.00    -0.355 OA
HETATM   26  C6  UNL     1      22.128  -0.989  53.309  1.00  0.00     0.210 C 
ENDBRANCH  20  25
BRANCH  23  27
HETATM   27  O1  UNL     1      27.926   1.593  54.283  1.00  0.00    -0.356 OA
HETATM   28  C1  UNL     1      28.877   0.596  54.653  1.00  0.00     0.210 C 
ENDBRANCH  23  27
ENDBRANCH  18  19
ENDBRANCH   1  18
BRANCH   6  29
HETATM   29  N2  UNL     1      29.711   5.077  47.947  1.00  0.00    -0.231 N 
HETATM   30  H13 UNL     1      29.970   4.060  47.899  1.00  0.00     0.174 HD
HETATM   31  H14 UNL     1      30.604   5.494  47.626  1.00  0.00     0.174 HD
ENDBRANCH   6  29
BRANCH   8  32
HETATM   32  N4  UNL     1      27.382   8.413  49.623  1.00  0.00     0.108 N 
HETATM   33  H16 UNL     1      28.140   7.923  50.159  1.00  0.00     0.316 HD
HETATM   34  H17 UNL     1      27.705   9.389  49.459  1.00  0.00     0.316 HD
ENDBRANCH   8  32
TORSDOF 6
ENDMDL
MODEL 7
REMARK VINA RESULT:      -8.4      3.226      5.213
REMARK  6 active torsions:
REMARK  status: ('A' for Active; 'I' for Inactive)
REMARK    1  A    between atoms: O1_2  and  C2_3 
REMARK    2  A    between atoms: C5_6  and  O2_7 
REMARK    3  A    between atoms: C7_9  and  C8_10 
REMARK    4  A    between atoms: C8_10  and  C9_11 
REMARK    5  A    between atoms: C13_16  and  N2_17 
REMARK    6  A    between atoms: C14_19  and  N4_20 
ROOT
HETATM    1  C9  UNL     1      25.419   3.468  49.946  1.00  0.00     0.012 A 
HETATM    2  C10 UNL     1      24.978   3.364  51.191  1.00  0.00     0.015 A 
HETATM    3  C11 UNL     1      23.598   2.885  51.247  1.00  0.00     0.114 A 
HETATM    4  C12 UNL     1      23.295   2.692  49.783  1.00  0.00     0.135 A 
HETATM    5  N1  UNL     1      22.250   2.266  49.189  1.00  0.00    -0.049 NA
HETATM    6  C13 UNL     1      20.966   1.806  49.640  1.00  0.00     0.719 C 
HETATM    7  N3  UNL     1      20.345   1.468  50.713  1.00  0.00    -0.065 NA
HETATM    8  C14 UNL     1      20.678   1.388  52.099  1.00  0.00     0.391 C 
HETATM    9  C15 UNL     1      22.138   1.088  52.325  1.00  0.00     0.004 A 
HETATM   10  C16 UNL     1      22.171  -0.094  53.061  1.00  0.00     0.013 A 
HETATM   11  C17 UNL     1      23.336  -0.672  53.452  1.00  0.00     0.024 A 
HETATM   12  C18 UNL     1      24.547  -0.105  53.134  1.00  0.00     0.034 A 
HETATM   13 CL1  UNL     1      26.087  -0.793  53.603  1.00  0.00    -0.084 Cl
HETATM   14  C19 UNL     1      24.559   1.067  52.406  1.00  0.00     0.032 A 
HETATM   15  C20 UNL     1      23.372   1.653  52.009  1.00  0.00    -0.031 A 
HETATM   16  N5  UNL     1      24.426   3.068  49.002  1.00  0.00    -0.346 N 
HETATM   17  H21 UNL     1      24.478   3.042  47.958  1.00  0.00     0.167 HD
ENDROOT
BRANCH   1  18
HETATM   18  C8  UNL     1      26.753   3.917  49.476  1.00  0.00     0.098 C 
BRANCH  18  19
HETATM   19  C7  UNL     1      26.713   5.299  48.921  1.00  0.00    -0.017 A 
HETATM   20  C5  UNL     1      27.886   5.778  48.324  1.00  0.00     0.075 A 
HETATM   21  C4  UNL     1      27.897   7.069  47.790  1.00  0.00     0.040 A 
HETATM   22  C3  UNL     1      26.726   7.790  47.892  1.00  0.00     0.039 A 
HETATM   23  C2  UNL     1      25.549   7.360  48.470  1.00  0.00     0.068 A 
HETATM   24  C21 UNL     1      25.555   6.084  48.993  1.00  0.00     0.047 A 
BRANCH  20  25
HETATM   25  O2  UNL     1      29.018   4.984  48.265  1.00  0.00    -0.355 OA
HETATM   26  C6  UNL     1      30.292   5.595  48.211  1.00  0.00     0.210 C 
ENDBRANCH  20  25
BRANCH  23  27
HETATM   27  O1  UNL     1      24.412   8.153  48.532  1.00  0.00    -0.356 OA
HETATM   28  C1  UNL     1      23.593   8.066  49.697  1.00  0.00     0.210 C 
ENDBRANCH  23  27
ENDBRANCH  18  19
ENDBRANCH   1  18
BRANCH   6  29
HETATM   29  N2  UNL     1      20.062   1.672  48.528  1.00  0.00    -0.231 N 
HETATM   30  H13 UNL     1      19.052   1.435  48.689  1.00  0.00     0.174 HD
HETATM   31  H14 UNL     1      20.058   1.735  47.493  1.00  0.00     0.174 HD
ENDBRANCH   6  29
BRANCH   8  32
HETATM   32  N4  UNL     1      20.299   2.604  52.823  1.00  0.00     0.108 N 
HETATM   33  H16 UNL     1      19.413   2.957  52.384  1.00  0.00     0.316 HD
HETATM   34  H17 UNL     1      20.084   2.392  53.818  1.00  0.00     0.316 HD
ENDBRANCH   8  32
TORSDOF 6
ENDMDL
MODEL 8
REMARK VINA RESULT:      -8.4      3.459      7.701
REMARK  6 active torsions:
REMARK  status: ('A' for Active; 'I' for Inactive)
REMARK    1  A    between atoms: O1_2  and  C2_3 
REMARK    2  A    between atoms: C5_6  and  O2_7 
REMARK    3  A    between atoms: C7_9  and  C8_10 
REMARK    4  A    between atoms: C8_10  and  C9_11 
REMARK    5  A    between atoms: C13_16  and  N2_17 
REMARK    6  A    between atoms: C14_19  and  N4_20 
ROOT
HETATM    1  C9  UNL     1      25.537   1.175  51.919  1.00  0.00     0.012 A 
HETATM    2  C10 UNL     1      24.537   2.042  51.931  1.00  0.00     0.015 A 
HETATM    3  C11 UNL     1      24.850   3.253  51.175  1.00  0.00     0.114 A 
HETATM    4  C12 UNL     1      26.237   2.937  50.676  1.00  0.00     0.135 A 
HETATM    5  N1  UNL     1      27.036   3.600  49.935  1.00  0.00    -0.049 NA
HETATM    6  C13 UNL     1      26.962   4.878  49.285  1.00  0.00     0.719 C 
HETATM    7  N3  UNL     1      26.123   5.810  49.004  1.00  0.00    -0.065 NA
HETATM    8  C14 UNL     1      24.732   6.031  49.234  1.00  0.00     0.391 C 
HETATM    9  C15 UNL     1      23.948   4.744  49.307  1.00  0.00     0.004 A 
HETATM   10  C16 UNL     1      22.987   4.829  48.303  1.00  0.00     0.013 A 
HETATM   11  C17 UNL     1      22.090   3.837  48.072  1.00  0.00     0.024 A 
HETATM   12  C18 UNL     1      22.094   2.690  48.832  1.00  0.00     0.034 A 
HETATM   13 CL1  UNL     1      20.970   1.370  48.591  1.00  0.00    -0.084 Cl
HETATM   14  C19 UNL     1      23.031   2.566  49.836  1.00  0.00     0.032 A 
HETATM   15  C20 UNL     1      23.943   3.578  50.070  1.00  0.00    -0.031 A 
HETATM   16  N5  UNL     1      26.642   1.658  51.156  1.00  0.00    -0.346 N 
HETATM   17  H21 UNL     1      27.565   1.204  50.967  1.00  0.00     0.167 HD
ENDROOT
BRANCH   1  18
HETATM   18  C8  UNL     1      25.608  -0.159  52.567  1.00  0.00     0.098 C 
BRANCH  18  19
HETATM   19  C7  UNL     1      24.388  -0.456  53.368  1.00  0.00    -0.017 A 
HETATM   20  C5  UNL     1      24.581  -0.860  54.695  1.00  0.00     0.075 A 
HETATM   21  C4  UNL     1      23.466  -1.149  55.486  1.00  0.00     0.040 A 
HETATM   22  C3  UNL     1      22.232  -1.012  54.886  1.00  0.00     0.039 A 
HETATM   23  C2  UNL     1      21.993  -0.619  53.586  1.00  0.00     0.068 A 
HETATM   24  C21 UNL     1      23.104  -0.336  52.819  1.00  0.00     0.047 A 
BRANCH  20  25
HETATM   25  O2  UNL     1      25.859  -0.970  55.215  1.00  0.00    -0.355 OA
HETATM   26  C6  UNL     1      26.663   0.188  55.330  1.00  0.00     0.210 C 
ENDBRANCH  20  25
BRANCH  23  27
HETATM   27  O1  UNL     1      20.714  -0.506  53.060  1.00  0.00    -0.356 OA
HETATM   28  C1  UNL     1      20.383   0.682  52.343  1.00  0.00     0.210 C 
ENDBRANCH  23  27
ENDBRANCH  18  19
ENDBRANCH   1  18
BRANCH   6  29
HETATM   29  N2  UNL     1      28.252   5.254  48.768  1.00  0.00    -0.231 N 
HETATM   30  H13 UNL     1      28.330   5.957  47.992  1.00  0.00     0.174 HD
HETATM   31  H14 UNL     1      29.258   5.047  48.912  1.00  0.00     0.174 HD
ENDBRANCH   6  29
BRANCH   8  32
HETATM   32  N4  UNL     1      24.498   6.828  50.440  1.00  0.00     0.108 N 
HETATM   33  H16 UNL     1      25.440   7.068  50.835  1.00  0.00     0.316 HD
HETATM   34  H17 UNL     1      24.027   7.726  50.205  1.00  0.00     0.316 HD
ENDBRANCH   8  32
TORSDOF 6
ENDMDL
MODEL 9
REMARK VINA RESULT:      -8.3      3.991      7.876
REMARK  6 active torsions:
REMARK  status: ('A' for Active; 'I' for Inactive)
REMARK    1  A    between atoms: O1_2  and  C2_3 
REMARK    2  A    between atoms: C5_6  and  O2_7 
REMARK    3  A    between atoms: C7_9  and  C8_10 
REMARK    4  A    between atoms: C8_10  and  C9_11 
REMARK    5  A    between atoms: C13_16  and  N2_17 
REMARK    6  A    between atoms: C14_19  and  N4_20 
ROOT
HETATM    1  C9  UNL     1      25.278   2.803  51.802  1.00  0.00     0.012 A 
HETATM    2  C10 UNL     1      24.324   3.408  52.493  1.00  0.00     0.015 A 
HETATM    3  C11 UNL     1      23.582   4.370  51.679  1.00  0.00     0.114 A 
HETATM    4  C12 UNL     1      24.260   4.207  50.342  1.00  0.00     0.135 A 
HETATM    5  N1  UNL     1      24.042   4.762  49.214  1.00  0.00    -0.049 NA
HETATM    6  C13 UNL     1      23.095   5.738  48.752  1.00  0.00     0.719 C 
HETATM    7  N3  UNL     1      22.027   6.349  49.122  1.00  0.00    -0.065 NA
HETATM    8  C14 UNL     1      21.200   6.340  50.286  1.00  0.00     0.391 C 
HETATM    9  C15 UNL     1      21.207   5.004  50.987  1.00  0.00     0.004 A 
HETATM   10  C16 UNL     1      19.880   4.582  51.008  1.00  0.00     0.013 A 
HETATM   11  C17 UNL     1      19.503   3.405  51.570  1.00  0.00     0.024 A 
HETATM   12  C18 UNL     1      20.429   2.570  52.149  1.00  0.00     0.034 A 
HETATM   13 CL1  UNL     1      20.017   1.038  52.890  1.00  0.00    -0.084 Cl
HETATM   14  C19 UNL     1      21.755   2.951  52.149  1.00  0.00     0.032 A 
HETATM   15  C20 UNL     1      22.137   4.150  51.578  1.00  0.00    -0.031 A 
HETATM   16  N5  UNL     1      25.307   3.246  50.446  1.00  0.00    -0.346 N 
HETATM   17  H21 UNL     1      25.942   2.955  49.668  1.00  0.00     0.167 HD
ENDROOT
BRANCH   1  18
HETATM   18  C8  UNL     1      26.240   1.773  52.268  1.00  0.00     0.098 C 
BRANCH  18  19
HETATM   19  C7  UNL     1      25.601   0.787  53.183  1.00  0.00    -0.017 A 
HETATM   20  C5  UNL     1      26.295   0.467  54.358  1.00  0.00     0.075 A 
HETATM   21  C4  UNL     1      25.735  -0.454  55.247  1.00  0.00     0.040 A 
HETATM   22  C3  UNL     1      24.515  -0.991  54.893  1.00  0.00     0.039 A 
HETATM   23  C2  UNL     1      23.797  -0.708  53.750  1.00  0.00     0.068 A 
HETATM   24  C21 UNL     1      24.364   0.203  52.883  1.00  0.00     0.047 A 
BRANCH  20  25
HETATM   25  O2  UNL     1      27.516   1.057  54.633  1.00  0.00    -0.355 OA
HETATM   26  C6  UNL     1      28.661   0.241  54.788  1.00  0.00     0.210 C 
ENDBRANCH  20  25
BRANCH  23  27
HETATM   27  O1  UNL     1      22.572  -1.296  53.470  1.00  0.00    -0.356 OA
HETATM   28  C1  UNL     1      21.742  -1.676  54.566  1.00  0.00     0.210 C 
ENDBRANCH  23  27
ENDBRANCH  18  19
ENDBRANCH   1  18
BRANCH   6  29
HETATM   29  N2  UNL     1      23.448   6.195  47.434  1.00  0.00    -0.231 N 
HETATM   30  H13 UNL     1      22.723   6.248  46.677  1.00  0.00     0.174 HD
HETATM   31  H14 UNL     1      24.273   6.532  46.902  1.00  0.00     0.174 HD
ENDBRANCH   6  29
BRANCH   8  32
HETATM   32  N4  UNL     1      21.569   7.401  51.226  1.00  0.00     0.108 N 
HETATM   33  H16 UNL     1      22.593   7.289  51.425  1.00  0.00     0.316 HD
HETATM   34  H17 UNL     1      21.441   8.339  50.795  1.00  0.00     0.316 HD
ENDBRANCH   8  32
TORSDOF 6
ENDMDL
