MODEL 1
REMARK VINA RESULT:      -8.3      0.000      0.000
REMARK  2 active torsions:
REMARK  status: ('A' for Active; 'I' for Inactive)
REMARK    1  A    between atoms: C2_2  and  C3_3 
REMARK    2  A    between atoms: C3_3  and  C4_4 
ROOT
HETATM    1  C4  UNL     1      26.108   4.818  50.407  1.00  0.00     0.152 C 
HETATM    2  N1  UNL     1      25.940   3.699  51.266  1.00  0.00    -0.185 NA
HETATM    3  O1  UNL     1      27.044   2.880  51.470  1.00  0.00    -0.263 OA
HETATM    4  C5  UNL     1      26.652   1.735  52.209  1.00  0.00     0.088 C 
HETATM    5  C6  UNL     1      26.295   2.198  53.428  1.00  0.00     0.016 C 
HETATM    6  C7  UNL     1      25.131   1.449  54.077  1.00  0.00     0.069 C 
HETATM    7  C8  UNL     1      25.423   0.123  53.838  1.00  0.00    -0.042 C 
HETATM    8  C9  UNL     1      24.892  -0.768  54.680  1.00  0.00    -0.000 C 
HETATM    9  C10 UNL     1      23.642  -0.898  54.210  1.00  0.00     0.022 C 
HETATM   10 BR1  UNL     1      21.872  -1.503  54.383  1.00  0.00    -0.050 Br
HETATM   11  C11 UNL     1      23.501  -0.268  52.858  1.00  0.00     0.016 C 
HETATM   12  C12 UNL     1      22.662   0.632  52.266  1.00  0.00    -0.019 C 
HETATM   13  C13 UNL     1      22.118   1.462  51.235  1.00  0.00     0.083 C 
HETATM   14  C14 UNL     1      22.060   2.914  51.443  1.00  0.00     0.041 C 
HETATM   15  N2  UNL     1      23.149   3.610  51.598  1.00  0.00    -0.251 NA
HETATM   16  C15 UNL     1      23.217   4.448  50.386  1.00  0.00     0.406 C 
HETATM   17  N3  UNL     1      21.856   4.979  50.455  1.00  0.00     0.123 N 
HETATM   18  C16 UNL     1      21.327   4.205  51.580  1.00  0.00     0.327 C 
HETATM   19  S1  UNL     1      24.489   5.703  50.497  1.00  0.00    -0.089 SA
HETATM   20  C17 UNL     1      26.161  -0.507  52.783  1.00  0.00     0.011 C 
HETATM   21  C18 UNL     1      26.604   0.332  51.824  1.00  0.00     0.039 C 
HETATM   22  H7  UNL     1      25.178   3.070  50.822  1.00  0.00     0.155 HD
HETATM   23  H16 UNL     1      21.954   5.985  50.703  1.00  0.00     0.320 HD
ENDROOT
BRANCH   1  24
HETATM   24  C3  UNL     1      26.317   4.244  48.999  1.00  0.00     0.059 C 
BRANCH  24  25
HETATM   25  C2  UNL     1      27.671   4.648  48.535  1.00  0.00    -0.034 C 
HETATM   26  C1  UNL     1      28.367   5.751  48.287  1.00  0.00     0.007 C 
ENDBRANCH  24  25
ENDBRANCH   1  24
TORSDOF 2
ENDMDL
MODEL 2
REMARK VINA RESULT:      -7.7      1.853      2.430
REMARK  2 active torsions:
REMARK  status: ('A' for Active; 'I' for Inactive)
REMARK    1  A    between atoms: C2_2  and  C3_3 
REMARK    2  A    between atoms: C3_3  and  C4_4 
ROOT
HETATM    1  C4  UNL     1      25.895   5.085  49.914  1.00  0.00     0.152 C 
HETATM    2  N1  UNL     1      25.125   4.180  50.694  1.00  0.00    -0.185 NA
HETATM    3  O1  UNL     1      25.808   3.382  51.604  1.00  0.00    -0.263 OA
HETATM    4  C5  UNL     1      24.915   2.435  52.166  1.00  0.00     0.088 C 
HETATM    5  C6  UNL     1      24.030   3.160  52.888  1.00  0.00     0.016 C 
HETATM    6  C7  UNL     1      22.605   2.610  52.884  1.00  0.00     0.069 C 
HETATM    7  C8  UNL     1      22.778   1.252  53.059  1.00  0.00    -0.042 C 
HETATM    8  C9  UNL     1      21.751   0.581  53.587  1.00  0.00    -0.000 C 
HETATM    9  C10 UNL     1      20.949   0.401  52.526  1.00  0.00     0.022 C 
HETATM   10 BR1  UNL     1      19.298  -0.086  51.774  1.00  0.00    -0.050 Br
HETATM   11  C11 UNL     1      21.655   0.735  51.247  1.00  0.00     0.016 C 
HETATM   12  C12 UNL     1      21.412   1.520  50.157  1.00  0.00    -0.019 C 
HETATM   13  C13 UNL     1      21.641   2.132  48.884  1.00  0.00     0.083 C 
HETATM   14  C14 UNL     1      21.697   3.596  48.795  1.00  0.00     0.041 C 
HETATM   15  N2  UNL     1      22.620   4.268  49.421  1.00  0.00    -0.251 NA
HETATM   16  C15 UNL     1      23.454   4.827  48.341  1.00  0.00     0.406 C 
HETATM   17  N3  UNL     1      22.367   5.411  47.555  1.00  0.00     0.123 N 
HETATM   18  C16 UNL     1      21.208   4.914  48.297  1.00  0.00     0.327 C 
HETATM   19  S1  UNL     1      24.635   6.028  48.945  1.00  0.00    -0.089 SA
HETATM   20  C17 UNL     1      23.864   0.386  52.709  1.00  0.00     0.011 C 
HETATM   21  C18 UNL     1      24.874   0.986  52.044  1.00  0.00     0.039 C 
HETATM   22  H7  UNL     1      24.639   3.500  50.005  1.00  0.00     0.155 HD
HETATM   23  H16 UNL     1      22.465   6.443  47.655  1.00  0.00     0.320 HD
ENDROOT
BRANCH   1  24
HETATM   24  C3  UNL     1      26.741   4.218  48.973  1.00  0.00     0.059 C 
BRANCH  24  25
HETATM   25  C2  UNL     1      27.942   5.003  48.580  1.00  0.00    -0.034 C 
HETATM   26  C1  UNL     1      28.261   6.227  48.178  1.00  0.00     0.007 C 
ENDBRANCH  24  25
ENDBRANCH   1  24
TORSDOF 2
ENDMDL
MODEL 3
REMARK VINA RESULT:      -7.7      2.782      5.306
REMARK  2 active torsions:
REMARK  status: ('A' for Active; 'I' for Inactive)
REMARK    1  A    between atoms: C2_2  and  C3_3 
REMARK    2  A    between atoms: C3_3  and  C4_4 
ROOT
HETATM    1  C4  UNL     1      26.002   0.728  53.044  1.00  0.00     0.152 C 
HETATM    2  N1  UNL     1      24.640   1.001  52.741  1.00  0.00    -0.185 NA
HETATM    3  O1  UNL     1      23.699   0.057  53.130  1.00  0.00    -0.263 OA
HETATM    4  C5  UNL     1      22.430   0.409  52.603  1.00  0.00     0.088 C 
HETATM    5  C6  UNL     1      22.090   1.562  53.225  1.00  0.00     0.016 C 
HETATM    6  C7  UNL     1      21.313   2.549  52.355  1.00  0.00     0.069 C 
HETATM    7  C8  UNL     1      20.395   1.754  51.700  1.00  0.00    -0.042 C 
HETATM    8  C9  UNL     1      19.282   2.355  51.271  1.00  0.00    -0.000 C 
HETATM    9  C10 UNL     1      19.687   2.929  50.128  1.00  0.00     0.022 C 
HETATM   10 BR1  UNL     1      19.418   4.113  48.695  1.00  0.00    -0.050 Br
HETATM   11  C11 UNL     1      21.032   2.419  49.709  1.00  0.00     0.016 C 
HETATM   12  C12 UNL     1      22.231   2.963  49.349  1.00  0.00    -0.019 C 
HETATM   13  C13 UNL     1      23.599   3.004  48.931  1.00  0.00     0.083 C 
HETATM   14  C14 UNL     1      24.592   3.652  49.796  1.00  0.00     0.041 C 
HETATM   15  N2  UNL     1      24.843   3.190  50.987  1.00  0.00    -0.251 NA
HETATM   16  C15 UNL     1      26.224   2.682  50.892  1.00  0.00     0.406 C 
HETATM   17  N3  UNL     1      26.820   3.883  50.307  1.00  0.00     0.123 N 
HETATM   18  C16 UNL     1      25.621   4.692  50.085  1.00  0.00     0.327 C 
HETATM   19  S1  UNL     1      26.900   2.245  52.491  1.00  0.00    -0.089 SA
HETATM   20  C17 UNL     1      20.441   0.372  51.323  1.00  0.00     0.011 C 
HETATM   21  C18 UNL     1      21.603  -0.253  51.606  1.00  0.00     0.039 C 
HETATM   22  H7  UNL     1      24.564   1.074  51.663  1.00  0.00     0.155 HD
HETATM   23  H16 UNL     1      27.421   4.295  51.051  1.00  0.00     0.320 HD
ENDROOT
BRANCH   1  24
HETATM   24  C3  UNL     1      26.399  -0.468  52.168  1.00  0.00     0.059 C 
BRANCH  24  25
HETATM   25  C2  UNL     1      27.452  -1.234  52.886  1.00  0.00    -0.034 C 
HETATM   26  C1  UNL     1      28.699  -1.078  53.316  1.00  0.00     0.007 C 
ENDBRANCH  24  25
ENDBRANCH   1  24
TORSDOF 2
ENDMDL
MODEL 4
REMARK VINA RESULT:      -7.6      3.423      7.055
REMARK  2 active torsions:
REMARK  status: ('A' for Active; 'I' for Inactive)
REMARK    1  A    between atoms: C2_2  and  C3_3 
REMARK    2  A    between atoms: C3_3  and  C4_4 
ROOT
HETATM    1  C4  UNL     1      22.217   1.652  52.310  1.00  0.00     0.152 C 
HETATM    2  N1  UNL     1      22.617   2.879  51.713  1.00  0.00    -0.185 NA
HETATM    3  O1  UNL     1      21.629   3.643  51.105  1.00  0.00    -0.263 OA
HETATM    4  C5  UNL     1      22.228   4.734  50.425  1.00  0.00     0.088 C 
HETATM    5  C6  UNL     1      22.765   5.511  51.394  1.00  0.00     0.016 C 
HETATM    6  C7  UNL     1      24.076   6.193  51.008  1.00  0.00     0.069 C 
HETATM    7  C8  UNL     1      23.841   6.651  49.728  1.00  0.00    -0.042 C 
HETATM    8  C9  UNL     1      24.578   7.688  49.318  1.00  0.00    -0.000 C 
HETATM    9  C10 UNL     1      25.729   7.099  48.959  1.00  0.00     0.022 C 
HETATM   10 BR1  UNL     1      27.540   7.186  48.467  1.00  0.00    -0.050 Br
HETATM   11  C11 UNL     1      25.579   5.609  48.887  1.00  0.00     0.016 C 
HETATM   12  C12 UNL     1      26.232   4.522  49.392  1.00  0.00    -0.019 C 
HETATM   13  C13 UNL     1      26.520   3.142  49.639  1.00  0.00     0.083 C 
HETATM   14  C14 UNL     1      26.511   2.645  51.020  1.00  0.00     0.041 C 
HETATM   15  N2  UNL     1      25.421   2.670  51.731  1.00  0.00    -0.251 NA
HETATM   16  C15 UNL     1      25.077   1.248  51.912  1.00  0.00     0.406 C 
HETATM   17  N3  UNL     1      26.387   0.802  52.386  1.00  0.00     0.123 N 
HETATM   18  C16 UNL     1      27.163   2.031  52.212  1.00  0.00     0.327 C 
HETATM   19  S1  UNL     1      23.759   1.012  53.101  1.00  0.00    -0.089 SA
HETATM   20  C17 UNL     1      22.973   6.167  48.696  1.00  0.00     0.011 C 
HETATM   21  C18 UNL     1      22.306   5.035  49.003  1.00  0.00     0.039 C 
HETATM   22  H7  UNL     1      23.330   2.635  50.934  1.00  0.00     0.155 HD
HETATM   23  H16 UNL     1      26.263   0.574  53.395  1.00  0.00     0.320 HD
ENDROOT
BRANCH   1  24
HETATM   24  C3  UNL     1      21.800   0.735  51.152  1.00  0.00     0.059 C 
BRANCH  24  25
HETATM   25  C2  UNL     1      20.361   0.401  51.327  1.00  0.00    -0.034 C 
HETATM   26  C1  UNL     1      19.495   0.142  52.299  1.00  0.00     0.007 C 
ENDBRANCH  24  25
ENDBRANCH   1  24
TORSDOF 2
ENDMDL
MODEL 5
REMARK VINA RESULT:      -7.5      8.622     11.022
REMARK  2 active torsions:
REMARK  status: ('A' for Active; 'I' for Inactive)
REMARK    1  A    between atoms: C2_2  and  C3_3 
REMARK    2  A    between atoms: C3_3  and  C4_4 
ROOT
HETATM    1  C4  UNL     1      33.082   3.845  47.281  1.00  0.00     0.152 C 
HETATM    2  N1  UNL     1      32.252   4.956  47.595  1.00  0.00    -0.185 NA
HETATM    3  O1  UNL     1      31.193   4.735  48.466  1.00  0.00    -0.263 OA
HETATM    4  C5  UNL     1      30.384   5.897  48.531  1.00  0.00     0.088 C 
HETATM    5  C6  UNL     1      31.159   6.842  49.111  1.00  0.00     0.016 C 
HETATM    6  C7  UNL     1      30.937   8.259  48.582  1.00  0.00     0.069 C 
HETATM    7  C8  UNL     1      29.564   8.365  48.501  1.00  0.00    -0.042 C 
HETATM    8  C9  UNL     1      29.055   9.599  48.556  1.00  0.00    -0.000 C 
HETATM    9  C10 UNL     1      29.221  10.035  47.298  1.00  0.00     0.022 C 
HETATM   10 BR1  UNL     1      29.225  11.412  46.020  1.00  0.00    -0.050 Br
HETATM   11  C11 UNL     1      29.593   8.913  46.377  1.00  0.00     0.016 C 
HETATM   12  C12 UNL     1      30.573   8.667  45.460  1.00  0.00    -0.019 C 
HETATM   13  C13 UNL     1      31.315   7.949  44.469  1.00  0.00     0.083 C 
HETATM   14  C14 UNL     1      32.727   7.639  44.718  1.00  0.00     0.041 C 
HETATM   15  N2  UNL     1      33.078   6.873  45.711  1.00  0.00    -0.251 NA
HETATM   16  C15 UNL     1      33.606   5.660  45.061  1.00  0.00     0.406 C 
HETATM   17  N3  UNL     1      34.527   6.331  44.144  1.00  0.00     0.123 N 
HETATM   18  C16 UNL     1      34.181   7.731  44.399  1.00  0.00     0.327 C 
HETATM   19  S1  UNL     1      34.415   4.563  46.222  1.00  0.00    -0.089 SA
HETATM   20  C17 UNL     1      28.550   7.373  48.296  1.00  0.00     0.011 C 
HETATM   21  C18 UNL     1      29.015   6.123  48.092  1.00  0.00     0.039 C 
HETATM   22  H7  UNL     1      31.811   5.295  46.666  1.00  0.00     0.155 HD
HETATM   23  H16 UNL     1      35.485   6.111  44.488  1.00  0.00     0.320 HD
ENDROOT
BRANCH   1  24
HETATM   24  C3  UNL     1      32.212   2.887  46.456  1.00  0.00     0.059 C 
BRANCH  24  25
HETATM   25  C2  UNL     1      32.452   1.506  46.951  1.00  0.00    -0.034 C 
HETATM   26  C1  UNL     1      32.045   0.264  46.718  1.00  0.00     0.007 C 
ENDBRANCH  24  25
ENDBRANCH   1  24
TORSDOF 2
ENDMDL
MODEL 6
REMARK VINA RESULT:      -7.4      2.807      5.502
REMARK  2 active torsions:
REMARK  status: ('A' for Active; 'I' for Inactive)
REMARK    1  A    between atoms: C2_2  and  C3_3 
REMARK    2  A    between atoms: C3_3  and  C4_4 
ROOT
HETATM    1  C4  UNL     1      27.107   1.246  52.155  1.00  0.00     0.152 C 
HETATM    2  N1  UNL     1      26.238   2.051  51.369  1.00  0.00    -0.185 NA
HETATM    3  O1  UNL     1      26.793   3.157  50.737  1.00  0.00    -0.263 OA
HETATM    4  C5  UNL     1      25.761   3.929  50.145  1.00  0.00     0.088 C 
HETATM    5  C6  UNL     1      25.247   3.151  49.165  1.00  0.00     0.016 C 
HETATM    6  C7  UNL     1      23.741   3.300  48.957  1.00  0.00     0.069 C 
HETATM    7  C8  UNL     1      23.537   4.663  49.013  1.00  0.00    -0.042 C 
HETATM    8  C9  UNL     1      22.453   5.133  48.388  1.00  0.00    -0.000 C 
HETATM    9  C10 UNL     1      21.481   4.892  49.280  1.00  0.00     0.022 C 
HETATM   10 BR1  UNL     1      19.664   4.781  49.744  1.00  0.00    -0.050 Br
HETATM   11  C11 UNL     1      22.046   4.515  50.615  1.00  0.00     0.016 C 
HETATM   12  C12 UNL     1      21.876   3.502  51.513  1.00  0.00    -0.019 C 
HETATM   13  C13 UNL     1      22.073   2.738  52.707  1.00  0.00     0.083 C 
HETATM   14  C14 UNL     1      22.538   1.350  52.600  1.00  0.00     0.041 C 
HETATM   15  N2  UNL     1      23.701   1.073  52.086  1.00  0.00    -0.251 NA
HETATM   16  C15 UNL     1      24.484   0.556  53.223  1.00  0.00     0.406 C 
HETATM   17  N3  UNL     1      23.506  -0.430  53.683  1.00  0.00     0.123 N 
HETATM   18  C16 UNL     1      22.382  -0.119  52.800  1.00  0.00     0.327 C 
HETATM   19  S1  UNL     1      26.043  -0.159  52.707  1.00  0.00    -0.089 SA
HETATM   20  C17 UNL     1      24.257   5.699  49.693  1.00  0.00     0.011 C 
HETATM   21  C18 UNL     1      25.282   5.267  50.458  1.00  0.00     0.039 C 
HETATM   22  H7  UNL     1      25.475   2.437  52.035  1.00  0.00     0.155 HD
HETATM   23  H16 UNL     1      23.914  -1.362  53.462  1.00  0.00     0.320 HD
ENDROOT
BRANCH   1  24
HETATM   24  C3  UNL     1      27.509   2.108  53.359  1.00  0.00     0.059 C 
BRANCH  24  25
HETATM   25  C2  UNL     1      28.795   1.582  53.891  1.00  0.00    -0.034 C 
HETATM   26  C1  UNL     1      29.539   0.483  53.833  1.00  0.00     0.007 C 
ENDBRANCH  24  25
ENDBRANCH   1  24
TORSDOF 2
ENDMDL
MODEL 7
REMARK VINA RESULT:      -7.3      2.494      4.883
REMARK  2 active torsions:
REMARK  status: ('A' for Active; 'I' for Inactive)
REMARK    1  A    between atoms: C2_2  and  C3_3 
REMARK    2  A    between atoms: C3_3  and  C4_4 
ROOT
HETATM    1  C4  UNL     1      23.114   5.939  49.180  1.00  0.00     0.152 C 
HETATM    2  N1  UNL     1      22.441   4.802  49.706  1.00  0.00    -0.185 NA
HETATM    3  O1  UNL     1      21.064   4.895  49.867  1.00  0.00    -0.263 OA
HETATM    4  C5  UNL     1      20.590   3.747  50.552  1.00  0.00     0.088 C 
HETATM    5  C6  UNL     1      20.804   2.712  49.707  1.00  0.00     0.016 C 
HETATM    6  C7  UNL     1      21.187   1.401  50.393  1.00  0.00     0.069 C 
HETATM    7  C8  UNL     1      20.320   1.326  51.463  1.00  0.00    -0.042 C 
HETATM    8  C9  UNL     1      20.066   0.106  51.944  1.00  0.00    -0.000 C 
HETATM    9  C10 UNL     1      21.135  -0.126  52.720  1.00  0.00     0.022 C 
HETATM   10 BR1  UNL     1      22.211  -1.280  53.739  1.00  0.00    -0.050 Br
HETATM   11  C11 UNL     1      21.933   1.124  52.935  1.00  0.00     0.016 C 
HETATM   12  C12 UNL     1      23.239   1.502  52.807  1.00  0.00    -0.019 C 
HETATM   13  C13 UNL     1      24.383   2.360  52.847  1.00  0.00     0.083 C 
HETATM   14  C14 UNL     1      25.134   2.608  51.611  1.00  0.00     0.041 C 
HETATM   15  N2  UNL     1      24.573   3.201  50.597  1.00  0.00    -0.251 NA
HETATM   16  C15 UNL     1      25.272   4.495  50.505  1.00  0.00     0.406 C 
HETATM   17  N3  UNL     1      26.637   3.968  50.528  1.00  0.00     0.123 N 
HETATM   18  C16 UNL     1      26.367   2.551  50.775  1.00  0.00     0.327 C 
HETATM   19  S1  UNL     1      24.867   5.383  49.004  1.00  0.00    -0.089 SA
HETATM   20  C17 UNL     1      19.668   2.351  52.224  1.00  0.00     0.011 C 
HETATM   21  C18 UNL     1      19.997   3.612  51.874  1.00  0.00     0.039 C 
HETATM   22  H7  UNL     1      22.847   4.622  50.694  1.00  0.00     0.155 HD
HETATM   23  H16 UNL     1      27.018   4.118  49.571  1.00  0.00     0.320 HD
ENDROOT
BRANCH   1  24
HETATM   24  C3  UNL     1      23.012   7.027  50.257  1.00  0.00     0.059 C 
BRANCH  24  25
HETATM   25  C2  UNL     1      22.506   8.267  49.611  1.00  0.00    -0.034 C 
HETATM   26  C1  UNL     1      21.391   8.741  49.068  1.00  0.00     0.007 C 
ENDBRANCH  24  25
ENDBRANCH   1  24
TORSDOF 2
ENDMDL
MODEL 8
REMARK VINA RESULT:      -7.0      3.125      4.721
REMARK  2 active torsions:
REMARK  status: ('A' for Active; 'I' for Inactive)
REMARK    1  A    between atoms: C2_2  and  C3_3 
REMARK    2  A    between atoms: C3_3  and  C4_4 
ROOT
HETATM    1  C4  UNL     1      20.224   2.990  49.895  1.00  0.00     0.152 C 
HETATM    2  N1  UNL     1      21.453   2.926  50.605  1.00  0.00    -0.185 NA
HETATM    3  O1  UNL     1      22.544   3.585  50.052  1.00  0.00    -0.263 OA
HETATM    4  C5  UNL     1      23.710   3.277  50.798  1.00  0.00     0.088 C 
HETATM    5  C6  UNL     1      23.513   3.828  52.017  1.00  0.00     0.016 C 
HETATM    6  C7  UNL     1      24.094   3.024  53.180  1.00  0.00     0.069 C 
HETATM    7  C8  UNL     1      25.339   2.644  52.723  1.00  0.00    -0.042 C 
HETATM    8  C9  UNL     1      26.261   2.375  53.653  1.00  0.00    -0.000 C 
HETATM    9  C10 UNL     1      25.947   1.122  54.015  1.00  0.00     0.022 C 
HETATM   10 BR1  UNL     1      26.117  -0.349  55.170  1.00  0.00    -0.050 Br
HETATM   11  C11 UNL     1      24.966   0.509  53.062  1.00  0.00     0.016 C 
HETATM   12  C12 UNL     1      23.762  -0.128  53.153  1.00  0.00    -0.019 C 
HETATM   13  C13 UNL     1      22.580  -0.803  52.711  1.00  0.00     0.083 C 
HETATM   14  C14 UNL     1      21.268  -0.217  53.011  1.00  0.00     0.041 C 
HETATM   15  N2  UNL     1      20.931   0.946  52.532  1.00  0.00    -0.251 NA
HETATM   16  C15 UNL     1      19.846   0.642  51.581  1.00  0.00     0.406 C 
HETATM   17  N3  UNL     1      19.032  -0.169  52.486  1.00  0.00     0.123 N 
HETATM   18  C16 UNL     1      19.920  -0.241  53.647  1.00  0.00     0.327 C 
HETATM   19  S1  UNL     1      19.021   2.119  50.995  1.00  0.00    -0.089 SA
HETATM   20  C17 UNL     1      25.829   2.412  51.397  1.00  0.00     0.011 C 
HETATM   21  C18 UNL     1      24.903   2.532  50.423  1.00  0.00     0.039 C 
HETATM   22  H7  UNL     1      21.732   1.881  50.663  1.00  0.00     0.155 HD
HETATM   23  H16 UNL     1      18.184   0.399  52.694  1.00  0.00     0.320 HD
ENDROOT
BRANCH   1  24
HETATM   24  C3  UNL     1      20.437   2.185  48.606  1.00  0.00     0.059 C 
BRANCH  24  25
HETATM   25  C2  UNL     1      20.020   3.035  47.459  1.00  0.00    -0.034 C 
HETATM   26  C1  UNL     1      19.716   4.301  47.197  1.00  0.00     0.007 C 
ENDBRANCH  24  25
ENDBRANCH   1  24
TORSDOF 2
ENDMDL
MODEL 9
REMARK VINA RESULT:      -6.9      3.452      6.104
REMARK  2 active torsions:
REMARK  status: ('A' for Active; 'I' for Inactive)
REMARK    1  A    between atoms: C2_2  and  C3_3 
REMARK    2  A    between atoms: C3_3  and  C4_4 
ROOT
HETATM    1  C4  UNL     1      18.180   3.221  50.416  1.00  0.00     0.152 C 
HETATM    2  N1  UNL     1      19.224   2.429  50.967  1.00  0.00    -0.185 NA
HETATM    3  O1  UNL     1      18.860   1.423  51.853  1.00  0.00    -0.263 OA
HETATM    4  C5  UNL     1      20.025   0.853  52.426  1.00  0.00     0.088 C 
HETATM    5  C6  UNL     1      20.666   0.242  51.403  1.00  0.00     0.016 C 
HETATM    6  C7  UNL     1      22.191   0.298  51.484  1.00  0.00     0.069 C 
HETATM    7  C8  UNL     1      22.458   0.016  52.808  1.00  0.00    -0.042 C 
HETATM    8  C9  UNL     1      23.664  -0.492  53.080  1.00  0.00    -0.000 C 
HETATM    9  C10 UNL     1      24.439   0.603  53.097  1.00  0.00     0.022 C 
HETATM   10 BR1  UNL     1      26.130   1.422  53.115  1.00  0.00    -0.050 Br
HETATM   11  C11 UNL     1      23.616   1.854  53.110  1.00  0.00     0.016 C 
HETATM   12  C12 UNL     1      23.559   3.011  52.388  1.00  0.00    -0.019 C 
HETATM   13  C13 UNL     1      23.101   4.307  51.990  1.00  0.00     0.083 C 
HETATM   14  C14 UNL     1      22.586   4.497  50.629  1.00  0.00     0.041 C 
HETATM   15  N2  UNL     1      21.524   3.863  50.222  1.00  0.00    -0.251 NA
HETATM   16  C15 UNL     1      20.516   4.924  50.046  1.00  0.00     0.406 C 
HETATM   17  N3  UNL     1      21.335   5.818  49.226  1.00  0.00     0.123 N 
HETATM   18  C16 UNL     1      22.619   5.118  49.274  1.00  0.00     0.327 C 
HETATM   19  S1  UNL     1      19.043   4.333  49.219  1.00  0.00    -0.089 SA
HETATM   20  C17 UNL     1      21.685   0.233  53.994  1.00  0.00     0.011 C 
HETATM   21  C18 UNL     1      20.513   0.873  53.796  1.00  0.00     0.039 C 
HETATM   22  H7  UNL     1      19.871   3.097  51.521  1.00  0.00     0.155 HD
HETATM   23  H16 UNL     1      20.923   5.786  48.270  1.00  0.00     0.320 HD
ENDROOT
BRANCH   1  24
HETATM   24  C3  UNL     1      17.611   4.042  51.581  1.00  0.00     0.059 C 
BRANCH  24  25
HETATM   25  C2  UNL     1      16.169   3.705  51.720  1.00  0.00    -0.034 C 
HETATM   26  C1  UNL     1      15.203   3.754  52.629  1.00  0.00     0.007 C 
ENDBRANCH  24  25
ENDBRANCH   1  24
TORSDOF 2
ENDMDL
