MODEL 1
REMARK VINA RESULT:      -9.1      0.000      0.000
REMARK  6 active torsions:
REMARK  status: ('A' for Active; 'I' for Inactive)
REMARK    1  A    between atoms: C7_8  and  C8_9 
REMARK    2  A    between atoms: C8_9  and  C9_10 
REMARK    3  A    between atoms: C9_10  and  N1_12 
REMARK    4  A    between atoms: N1_12  and  C11_13 
REMARK    5  A    between atoms: C14_19  and  N5_20 
REMARK    6  A    between atoms: N5_20  and  C15_21 
ROOT
HETATM    1  C11 UNL     1      24.287   3.331  51.108  1.00  0.00     0.385 A 
HETATM    2  N2  UNL     1      23.431   4.223  51.857  1.00  0.00    -0.235 NA
HETATM    3  C12 UNL     1      23.574   5.523  51.587  1.00  0.00     0.136 C 
HETATM    4  C13 UNL     1      24.432   6.412  50.717  1.00  0.00     0.157 C 
HETATM    5  N3  UNL     1      25.379   5.685  50.054  1.00  0.00    -0.182 NA
HETATM    6  N4  UNL     1      25.226   4.318  50.521  1.00  0.00    -0.215 N 
HETATM    7  C14 UNL     1      25.632   3.014  50.969  1.00  0.00     0.293 A 
ENDROOT
BRANCH   1   8
HETATM    8  N1  UNL     1      23.388   2.698  50.066  1.00  0.00     0.145 N 
HETATM    9  H18 UNL     1      22.932   3.540  49.577  1.00  0.00     0.322 HD
BRANCH   8  10
HETATM   10  C9  UNL     1      22.340   1.931  50.621  1.00  0.00     0.223 C 
HETATM   11  C10 UNL     1      21.612   1.002  49.671  1.00  0.00     0.043 C 
BRANCH  10  12
HETATM   12  C8  UNL     1      22.996   0.981  51.645  1.00  0.00     0.044 C 
BRANCH  12  13
HETATM   13  C7  UNL     1      22.012   0.174  52.416  1.00  0.00     0.020 C 
HETATM   14  C3  UNL     1      22.656  -0.571  53.547  1.00  0.00    -0.056 C 
HETATM   15  C2  UNL     1      23.936  -0.404  53.828  1.00  0.00    -0.026 C 
HETATM   16  C4  UNL     1      21.719  -1.462  54.257  1.00  0.00     0.202 C 
HETATM   17  C1  UNL     1      24.870  -0.947  54.823  1.00  0.00     0.036 C 
HETATM   18  O1  UNL     1      20.424  -0.989  54.024  1.00  0.00    -0.387 OA
HETATM   19  C5  UNL     1      20.415   0.383  54.286  1.00  0.00     0.168 C 
HETATM   20  C6  UNL     1      20.915   1.064  53.003  1.00  0.00     0.035 C 
ENDBRANCH  12  13
ENDBRANCH  10  12
ENDBRANCH   8  10
ENDBRANCH   1   8
BRANCH   7  21
HETATM   21  N5  UNL     1      26.579   2.842  52.063  1.00  0.00    -0.362 N 
HETATM   22  H22 UNL     1      26.680   3.769  52.596  1.00  0.00     0.162 HD
BRANCH  21  23
HETATM   23  C15 UNL     1      27.437   1.904  52.689  1.00  0.00     0.031 A 
HETATM   24  C16 UNL     1      28.518   2.215  53.524  1.00  0.00     0.032 A 
HETATM   25  C17 UNL     1      29.232   1.166  54.038  1.00  0.00     0.046 A 
HETATM   26  C18 UNL     1      28.958  -0.157  53.790  1.00  0.00     0.138 A 
HETATM   27  F1  UNL     1      29.753  -1.085  54.370  1.00  0.00    -0.204 F 
HETATM   28  C19 UNL     1      27.897  -0.476  52.969  1.00  0.00     0.074 A 
HETATM   29 CL1  UNL     1      27.589  -2.164  52.684  1.00  0.00    -0.081 Cl
HETATM   30  C20 UNL     1      27.169   0.573  52.444  1.00  0.00     0.056 A 
ENDBRANCH  21  23
ENDBRANCH   7  21
TORSDOF 6
ENDMDL
MODEL 2
REMARK VINA RESULT:      -9.0      3.539      6.336
REMARK  6 active torsions:
REMARK  status: ('A' for Active; 'I' for Inactive)
REMARK    1  A    between atoms: C7_8  and  C8_9 
REMARK    2  A    between atoms: C8_9  and  C9_10 
REMARK    3  A    between atoms: C9_10  and  N1_12 
REMARK    4  A    between atoms: N1_12  and  C11_13 
REMARK    5  A    between atoms: C14_19  and  N5_20 
REMARK    6  A    between atoms: N5_20  and  C15_21 
ROOT
HETATM    1  C11 UNL     1      26.388   1.015  52.914  1.00  0.00     0.385 A 
HETATM    2  N2  UNL     1      27.060   1.824  53.905  1.00  0.00    -0.235 NA
HETATM    3  C12 UNL     1      28.076   1.235  54.540  1.00  0.00     0.136 C 
HETATM    4  C13 UNL     1      28.761  -0.111  54.577  1.00  0.00     0.157 C 
HETATM    5  N3  UNL     1      28.124  -1.010  53.770  1.00  0.00    -0.182 NA
HETATM    6  N4  UNL     1      26.965  -0.312  53.240  1.00  0.00    -0.215 N 
HETATM    7  C14 UNL     1      25.601  -0.126  52.827  1.00  0.00     0.293 A 
ENDROOT
BRANCH   1   8
HETATM    8  N1  UNL     1      26.870   1.540  51.577  1.00  0.00     0.145 N 
HETATM    9  H18 UNL     1      27.894   1.809  51.762  1.00  0.00     0.322 HD
BRANCH   8  10
HETATM   10  C9  UNL     1      26.207   2.717  51.165  1.00  0.00     0.223 C 
HETATM   11  C10 UNL     1      26.516   3.209  49.766  1.00  0.00     0.043 C 
BRANCH  10  12
HETATM   12  C8  UNL     1      24.704   2.372  51.118  1.00  0.00     0.044 C 
BRANCH  12  13
HETATM   13  C7  UNL     1      23.838   3.545  50.819  1.00  0.00     0.020 C 
HETATM   14  C3  UNL     1      22.645   3.169  49.990  1.00  0.00    -0.056 C 
HETATM   15  C2  UNL     1      22.403   1.908  49.683  1.00  0.00    -0.026 C 
HETATM   16  C4  UNL     1      21.832   4.334  49.592  1.00  0.00     0.202 C 
HETATM   17  C1  UNL     1      21.371   1.195  48.917  1.00  0.00     0.036 C 
HETATM   18  O1  UNL     1      22.093   5.365  50.498  1.00  0.00    -0.387 OA
HETATM   19  C5  UNL     1      21.975   4.842  51.789  1.00  0.00     0.168 C 
HETATM   20  C6  UNL     1      23.330   4.192  52.109  1.00  0.00     0.035 C 
ENDBRANCH  12  13
ENDBRANCH  10  12
ENDBRANCH   8  10
ENDBRANCH   1   8
BRANCH   7  21
HETATM   21  N5  UNL     1      24.485  -0.453  53.705  1.00  0.00    -0.362 N 
HETATM   22  H22 UNL     1      24.861  -0.738  54.669  1.00  0.00     0.162 HD
BRANCH  21  23
HETATM   23  C15 UNL     1      23.072  -0.550  53.762  1.00  0.00     0.031 A 
HETATM   24  C16 UNL     1      22.348  -1.596  54.349  1.00  0.00     0.032 A 
HETATM   25  C17 UNL     1      20.982  -1.510  54.306  1.00  0.00     0.046 A 
HETATM   26  C18 UNL     1      20.286  -0.474  53.731  1.00  0.00     0.138 A 
HETATM   27  F1  UNL     1      18.934  -0.528  53.766  1.00  0.00    -0.204 F 
HETATM   28  C19 UNL     1      20.987   0.560  53.151  1.00  0.00     0.074 A 
HETATM   29 CL1  UNL     1      20.063   1.849  52.437  1.00  0.00    -0.081 Cl
HETATM   30  C20 UNL     1      22.366   0.486  53.187  1.00  0.00     0.056 A 
ENDBRANCH  21  23
ENDBRANCH   7  21
TORSDOF 6
ENDMDL
MODEL 3
REMARK VINA RESULT:      -8.8      1.092      2.036
REMARK  6 active torsions:
REMARK  status: ('A' for Active; 'I' for Inactive)
REMARK    1  A    between atoms: C7_8  and  C8_9 
REMARK    2  A    between atoms: C8_9  and  C9_10 
REMARK    3  A    between atoms: C9_10  and  N1_12 
REMARK    4  A    between atoms: N1_12  and  C11_13 
REMARK    5  A    between atoms: C14_19  and  N5_20 
REMARK    6  A    between atoms: N5_20  and  C15_21 
ROOT
HETATM    1  C11 UNL     1      24.103   3.897  51.191  1.00  0.00     0.385 A 
HETATM    2  N2  UNL     1      23.662   5.147  51.767  1.00  0.00    -0.235 NA
HETATM    3  C12 UNL     1      24.219   6.248  51.258  1.00  0.00     0.136 C 
HETATM    4  C13 UNL     1      25.263   6.617  50.229  1.00  0.00     0.157 C 
HETATM    5  N3  UNL     1      25.852   5.503  49.704  1.00  0.00    -0.182 NA
HETATM    6  N4  UNL     1      25.276   4.377  50.420  1.00  0.00    -0.215 N 
HETATM    7  C14 UNL     1      25.244   3.111  51.099  1.00  0.00     0.293 A 
ENDROOT
BRANCH   1   8
HETATM    8  N1  UNL     1      22.967   3.450  50.293  1.00  0.00     0.145 N 
HETATM    9  H18 UNL     1      22.718   4.334  49.735  1.00  0.00     0.322 HD
BRANCH   8  10
HETATM   10  C9  UNL     1      21.806   3.075  51.004  1.00  0.00     0.223 C 
HETATM   11  C10 UNL     1      20.481   3.361  50.327  1.00  0.00     0.043 C 
BRANCH  10  12
HETATM   12  C8  UNL     1      21.846   1.537  51.116  1.00  0.00     0.044 C 
BRANCH  12  13
HETATM   13  C7  UNL     1      21.848   1.047  52.522  1.00  0.00     0.020 C 
HETATM   14  C3  UNL     1      20.564   0.359  52.881  1.00  0.00    -0.056 C 
HETATM   15  C2  UNL     1      19.625   0.159  51.974  1.00  0.00    -0.026 C 
HETATM   16  C4  UNL     1      20.502  -0.037  54.300  1.00  0.00     0.202 C 
HETATM   17  C1  UNL     1      18.290  -0.455  51.965  1.00  0.00     0.036 C 
HETATM   18  O1  UNL     1      21.813  -0.130  54.774  1.00  0.00    -0.387 OA
HETATM   19  C5  UNL     1      22.544  -0.902  53.867  1.00  0.00     0.168 C 
HETATM   20  C6  UNL     1      22.993   0.060  52.756  1.00  0.00     0.035 C 
ENDBRANCH  12  13
ENDBRANCH  10  12
ENDBRANCH   8  10
ENDBRANCH   1   8
BRANCH   7  21
HETATM   21  N5  UNL     1      26.154   2.810  52.197  1.00  0.00    -0.362 N 
HETATM   22  H22 UNL     1      26.139   3.618  52.905  1.00  0.00     0.162 HD
BRANCH  21  23
HETATM   23  C15 UNL     1      27.073   1.846  52.682  1.00  0.00     0.031 A 
HETATM   24  C16 UNL     1      28.262   2.123  53.370  1.00  0.00     0.032 A 
HETATM   25  C17 UNL     1      29.020   1.053  53.762  1.00  0.00     0.046 A 
HETATM   26  C18 UNL     1      28.692  -0.260  53.527  1.00  0.00     0.138 A 
HETATM   27  F1  UNL     1      29.542  -1.212  53.975  1.00  0.00    -0.204 F 
HETATM   28  C19 UNL     1      27.525  -0.545  52.851  1.00  0.00     0.074 A 
HETATM   29 CL1  UNL     1      27.152  -2.222  52.577  1.00  0.00    -0.081 Cl
HETATM   30  C20 UNL     1      26.751   0.525  52.450  1.00  0.00     0.056 A 
ENDBRANCH  21  23
ENDBRANCH   7  21
TORSDOF 6
ENDMDL
MODEL 4
REMARK VINA RESULT:      -8.7      3.915      5.969
REMARK  6 active torsions:
REMARK  status: ('A' for Active; 'I' for Inactive)
REMARK    1  A    between atoms: C7_8  and  C8_9 
REMARK    2  A    between atoms: C8_9  and  C9_10 
REMARK    3  A    between atoms: C9_10  and  N1_12 
REMARK    4  A    between atoms: N1_12  and  C11_13 
REMARK    5  A    between atoms: C14_19  and  N5_20 
REMARK    6  A    between atoms: N5_20  and  C15_21 
ROOT
HETATM    1  C11 UNL     1      24.203   2.815  51.455  1.00  0.00     0.385 A 
HETATM    2  N2  UNL     1      23.744   3.575  52.596  1.00  0.00    -0.235 NA
HETATM    3  C12 UNL     1      22.704   4.381  52.373  1.00  0.00     0.136 C 
HETATM    4  C13 UNL     1      21.826   4.805  51.218  1.00  0.00     0.157 C 
HETATM    5  N3  UNL     1      22.251   4.248  50.047  1.00  0.00    -0.182 NA
HETATM    6  N4  UNL     1      23.457   3.508  50.376  1.00  0.00    -0.215 N 
HETATM    7  C14 UNL     1      24.796   3.010  50.214  1.00  0.00     0.293 A 
ENDROOT
BRANCH   1   8
HETATM    8  N1  UNL     1      23.701   1.404  51.688  1.00  0.00     0.145 N 
HETATM    9  H18 UNL     1      22.648   1.532  51.859  1.00  0.00     0.322 HD
BRANCH   8  10
HETATM   10  C9  UNL     1      24.234   0.805  52.851  1.00  0.00     0.223 C 
HETATM   11  C10 UNL     1      23.568  -0.474  53.314  1.00  0.00     0.043 C 
BRANCH  10  12
HETATM   12  C8  UNL     1      25.671   0.372  52.494  1.00  0.00     0.044 C 
BRANCH  12  13
HETATM   13  C7  UNL     1      26.683   0.800  53.499  1.00  0.00     0.020 C 
HETATM   14  C3  UNL     1      27.732  -0.248  53.725  1.00  0.00    -0.056 C 
HETATM   15  C2  UNL     1      27.749  -1.357  53.006  1.00  0.00    -0.026 C 
HETATM   16  C4  UNL     1      28.682   0.110  54.795  1.00  0.00     0.202 C 
HETATM   17  C1  UNL     1      28.592  -2.558  52.954  1.00  0.00     0.036 C 
HETATM   18  O1  UNL     1      28.659   1.500  54.936  1.00  0.00    -0.387 OA
HETATM   19  C5  UNL     1      28.797   2.064  53.664  1.00  0.00     0.168 C 
HETATM   20  C6  UNL     1      27.388   2.083  53.053  1.00  0.00     0.035 C 
ENDBRANCH  12  13
ENDBRANCH  10  12
ENDBRANCH   8  10
ENDBRANCH   1   8
BRANCH   7  21
HETATM   21  N5  UNL     1      25.915   3.903  49.944  1.00  0.00    -0.362 N 
HETATM   22  H22 UNL     1      26.757   3.612  50.543  1.00  0.00     0.162 HD
BRANCH  21  23
HETATM   23  C15 UNL     1      26.312   5.034  49.187  1.00  0.00     0.031 A 
HETATM   24  C16 UNL     1      25.470   6.072  48.766  1.00  0.00     0.032 A 
HETATM   25  C17 UNL     1      26.042   7.084  48.042  1.00  0.00     0.046 A 
HETATM   26  C18 UNL     1      27.373   7.146  47.708  1.00  0.00     0.138 A 
HETATM   27  F1  UNL     1      27.793   8.211  46.987  1.00  0.00    -0.204 F 
HETATM   28  C19 UNL     1      28.211   6.131  48.117  1.00  0.00     0.074 A 
HETATM   29 CL1  UNL     1      29.888   6.253  47.671  1.00  0.00    -0.081 Cl
HETATM   30  C20 UNL     1      27.648   5.104  48.847  1.00  0.00     0.056 A 
ENDBRANCH  21  23
ENDBRANCH   7  21
TORSDOF 6
ENDMDL
MODEL 5
REMARK VINA RESULT:      -8.6      3.367      5.534
REMARK  6 active torsions:
REMARK  status: ('A' for Active; 'I' for Inactive)
REMARK    1  A    between atoms: C7_8  and  C8_9 
REMARK    2  A    between atoms: C8_9  and  C9_10 
REMARK    3  A    between atoms: C9_10  and  N1_12 
REMARK    4  A    between atoms: N1_12  and  C11_13 
REMARK    5  A    between atoms: C14_19  and  N5_20 
REMARK    6  A    between atoms: N5_20  and  C15_21 
ROOT
HETATM    1  C11 UNL     1      24.613   0.732  52.802  1.00  0.00     0.385 A 
HETATM    2  N2  UNL     1      25.358  -0.506  52.831  1.00  0.00    -0.235 NA
HETATM    3  C12 UNL     1      26.412  -0.527  53.649  1.00  0.00     0.136 C 
HETATM    4  C13 UNL     1      27.139   0.410  54.585  1.00  0.00     0.157 C 
HETATM    5  N3  UNL     1      26.600   1.664  54.542  1.00  0.00    -0.182 NA
HETATM    6  N4  UNL     1      25.560   1.612  53.529  1.00  0.00    -0.215 N 
HETATM    7  C14 UNL     1      24.765   2.058  52.418  1.00  0.00     0.293 A 
ENDROOT
BRANCH   1   8
HETATM    8  N1  UNL     1      23.354   0.457  53.599  1.00  0.00     0.145 N 
HETATM    9  H18 UNL     1      23.717   0.262  54.592  1.00  0.00     0.322 HD
BRANCH   8  10
HETATM   10  C9  UNL     1      22.668  -0.704  53.180  1.00  0.00     0.223 C 
HETATM   11  C10 UNL     1      21.736  -1.337  54.193  1.00  0.00     0.043 C 
BRANCH  10  12
HETATM   12  C8  UNL     1      21.733  -0.263  52.035  1.00  0.00     0.044 C 
BRANCH  12  13
HETATM   13  C7  UNL     1      21.160   1.097  52.231  1.00  0.00     0.020 C 
HETATM   14  C3  UNL     1      21.407   1.988  51.050  1.00  0.00    -0.056 C 
HETATM   15  C2  UNL     1      21.985   1.522  49.957  1.00  0.00    -0.026 C 
HETATM   16  C4  UNL     1      20.944   3.372  51.267  1.00  0.00     0.202 C 
HETATM   17  C1  UNL     1      22.373   2.083  48.656  1.00  0.00     0.036 C 
HETATM   18  O1  UNL     1      19.969   3.342  52.268  1.00  0.00    -0.387 OA
HETATM   19  C5  UNL     1      19.049   2.342  51.941  1.00  0.00     0.168 C 
HETATM   20  C6  UNL     1      19.649   1.026  52.459  1.00  0.00     0.035 C 
ENDBRANCH  12  13
ENDBRANCH  10  12
ENDBRANCH   8  10
ENDBRANCH   1   8
BRANCH   7  21
HETATM   21  N5  UNL     1      25.375   2.514  51.176  1.00  0.00    -0.362 N 
HETATM   22  H22 UNL     1      25.924   1.706  50.730  1.00  0.00     0.162 HD
BRANCH  21  23
HETATM   23  C15 UNL     1      25.531   3.641  50.331  1.00  0.00     0.031 A 
HETATM   24  C16 UNL     1      24.534   4.576  50.024  1.00  0.00     0.032 A 
HETATM   25  C17 UNL     1      24.878   5.603  49.186  1.00  0.00     0.046 A 
HETATM   26  C18 UNL     1      26.125   5.772  48.634  1.00  0.00     0.138 A 
HETATM   27  F1  UNL     1      26.316   6.837  47.822  1.00  0.00    -0.204 F 
HETATM   28  C19 UNL     1      27.114   4.858  48.928  1.00  0.00     0.074 A 
HETATM   29 CL1  UNL     1      28.676   5.114  48.207  1.00  0.00    -0.081 Cl
HETATM   30  C20 UNL     1      26.780   3.818  49.772  1.00  0.00     0.056 A 
ENDBRANCH  21  23
ENDBRANCH   7  21
TORSDOF 6
ENDMDL
MODEL 6
REMARK VINA RESULT:      -8.5      3.322      5.523
REMARK  6 active torsions:
REMARK  status: ('A' for Active; 'I' for Inactive)
REMARK    1  A    between atoms: C7_8  and  C8_9 
REMARK    2  A    between atoms: C8_9  and  C9_10 
REMARK    3  A    between atoms: C9_10  and  N1_12 
REMARK    4  A    between atoms: N1_12  and  C11_13 
REMARK    5  A    between atoms: C14_19  and  N5_20 
REMARK    6  A    between atoms: N5_20  and  C15_21 
ROOT
HETATM    1  C11 UNL     1      21.593   1.245  51.656  1.00  0.00     0.385 A 
HETATM    2  N2  UNL     1      21.022   2.191  52.588  1.00  0.00    -0.235 NA
HETATM    3  C12 UNL     1      19.797   2.629  52.289  1.00  0.00     0.136 C 
HETATM    4  C13 UNL     1      18.772   2.466  51.191  1.00  0.00     0.157 C 
HETATM    5  N3  UNL     1      19.257   1.690  50.177  1.00  0.00    -0.182 NA
HETATM    6  N4  UNL     1      20.630   1.384  50.536  1.00  0.00    -0.215 N 
HETATM    7  C14 UNL     1      22.040   1.182  50.343  1.00  0.00     0.293 A 
ENDROOT
BRANCH   1   8
HETATM    8  N1  UNL     1      21.489  -0.102  52.342  1.00  0.00     0.145 N 
HETATM    9  H18 UNL     1      20.450  -0.175  52.607  1.00  0.00     0.322 HD
BRANCH   8  10
HETATM   10  C9  UNL     1      22.223  -0.176  53.546  1.00  0.00     0.223 C 
HETATM   11  C10 UNL     1      21.793  -1.242  54.532  1.00  0.00     0.043 C 
BRANCH  10  12
HETATM   12  C8  UNL     1      23.658  -0.587  53.152  1.00  0.00     0.044 C 
BRANCH  12  13
HETATM   13  C7  UNL     1      24.708   0.255  53.788  1.00  0.00     0.020 C 
HETATM   14  C3  UNL     1      26.076  -0.343  53.638  1.00  0.00    -0.056 C 
HETATM   15  C2  UNL     1      26.264  -1.439  52.926  1.00  0.00    -0.026 C 
HETATM   16  C4  UNL     1      27.117   0.419  54.355  1.00  0.00     0.202 C 
HETATM   17  C1  UNL     1      27.419  -2.276  52.575  1.00  0.00     0.036 C 
HETATM   18  O1  UNL     1      26.646   1.723  54.530  1.00  0.00    -0.387 OA
HETATM   19  C5  UNL     1      26.174   2.179  53.296  1.00  0.00     0.168 C 
HETATM   20  C6  UNL     1      24.735   1.654  53.171  1.00  0.00     0.035 C 
ENDBRANCH  12  13
ENDBRANCH  10  12
ENDBRANCH   8  10
ENDBRANCH   1   8
BRANCH   7  21
HETATM   21  N5  UNL     1      22.872   2.181  49.683  1.00  0.00    -0.362 N 
HETATM   22  H22 UNL     1      23.008   1.908  48.654  1.00  0.00     0.162 HD
BRANCH  21  23
HETATM   23  C15 UNL     1      23.589   3.384  49.896  1.00  0.00     0.031 A 
HETATM   24  C16 UNL     1      23.115   4.507  50.586  1.00  0.00     0.032 A 
HETATM   25  C17 UNL     1      23.961   5.579  50.690  1.00  0.00     0.046 A 
HETATM   26  C18 UNL     1      25.230   5.622  50.166  1.00  0.00     0.138 A 
HETATM   27  F1  UNL     1      25.949   6.753  50.348  1.00  0.00    -0.204 F 
HETATM   28  C19 UNL     1      25.707   4.523  49.484  1.00  0.00     0.074 A 
HETATM   29 CL1  UNL     1      27.320   4.624  48.839  1.00  0.00    -0.081 Cl
HETATM   30  C20 UNL     1      24.865   3.435  49.373  1.00  0.00     0.056 A 
ENDBRANCH  21  23
ENDBRANCH   7  21
TORSDOF 6
ENDMDL
MODEL 7
REMARK VINA RESULT:      -8.4      4.304      6.067
REMARK  6 active torsions:
REMARK  status: ('A' for Active; 'I' for Inactive)
REMARK    1  A    between atoms: C7_8  and  C8_9 
REMARK    2  A    between atoms: C8_9  and  C9_10 
REMARK    3  A    between atoms: C9_10  and  N1_12 
REMARK    4  A    between atoms: N1_12  and  C11_13 
REMARK    5  A    between atoms: C14_19  and  N5_20 
REMARK    6  A    between atoms: N5_20  and  C15_21 
ROOT
HETATM    1  C11 UNL     1      24.644   3.895  50.583  1.00  0.00     0.385 A 
HETATM    2  N2  UNL     1      23.917   4.807  51.436  1.00  0.00    -0.235 NA
HETATM    3  C12 UNL     1      22.998   5.560  50.829  1.00  0.00     0.136 C 
HETATM    4  C13 UNL     1      22.474   5.801  49.432  1.00  0.00     0.157 C 
HETATM    5  N3  UNL     1      23.182   5.084  48.510  1.00  0.00    -0.182 NA
HETATM    6  N4  UNL     1      24.234   4.414  49.255  1.00  0.00    -0.215 N 
HETATM    7  C14 UNL     1      25.553   3.915  49.533  1.00  0.00     0.293 A 
ENDROOT
BRANCH   1   8
HETATM    8  N1  UNL     1      24.059   2.527  50.872  1.00  0.00     0.145 N 
HETATM    9  H18 UNL     1      22.998   2.700  50.883  1.00  0.00     0.322 HD
BRANCH   8  10
HETATM   10  C9  UNL     1      24.405   2.029  52.147  1.00  0.00     0.223 C 
HETATM   11  C10 UNL     1      23.464   1.003  52.746  1.00  0.00     0.043 C 
BRANCH  10  12
HETATM   12  C8  UNL     1      25.730   1.260  51.965  1.00  0.00     0.044 C 
BRANCH  12  13
HETATM   13  C7  UNL     1      26.610   1.307  53.166  1.00  0.00     0.020 C 
HETATM   14  C3  UNL     1      27.217  -0.029  53.473  1.00  0.00    -0.056 C 
HETATM   15  C2  UNL     1      27.028  -1.061  52.670  1.00  0.00    -0.026 C 
HETATM   16  C4  UNL     1      28.004  -0.030  54.721  1.00  0.00     0.202 C 
HETATM   17  C1  UNL     1      27.451  -2.468  52.654  1.00  0.00     0.036 C 
HETATM   18  O1  UNL     1      28.386   1.288  54.983  1.00  0.00    -0.387 OA
HETATM   19  C5  UNL     1      28.936   1.818  53.812  1.00  0.00     0.168 C 
HETATM   20  C6  UNL     1      27.750   2.309  52.969  1.00  0.00     0.035 C 
ENDBRANCH  12  13
ENDBRANCH  10  12
ENDBRANCH   8  10
ENDBRANCH   1   8
BRANCH   7  21
HETATM   21  N5  UNL     1      26.729   4.772  49.448  1.00  0.00    -0.362 N 
HETATM   22  H22 UNL     1      27.339   4.628  50.320  1.00  0.00     0.162 HD
BRANCH  21  23
HETATM   23  C15 UNL     1      27.371   5.746  48.644  1.00  0.00     0.031 A 
HETATM   24  C16 UNL     1      26.768   6.892  48.111  1.00  0.00     0.032 A 
HETATM   25  C17 UNL     1      27.558   7.719  47.357  1.00  0.00     0.046 A 
HETATM   26  C18 UNL     1      28.888   7.498  47.095  1.00  0.00     0.138 A 
HETATM   27  F1  UNL     1      29.539   8.406  46.332  1.00  0.00    -0.204 F 
HETATM   28  C19 UNL     1      29.492   6.373  47.614  1.00  0.00     0.074 A 
HETATM   29 CL1  UNL     1      31.178   6.136  47.255  1.00  0.00    -0.081 Cl
HETATM   30  C20 UNL     1      28.708   5.531  48.376  1.00  0.00     0.056 A 
ENDBRANCH  21  23
ENDBRANCH   7  21
TORSDOF 6
ENDMDL
MODEL 8
REMARK VINA RESULT:      -8.2      3.011      5.736
REMARK  6 active torsions:
REMARK  status: ('A' for Active; 'I' for Inactive)
REMARK    1  A    between atoms: C7_8  and  C8_9 
REMARK    2  A    between atoms: C8_9  and  C9_10 
REMARK    3  A    between atoms: C9_10  and  N1_12 
REMARK    4  A    between atoms: N1_12  and  C11_13 
REMARK    5  A    between atoms: C14_19  and  N5_20 
REMARK    6  A    between atoms: N5_20  and  C15_21 
ROOT
HETATM    1  C11 UNL     1      23.085   3.362  50.605  1.00  0.00     0.385 A 
HETATM    2  N2  UNL     1      23.096   2.733  49.304  1.00  0.00    -0.235 NA
HETATM    3  C12 UNL     1      22.551   3.442  48.313  1.00  0.00     0.136 C 
HETATM    4  C13 UNL     1      21.845   4.765  48.122  1.00  0.00     0.157 C 
HETATM    5  N3  UNL     1      21.656   5.398  49.317  1.00  0.00    -0.182 NA
HETATM    6  N4  UNL     1      22.158   4.487  50.331  1.00  0.00    -0.215 N 
HETATM    7  C14 UNL     1      22.187   3.776  51.580  1.00  0.00     0.293 A 
ENDROOT
BRANCH   1   8
HETATM    8  N1  UNL     1      24.508   3.831  50.832  1.00  0.00     0.145 N 
HETATM    9  H18 UNL     1      24.613   4.665  50.162  1.00  0.00     0.322 HD
BRANCH   8  10
HETATM   10  C9  UNL     1      25.479   2.878  50.454  1.00  0.00     0.223 C 
HETATM   11  C10 UNL     1      26.544   3.351  49.485  1.00  0.00     0.043 C 
BRANCH  10  12
HETATM   12  C8  UNL     1      26.265   2.531  51.735  1.00  0.00     0.044 C 
BRANCH  12  13
HETATM   13  C7  UNL     1      26.439   1.067  51.942  1.00  0.00     0.020 C 
HETATM   14  C3  UNL     1      27.563   0.760  52.888  1.00  0.00    -0.056 C 
HETATM   15  C2  UNL     1      28.214   1.730  53.504  1.00  0.00    -0.026 C 
HETATM   16  C4  UNL     1      27.822  -0.686  53.022  1.00  0.00     0.202 C 
HETATM   17  C1  UNL     1      29.327   1.802  54.461  1.00  0.00     0.036 C 
HETATM   18  O1  UNL     1      26.657  -1.363  52.655  1.00  0.00    -0.387 OA
HETATM   19  C5  UNL     1      25.587  -0.781  53.340  1.00  0.00     0.168 C 
HETATM   20  C6  UNL     1      25.163   0.439  52.508  1.00  0.00     0.035 C 
ENDBRANCH  12  13
ENDBRANCH  10  12
ENDBRANCH   8  10
ENDBRANCH   1   8
BRANCH   7  21
HETATM   21  N5  UNL     1      21.039   3.011  52.052  1.00  0.00    -0.362 N 
HETATM   22  H22 UNL     1      20.174   3.647  52.080  1.00  0.00     0.162 HD
BRANCH  21  23
HETATM   23  C15 UNL     1      20.633   1.732  52.505  1.00  0.00     0.031 A 
HETATM   24  C16 UNL     1      19.452   1.072  52.140  1.00  0.00     0.032 A 
HETATM   25  C17 UNL     1      19.234  -0.166  52.684  1.00  0.00     0.046 A 
HETATM   26  C18 UNL     1      20.092  -0.794  53.553  1.00  0.00     0.138 A 
HETATM   27  F1  UNL     1      19.742  -2.019  54.009  1.00  0.00    -0.204 F 
HETATM   28  C19 UNL     1      21.257  -0.156  53.920  1.00  0.00     0.074 A 
HETATM   29 CL1  UNL     1      22.312  -0.991  55.022  1.00  0.00    -0.081 Cl
HETATM   30  C20 UNL     1      21.489   1.093  53.379  1.00  0.00     0.056 A 
ENDBRANCH  21  23
ENDBRANCH   7  21
TORSDOF 6
ENDMDL
MODEL 9
REMARK VINA RESULT:      -8.0      4.155      5.601
REMARK  6 active torsions:
REMARK  status: ('A' for Active; 'I' for Inactive)
REMARK    1  A    between atoms: C7_8  and  C8_9 
REMARK    2  A    between atoms: C8_9  and  C9_10 
REMARK    3  A    between atoms: C9_10  and  N1_12 
REMARK    4  A    between atoms: N1_12  and  C11_13 
REMARK    5  A    between atoms: C14_19  and  N5_20 
REMARK    6  A    between atoms: N5_20  and  C15_21 
ROOT
HETATM    1  C11 UNL     1      23.512   4.822  50.538  1.00  0.00     0.385 A 
HETATM    2  N2  UNL     1      22.723   5.792  51.264  1.00  0.00    -0.235 NA
HETATM    3  C12 UNL     1      21.613   6.209  50.652  1.00  0.00     0.136 C 
HETATM    4  C13 UNL     1      20.897   6.000  49.338  1.00  0.00     0.157 C 
HETATM    5  N3  UNL     1      21.622   5.196  48.505  1.00  0.00    -0.182 NA
HETATM    6  N4  UNL     1      22.862   4.915  49.208  1.00  0.00    -0.215 N 
HETATM    7  C14 UNL     1      24.275   4.722  49.382  1.00  0.00     0.293 A 
ENDROOT
BRANCH   1   8
HETATM    8  N1  UNL     1      23.241   3.497  51.221  1.00  0.00     0.145 N 
HETATM    9  H18 UNL     1      22.515   3.742  51.975  1.00  0.00     0.322 HD
BRANCH   8  10
HETATM   10  C9  UNL     1      24.367   2.973  51.893  1.00  0.00     0.223 C 
HETATM   11  C10 UNL     1      24.476   3.291  53.371  1.00  0.00     0.043 C 
BRANCH  10  12
HETATM   12  C8  UNL     1      24.220   1.438  51.850  1.00  0.00     0.044 C 
BRANCH  12  13
HETATM   13  C7  UNL     1      25.077   0.734  52.843  1.00  0.00     0.020 C 
HETATM   14  C3  UNL     1      24.302  -0.267  53.648  1.00  0.00    -0.056 C 
HETATM   15  C2  UNL     1      23.031  -0.513  53.383  1.00  0.00    -0.026 C 
HETATM   16  C4  UNL     1      25.107  -0.897  54.711  1.00  0.00     0.202 C 
HETATM   17  C1  UNL     1      21.996  -1.393  53.941  1.00  0.00     0.036 C 
HETATM   18  O1  UNL     1      26.453  -0.779  54.352  1.00  0.00    -0.387 OA
HETATM   19  C5  UNL     1      26.584  -1.212  53.030  1.00  0.00     0.168 C 
HETATM   20  C6  UNL     1      26.223  -0.005  52.150  1.00  0.00     0.035 C 
ENDBRANCH  12  13
ENDBRANCH  10  12
ENDBRANCH   8  10
ENDBRANCH   1   8
BRANCH   7  21
HETATM   21  N5  UNL     1      25.244   5.707  48.919  1.00  0.00    -0.362 N 
HETATM   22  H22 UNL     1      24.756   6.655  48.793  1.00  0.00     0.162 HD
BRANCH  21  23
HETATM   23  C15 UNL     1      26.602   5.884  48.556  1.00  0.00     0.031 A 
HETATM   24  C16 UNL     1      27.609   4.915  48.660  1.00  0.00     0.032 A 
HETATM   25  C17 UNL     1      28.867   5.276  48.255  1.00  0.00     0.046 A 
HETATM   26  C18 UNL     1      29.198   6.513  47.758  1.00  0.00     0.138 A 
HETATM   27  F1  UNL     1      30.485   6.722  47.397  1.00  0.00    -0.204 F 
HETATM   28  C19 UNL     1      28.216   7.474  47.651  1.00  0.00     0.074 A 
HETATM   29 CL1  UNL     1      28.684   9.024  47.015  1.00  0.00    -0.081 Cl
HETATM   30  C20 UNL     1      26.944   7.124  48.056  1.00  0.00     0.056 A 
ENDBRANCH  21  23
ENDBRANCH   7  21
TORSDOF 6
ENDMDL
