MODEL 1
REMARK VINA RESULT:      -8.6      0.000      0.000
REMARK  8 active torsions:
REMARK  status: ('A' for Active; 'I' for Inactive)
REMARK    1  A    between atoms: N1_7  and  C7_8 
REMARK    2  A    between atoms: C7_8  and  C8_9 
REMARK    3  A    between atoms: C8_9  and  N2_10 
REMARK    4  A    between atoms: N2_10  and  N3_11 
REMARK    5  A    between atoms: N3_11  and  O1_12 
REMARK    6  A    between atoms: N3_11  and  C9_13 
REMARK    7  A    between atoms: C14_20  and  N6_21 
REMARK    8  A    between atoms: N6_21  and  C15_22 
ROOT
HETATM    1  C9  UNL     1      23.052   4.137  52.376  1.00  0.00     0.076 A 
HETATM    2  C10 UNL     1      21.907   3.493  51.983  1.00  0.00     0.036 A 
HETATM    3  C11 UNL     1      21.714   2.137  52.121  1.00  0.00     0.035 A 
HETATM    4  C12 UNL     1      22.745   1.420  52.689  1.00  0.00     0.072 A 
HETATM    5  N4  UNL     1      22.610   0.089  52.837  1.00  0.00    -0.241 NA
HETATM    6  C13 UNL     1      23.620  -0.646  53.386  1.00  0.00     0.235 A 
HETATM    7  N5  UNL     1      24.769  -0.029  53.785  1.00  0.00    -0.224 NA
HETATM    8  C14 UNL     1      24.969   1.295  53.666  1.00  0.00     0.138 A 
HETATM    9  C20 UNL     1      23.925   1.999  53.108  1.00  0.00     0.041 A 
HETATM   10  C21 UNL     1      24.044   3.341  52.940  1.00  0.00     0.051 A 
ENDROOT
BRANCH   1  11
HETATM   11  N3  UNL     1      23.361   5.522  52.251  1.00  0.00    -0.187 N 
BRANCH  11  12
HETATM   12  N2  UNL     1      22.506   6.157  51.393  1.00  0.00    -0.211 NA
HETATM   13  H15 UNL     1      21.786   6.766  51.779  1.00  0.00     0.149 HD
BRANCH  12  14
HETATM   14  C8  UNL     1      23.247   6.872  50.385  1.00  0.00     0.132 C 
BRANCH  14  15
HETATM   15  C7  UNL     1      23.415   6.101  49.101  1.00  0.00     0.138 C 
BRANCH  15  16
HETATM   16  N1  UNL     1      24.788   5.619  48.950  1.00  0.00    -0.384 N 
HETATM   17  C2  UNL     1      25.157   4.291  49.277  1.00  0.00    -0.003 C 
HETATM   18  C1  UNL     1      24.221   3.363  49.177  1.00  0.00     0.038 C 
HETATM   19  C3  UNL     1      26.571   4.101  49.692  1.00  0.00     0.056 C 
HETATM   20  C4  UNL     1      27.417   4.802  48.648  1.00  0.00     0.007 C 
HETATM   21  C5  UNL     1      27.155   6.298  48.826  1.00  0.00     0.020 C 
HETATM   22  C6  UNL     1      25.742   6.581  48.442  1.00  0.00     0.122 C 
ENDBRANCH  15  16
ENDBRANCH  14  15
ENDBRANCH  12  14
ENDBRANCH  11  12
BRANCH  11  23
HETATM   23  O1  UNL     1      24.304   6.350  52.785  1.00  0.00    -0.272 OA
HETATM   24  H16 UNL     1      24.653   6.879  52.024  1.00  0.00     0.246 HD
ENDBRANCH  11  23
ENDBRANCH   1  11
BRANCH   8  25
HETATM   25  N6  UNL     1      26.196   1.862  54.099  1.00  0.00    -0.363 N 
HETATM   26  H20 UNL     1      26.390   2.342  54.976  1.00  0.00     0.162 HD
BRANCH  25  27
HETATM   27  C15 UNL     1      27.306   1.734  53.164  1.00  0.00     0.131 A 
HETATM   28  C16 UNL     1      28.463   2.564  53.586  1.00  0.00     0.003 A 
HETATM   29  C17 UNL     1      29.521   1.772  53.829  1.00  0.00     0.017 A 
HETATM   30  C18 UNL     1      29.119   0.383  53.581  1.00  0.00     0.009 A 
HETATM   31 BR1  UNL     1      29.924  -1.345  53.662  1.00  0.00    -0.051 Br
HETATM   32  C19 UNL     1      27.846   0.363  53.199  1.00  0.00     0.021 A 
ENDBRANCH  25  27
ENDBRANCH   8  25
TORSDOF 8
ENDMDL
MODEL 2
REMARK VINA RESULT:      -8.3      3.107      6.282
REMARK  8 active torsions:
REMARK  status: ('A' for Active; 'I' for Inactive)
REMARK    1  A    between atoms: N1_7  and  C7_8 
REMARK    2  A    between atoms: C7_8  and  C8_9 
REMARK    3  A    between atoms: C8_9  and  N2_10 
REMARK    4  A    between atoms: N2_10  and  N3_11 
REMARK    5  A    between atoms: N3_11  and  O1_12 
REMARK    6  A    between atoms: N3_11  and  C9_13 
REMARK    7  A    between atoms: C14_20  and  N6_21 
REMARK    8  A    between atoms: N6_21  and  C15_22 
ROOT
HETATM    1  C9  UNL     1      23.015  -0.835  54.355  1.00  0.00     0.076 A 
HETATM    2  C10 UNL     1      21.949  -1.644  54.655  1.00  0.00     0.036 A 
HETATM    3  C11 UNL     1      20.683  -1.448  54.150  1.00  0.00     0.035 A 
HETATM    4  C12 UNL     1      20.514  -0.375  53.302  1.00  0.00     0.072 A 
HETATM    5  N4  UNL     1      19.293  -0.133  52.791  1.00  0.00    -0.241 NA
HETATM    6  C13 UNL     1      19.095   0.929  51.957  1.00  0.00     0.235 A 
HETATM    7  N5  UNL     1      20.140   1.748  51.644  1.00  0.00    -0.224 NA
HETATM    8  C14 UNL     1      21.384   1.565  52.120  1.00  0.00     0.138 A 
HETATM    9  C20 UNL     1      21.539   0.481  52.956  1.00  0.00     0.041 A 
HETATM   10  C21 UNL     1      22.760   0.226  53.492  1.00  0.00     0.051 A 
ENDROOT
BRANCH   1  11
HETATM   11  N3  UNL     1      24.349  -0.933  54.844  1.00  0.00    -0.187 N 
BRANCH  11  12
HETATM   12  N2  UNL     1      25.251  -0.391  53.970  1.00  0.00    -0.211 NA
HETATM   13  H15 UNL     1      25.965   0.241  54.330  1.00  0.00     0.149 HD
BRANCH  12  14
HETATM   14  C8  UNL     1      25.878  -1.426  53.189  1.00  0.00     0.132 C 
BRANCH  14  15
HETATM   15  C7  UNL     1      26.905  -0.908  52.215  1.00  0.00     0.138 C 
BRANCH  15  16
HETATM   16  N1  UNL     1      27.706   0.162  52.810  1.00  0.00    -0.384 N 
HETATM   17  C2  UNL     1      28.824  -0.109  53.636  1.00  0.00    -0.003 C 
HETATM   18  C1  UNL     1      29.468  -1.243  53.426  1.00  0.00     0.038 C 
HETATM   19  C3  UNL     1      29.142   0.932  54.648  1.00  0.00     0.056 C 
HETATM   20  C4  UNL     1      29.150   2.254  53.908  1.00  0.00     0.007 C 
HETATM   21  C5  UNL     1      27.699   2.527  53.510  1.00  0.00     0.020 C 
HETATM   22  C6  UNL     1      27.287   1.511  52.498  1.00  0.00     0.122 C 
ENDBRANCH  15  16
ENDBRANCH  14  15
ENDBRANCH  12  14
ENDBRANCH  11  12
BRANCH  11  23
HETATM   23  O1  UNL     1      24.927  -1.439  55.970  1.00  0.00    -0.272 OA
HETATM   24  H16 UNL     1      25.568  -2.124  55.654  1.00  0.00     0.246 HD
ENDBRANCH  11  23
ENDBRANCH   1  11
BRANCH   8  25
HETATM   25  N6  UNL     1      22.417   2.466  51.753  1.00  0.00    -0.363 N 
HETATM   26  H20 UNL     1      22.818   3.220  52.308  1.00  0.00     0.162 HD
BRANCH  25  27
HETATM   27  C15 UNL     1      22.962   2.277  50.416  1.00  0.00     0.131 A 
HETATM   28  C16 UNL     1      22.441   3.299  49.473  1.00  0.00     0.003 A 
HETATM   29  C17 UNL     1      23.459   4.037  49.000  1.00  0.00     0.017 A 
HETATM   30  C18 UNL     1      24.702   3.542  49.603  1.00  0.00     0.009 A 
HETATM   31 BR1  UNL     1      26.562   3.961  49.525  1.00  0.00    -0.051 Br
HETATM   32  C19 UNL     1      24.414   2.531  50.417  1.00  0.00     0.021 A 
ENDBRANCH  25  27
ENDBRANCH   8  25
TORSDOF 8
ENDMDL
MODEL 3
REMARK VINA RESULT:      -8.1      2.737      3.903
REMARK  8 active torsions:
REMARK  status: ('A' for Active; 'I' for Inactive)
REMARK    1  A    between atoms: N1_7  and  C7_8 
REMARK    2  A    between atoms: C7_8  and  C8_9 
REMARK    3  A    between atoms: C8_9  and  N2_10 
REMARK    4  A    between atoms: N2_10  and  N3_11 
REMARK    5  A    between atoms: N3_11  and  O1_12 
REMARK    6  A    between atoms: N3_11  and  C9_13 
REMARK    7  A    between atoms: C14_20  and  N6_21 
REMARK    8  A    between atoms: N6_21  and  C15_22 
ROOT
HETATM    1  C9  UNL     1      20.763   0.852  50.252  1.00  0.00     0.076 A 
HETATM    2  C10 UNL     1      19.538   0.576  50.803  1.00  0.00     0.036 A 
HETATM    3  C11 UNL     1      19.374   0.094  52.082  1.00  0.00     0.035 A 
HETATM    4  C12 UNL     1      20.520  -0.108  52.819  1.00  0.00     0.072 A 
HETATM    5  N4  UNL     1      20.414  -0.589  54.072  1.00  0.00    -0.241 NA
HETATM    6  C13 UNL     1      21.534  -0.809  54.820  1.00  0.00     0.235 A 
HETATM    7  N5  UNL     1      22.764  -0.542  54.294  1.00  0.00    -0.224 NA
HETATM    8  C14 UNL     1      22.941  -0.062  53.050  1.00  0.00     0.138 A 
HETATM    9  C20 UNL     1      21.785   0.147  52.331  1.00  0.00     0.041 A 
HETATM   10  C21 UNL     1      21.870   0.620  51.062  1.00  0.00     0.051 A 
ENDROOT
BRANCH   1  11
HETATM   11  N3  UNL     1      21.042   1.323  48.936  1.00  0.00    -0.187 N 
BRANCH  11  12
HETATM   12  N2  UNL     1      20.252   2.388  48.600  1.00  0.00    -0.211 NA
HETATM   13  H15 UNL     1      19.573   2.729  49.279  1.00  0.00     0.149 HD
BRANCH  12  14
HETATM   14  C8  UNL     1      21.062   3.488  48.140  1.00  0.00     0.132 C 
BRANCH  14  15
HETATM   15  C7  UNL     1      21.171   4.613  49.136  1.00  0.00     0.138 C 
BRANCH  15  16
HETATM   16  N1  UNL     1      22.124   4.289  50.197  1.00  0.00    -0.384 N 
HETATM   17  C2  UNL     1      21.757   4.304  51.565  1.00  0.00    -0.003 C 
HETATM   18  C1  UNL     1      20.491   4.060  51.852  1.00  0.00     0.038 C 
HETATM   19  C3  UNL     1      22.857   4.592  52.522  1.00  0.00     0.056 C 
HETATM   20  C4  UNL     1      24.003   3.678  52.138  1.00  0.00     0.007 C 
HETATM   21  C5  UNL     1      24.516   4.184  50.790  1.00  0.00     0.020 C 
HETATM   22  C6  UNL     1      23.461   3.947  49.762  1.00  0.00     0.122 C 
ENDBRANCH  15  16
ENDBRANCH  14  15
ENDBRANCH  12  14
ENDBRANCH  11  12
BRANCH  11  23
HETATM   23  O1  UNL     1      21.905   0.959  47.946  1.00  0.00    -0.272 OA
HETATM   24  H16 UNL     1      21.361   0.447  47.295  1.00  0.00     0.246 HD
ENDBRANCH  11  23
ENDBRANCH   1  11
BRANCH   8  25
HETATM   25  N6  UNL     1      24.255   0.185  52.572  1.00  0.00    -0.363 N 
HETATM   26  H20 UNL     1      24.532   0.554  51.664  1.00  0.00     0.162 HD
BRANCH  25  27
HETATM   27  C15 UNL     1      25.327  -0.133  53.505  1.00  0.00     0.131 A 
HETATM   28  C16 UNL     1      26.285  -1.101  52.914  1.00  0.00     0.003 A 
HETATM   29  C17 UNL     1      27.502  -0.538  52.831  1.00  0.00     0.017 A 
HETATM   30  C18 UNL     1      27.411   0.828  53.361  1.00  0.00     0.009 A 
HETATM   31 BR1  UNL     1      28.585   2.308  53.630  1.00  0.00    -0.051 Br
HETATM   32  C19 UNL     1      26.161   1.058  53.748  1.00  0.00     0.021 A 
ENDBRANCH  25  27
ENDBRANCH   8  25
TORSDOF 8
ENDMDL
MODEL 4
REMARK VINA RESULT:      -7.9      2.024      2.804
REMARK  8 active torsions:
REMARK  status: ('A' for Active; 'I' for Inactive)
REMARK    1  A    between atoms: N1_7  and  C7_8 
REMARK    2  A    between atoms: C7_8  and  C8_9 
REMARK    3  A    between atoms: C8_9  and  N2_10 
REMARK    4  A    between atoms: N2_10  and  N3_11 
REMARK    5  A    between atoms: N3_11  and  O1_12 
REMARK    6  A    between atoms: N3_11  and  C9_13 
REMARK    7  A    between atoms: C14_20  and  N6_21 
REMARK    8  A    between atoms: N6_21  and  C15_22 
ROOT
HETATM    1  C9  UNL     1      21.151   2.155  51.451  1.00  0.00     0.076 A 
HETATM    2  C10 UNL     1      19.913   1.585  51.608  1.00  0.00     0.036 A 
HETATM    3  C11 UNL     1      19.678   0.493  52.413  1.00  0.00     0.035 A 
HETATM    4  C12 UNL     1      20.765  -0.028  53.081  1.00  0.00     0.072 A 
HETATM    5  N4  UNL     1      20.591  -1.103  53.873  1.00  0.00    -0.241 NA
HETATM    6  C13 UNL     1      21.651  -1.645  54.538  1.00  0.00     0.235 A 
HETATM    7  N5  UNL     1      22.892  -1.096  54.397  1.00  0.00    -0.224 NA
HETATM    8  C14 UNL     1      23.136  -0.024  53.624  1.00  0.00     0.138 A 
HETATM    9  C20 UNL     1      22.038   0.492  52.972  1.00  0.00     0.041 A 
HETATM   10  C21 UNL     1      22.194   1.569  52.160  1.00  0.00     0.051 A 
ENDROOT
BRANCH   1  11
HETATM   11  N3  UNL     1      21.503   3.261  50.625  1.00  0.00    -0.187 N 
BRANCH  11  12
HETATM   12  N2  UNL     1      21.608   4.419  51.345  1.00  0.00    -0.211 NA
HETATM   13  H15 UNL     1      21.921   4.369  52.313  1.00  0.00     0.149 HD
BRANCH  12  14
HETATM   14  C8  UNL     1      22.407   5.383  50.632  1.00  0.00     0.132 C 
BRANCH  14  15
HETATM   15  C7  UNL     1      23.685   5.748  51.342  1.00  0.00     0.138 C 
BRANCH  15  16
HETATM   16  N1  UNL     1      24.856   5.305  50.585  1.00  0.00    -0.384 N 
HETATM   17  C2  UNL     1      25.666   6.212  49.858  1.00  0.00    -0.003 C 
HETATM   18  C1  UNL     1      25.717   7.457  50.295  1.00  0.00     0.038 C 
HETATM   19  C3  UNL     1      26.372   5.641  48.682  1.00  0.00     0.056 C 
HETATM   20  C4  UNL     1      27.042   4.370  49.165  1.00  0.00     0.007 C 
HETATM   21  C5  UNL     1      25.913   3.382  49.460  1.00  0.00     0.020 C 
HETATM   22  C6  UNL     1      25.136   3.886  50.628  1.00  0.00     0.122 C 
ENDBRANCH  15  16
ENDBRANCH  14  15
ENDBRANCH  12  14
ENDBRANCH  11  12
BRANCH  11  23
HETATM   23  O1  UNL     1      21.756   3.427  49.296  1.00  0.00    -0.272 OA
HETATM   24  H16 UNL     1      22.531   4.043  49.249  1.00  0.00     0.246 HD
ENDBRANCH  11  23
ENDBRANCH   1  11
BRANCH   8  25
HETATM   25  N6  UNL     1      24.458   0.485  53.524  1.00  0.00    -0.363 N 
HETATM   26  H20 UNL     1      24.755   1.389  53.162  1.00  0.00     0.162 HD
BRANCH  25  27
HETATM   27  C15 UNL     1      25.506  -0.405  54.004  1.00  0.00     0.131 A 
HETATM   28  C16 UNL     1      26.124  -1.161  52.885  1.00  0.00     0.003 A 
HETATM   29  C17 UNL     1      27.428  -0.850  52.796  1.00  0.00     0.017 A 
HETATM   30  C18 UNL     1      27.738   0.124  53.849  1.00  0.00     0.009 A 
HETATM   31 BR1  UNL     1      29.268   1.087  54.460  1.00  0.00    -0.051 Br
HETATM   32  C19 UNL     1      26.633   0.379  54.541  1.00  0.00     0.021 A 
ENDBRANCH  25  27
ENDBRANCH   8  25
TORSDOF 8
ENDMDL
MODEL 5
REMARK VINA RESULT:      -7.8      2.932      5.453
REMARK  8 active torsions:
REMARK  status: ('A' for Active; 'I' for Inactive)
REMARK    1  A    between atoms: N1_7  and  C7_8 
REMARK    2  A    between atoms: C7_8  and  C8_9 
REMARK    3  A    between atoms: C8_9  and  N2_10 
REMARK    4  A    between atoms: N2_10  and  N3_11 
REMARK    5  A    between atoms: N3_11  and  O1_12 
REMARK    6  A    between atoms: N3_11  and  C9_13 
REMARK    7  A    between atoms: C14_20  and  N6_21 
REMARK    8  A    between atoms: N6_21  and  C15_22 
ROOT
HETATM    1  C9  UNL     1      25.322   0.639  53.801  1.00  0.00     0.076 A 
HETATM    2  C10 UNL     1      25.519  -0.356  54.725  1.00  0.00     0.036 A 
HETATM    3  C11 UNL     1      24.523  -1.206  55.147  1.00  0.00     0.035 A 
HETATM    4  C12 UNL     1      23.275  -1.021  54.592  1.00  0.00     0.072 A 
HETATM    5  N4  UNL     1      22.263  -1.820  54.980  1.00  0.00    -0.241 NA
HETATM    6  C13 UNL     1      21.015  -1.652  54.454  1.00  0.00     0.235 A 
HETATM    7  N5  UNL     1      20.794  -0.669  53.535  1.00  0.00    -0.224 NA
HETATM    8  C14 UNL     1      21.758   0.163  53.104  1.00  0.00     0.138 A 
HETATM    9  C20 UNL     1      23.002  -0.043  53.659  1.00  0.00     0.041 A 
HETATM   10  C21 UNL     1      24.034   0.759  53.290  1.00  0.00     0.051 A 
ENDROOT
BRANCH   1  11
HETATM   11  N3  UNL     1      26.273   1.585  53.322  1.00  0.00    -0.187 N 
BRANCH  11  12
HETATM   12  N2  UNL     1      26.654   1.315  52.037  1.00  0.00    -0.211 NA
HETATM   13  H15 UNL     1      26.174   0.575  51.527  1.00  0.00     0.149 HD
BRANCH  12  14
HETATM   14  C8  UNL     1      26.649   2.520  51.247  1.00  0.00     0.132 C 
BRANCH  14  15
HETATM   15  C7  UNL     1      25.326   2.799  50.582  1.00  0.00     0.138 C 
BRANCH  15  16
HETATM   16  N1  UNL     1      25.061   4.236  50.513  1.00  0.00    -0.384 N 
HETATM   17  C2  UNL     1      23.998   4.837  51.229  1.00  0.00    -0.003 C 
HETATM   18  C1  UNL     1      23.614   4.248  52.347  1.00  0.00     0.038 C 
HETATM   19  C3  UNL     1      23.439   6.077  50.629  1.00  0.00     0.056 C 
HETATM   20  C4  UNL     1      24.626   6.963  50.306  1.00  0.00     0.007 C 
HETATM   21  C5  UNL     1      25.369   6.275  49.161  1.00  0.00     0.020 C 
HETATM   22  C6  UNL     1      25.956   5.003  49.673  1.00  0.00     0.122 C 
ENDBRANCH  15  16
ENDBRANCH  14  15
ENDBRANCH  12  14
ENDBRANCH  11  12
BRANCH  11  23
HETATM   23  O1  UNL     1      26.883   2.686  53.845  1.00  0.00    -0.272 OA
HETATM   24  H16 UNL     1      26.149   3.295  54.111  1.00  0.00     0.246 HD
ENDBRANCH  11  23
ENDBRANCH   1  11
BRANCH   8  25
HETATM   25  N6  UNL     1      21.447   1.166  52.149  1.00  0.00    -0.363 N 
HETATM   26  H20 UNL     1      21.355   2.169  52.300  1.00  0.00     0.162 HD
BRANCH  25  27
HETATM   27  C15 UNL     1      21.237   0.688  50.789  1.00  0.00     0.131 A 
HETATM   28  C16 UNL     1      19.849   0.954  50.334  1.00  0.00     0.003 A 
HETATM   29  C17 UNL     1      19.873   1.775  49.270  1.00  0.00     0.017 A 
HETATM   30  C18 UNL     1      21.274   2.091  48.969  1.00  0.00     0.009 A 
HETATM   31 BR1  UNL     1      22.231   3.134  47.690  1.00  0.00    -0.051 Br
HETATM   32  C19 UNL     1      22.056   1.466  49.843  1.00  0.00     0.021 A 
ENDBRANCH  25  27
ENDBRANCH   8  25
TORSDOF 8
ENDMDL
MODEL 6
REMARK VINA RESULT:      -7.8      3.565      6.015
REMARK  8 active torsions:
REMARK  status: ('A' for Active; 'I' for Inactive)
REMARK    1  A    between atoms: N1_7  and  C7_8 
REMARK    2  A    between atoms: C7_8  and  C8_9 
REMARK    3  A    between atoms: C8_9  and  N2_10 
REMARK    4  A    between atoms: N2_10  and  N3_11 
REMARK    5  A    between atoms: N3_11  and  O1_12 
REMARK    6  A    between atoms: N3_11  and  C9_13 
REMARK    7  A    between atoms: C14_20  and  N6_21 
REMARK    8  A    between atoms: N6_21  and  C15_22 
ROOT
HETATM    1  C9  UNL     1      22.485  -0.699  54.366  1.00  0.00     0.076 A 
HETATM    2  C10 UNL     1      23.163  -1.309  55.391  1.00  0.00     0.036 A 
HETATM    3  C11 UNL     1      24.532  -1.268  55.524  1.00  0.00     0.035 A 
HETATM    4  C12 UNL     1      25.227  -0.569  54.561  1.00  0.00     0.072 A 
HETATM    5  N4  UNL     1      26.570  -0.508  54.639  1.00  0.00    -0.241 NA
HETATM    6  C13 UNL     1      27.283   0.168  53.693  1.00  0.00     0.235 A 
HETATM    7  N5  UNL     1      26.632   0.783  52.664  1.00  0.00    -0.224 NA
HETATM    8  C14 UNL     1      25.295   0.761  52.525  1.00  0.00     0.138 A 
HETATM    9  C20 UNL     1      24.614   0.069  53.502  1.00  0.00     0.041 A 
HETATM   10  C21 UNL     1      23.261  -0.014  53.436  1.00  0.00     0.051 A 
ENDROOT
BRANCH   1  11
HETATM   11  N3  UNL     1      21.082  -0.706  54.122  1.00  0.00    -0.187 N 
BRANCH  11  12
HETATM   12  N2  UNL     1      20.633   0.518  53.708  1.00  0.00    -0.211 NA
HETATM   13  H15 UNL     1      21.303   1.278  53.604  1.00  0.00     0.149 HD
BRANCH  12  14
HETATM   14  C8  UNL     1      19.867   0.387  52.495  1.00  0.00     0.132 C 
BRANCH  14  15
HETATM   15  C7  UNL     1      19.372   1.702  51.949  1.00  0.00     0.138 C 
BRANCH  15  16
HETATM   16  N1  UNL     1      19.990   2.005  50.659  1.00  0.00    -0.384 N 
HETATM   17  C2  UNL     1      19.404   2.910  49.740  1.00  0.00    -0.003 C 
HETATM   18  C1  UNL     1      18.647   3.870  50.240  1.00  0.00     0.038 C 
HETATM   19  C3  UNL     1      19.721   2.668  48.309  1.00  0.00     0.056 C 
HETATM   20  C4  UNL     1      21.226   2.501  48.230  1.00  0.00     0.007 C 
HETATM   21  C5  UNL     1      21.543   1.179  48.929  1.00  0.00     0.020 C 
HETATM   22  C6  UNL     1      21.238   1.326  50.382  1.00  0.00     0.122 C 
ENDBRANCH  15  16
ENDBRANCH  14  15
ENDBRANCH  12  14
ENDBRANCH  11  12
BRANCH  11  23
HETATM   23  O1  UNL     1      20.094  -1.642  54.208  1.00  0.00    -0.272 OA
HETATM   24  H16 UNL     1      19.783  -1.784  53.278  1.00  0.00     0.246 HD
ENDBRANCH  11  23
ENDBRANCH   1  11
BRANCH   8  25
HETATM   25  N6  UNL     1      24.692   1.420  51.422  1.00  0.00    -0.363 N 
HETATM   26  H20 UNL     1      24.076   1.022  50.714  1.00  0.00     0.162 HD
BRANCH  25  27
HETATM   27  C15 UNL     1      24.999   2.838  51.299  1.00  0.00     0.131 A 
HETATM   28  C16 UNL     1      25.159   3.233  49.876  1.00  0.00     0.003 A 
HETATM   29  C17 UNL     1      24.228   4.145  49.554  1.00  0.00     0.017 A 
HETATM   30  C18 UNL     1      23.407   4.400  50.743  1.00  0.00     0.009 A 
HETATM   31 BR1  UNL     1      21.915   5.496  51.207  1.00  0.00    -0.051 Br
HETATM   32  C19 UNL     1      23.851   3.648  51.744  1.00  0.00     0.021 A 
ENDBRANCH  25  27
ENDBRANCH   8  25
TORSDOF 8
ENDMDL
MODEL 7
REMARK VINA RESULT:      -7.8      3.256      7.352
REMARK  8 active torsions:
REMARK  status: ('A' for Active; 'I' for Inactive)
REMARK    1  A    between atoms: N1_7  and  C7_8 
REMARK    2  A    between atoms: C7_8  and  C8_9 
REMARK    3  A    between atoms: C8_9  and  N2_10 
REMARK    4  A    between atoms: N2_10  and  N3_11 
REMARK    5  A    between atoms: N3_11  and  O1_12 
REMARK    6  A    between atoms: N3_11  and  C9_13 
REMARK    7  A    between atoms: C14_20  and  N6_21 
REMARK    8  A    between atoms: N6_21  and  C15_22 
ROOT
HETATM    1  C9  UNL     1      25.417   5.331  49.001  1.00  0.00     0.076 A 
HETATM    2  C10 UNL     1      24.505   6.206  48.467  1.00  0.00     0.036 A 
HETATM    3  C11 UNL     1      24.860   7.374  47.829  1.00  0.00     0.035 A 
HETATM    4  C12 UNL     1      26.207   7.646  47.740  1.00  0.00     0.072 A 
HETATM    5  N4  UNL     1      26.606   8.781  47.135  1.00  0.00    -0.241 NA
HETATM    6  C13 UNL     1      27.934   9.080  47.043  1.00  0.00     0.235 A 
HETATM    7  N5  UNL     1      28.859   8.226  47.567  1.00  0.00    -0.224 NA
HETATM    8  C14 UNL     1      28.531   7.077  48.184  1.00  0.00     0.138 A 
HETATM    9  C20 UNL     1      27.180   6.813  48.253  1.00  0.00     0.041 A 
HETATM   10  C21 UNL     1      26.757   5.680  48.869  1.00  0.00     0.051 A 
ENDROOT
BRANCH   1  11
HETATM   11  N3  UNL     1      25.155   4.119  49.702  1.00  0.00    -0.187 N 
BRANCH  11  12
HETATM   12  N2  UNL     1      25.973   3.974  50.788  1.00  0.00    -0.211 NA
HETATM   13  H15 UNL     1      25.669   4.348  51.686  1.00  0.00     0.149 HD
BRANCH  12  14
HETATM   14  C8  UNL     1      26.352   2.594  50.950  1.00  0.00     0.132 C 
BRANCH  14  15
HETATM   15  C7  UNL     1      26.124   2.065  52.342  1.00  0.00     0.138 C 
BRANCH  15  16
HETATM   16  N1  UNL     1      27.333   1.435  52.873  1.00  0.00    -0.384 N 
HETATM   17  C2  UNL     1      27.449   0.030  53.010  1.00  0.00    -0.003 C 
HETATM   18  C1  UNL     1      26.745  -0.716  52.177  1.00  0.00     0.038 C 
HETATM   19  C3  UNL     1      28.363  -0.437  54.084  1.00  0.00     0.056 C 
HETATM   20  C4  UNL     1      29.655   0.335  53.907  1.00  0.00     0.007 C 
HETATM   21  C5  UNL     1      29.335   1.786  54.271  1.00  0.00     0.020 C 
HETATM   22  C6  UNL     1      28.403   2.336  53.245  1.00  0.00     0.122 C 
ENDBRANCH  15  16
ENDBRANCH  14  15
ENDBRANCH  12  14
ENDBRANCH  11  12
BRANCH  11  23
HETATM   23  O1  UNL     1      24.285   3.081  49.539  1.00  0.00    -0.272 OA
HETATM   24  H16 UNL     1      24.549   2.646  48.690  1.00  0.00     0.246 HD
ENDBRANCH  11  23
ENDBRANCH   1  11
BRANCH   8  25
HETATM   25  N6  UNL     1      29.553   6.244  48.709  1.00  0.00    -0.363 N 
HETATM   26  H20 UNL     1      29.492   5.595  49.492  1.00  0.00     0.162 HD
BRANCH  25  27
HETATM   27  C15 UNL     1      30.840   6.336  48.034  1.00  0.00     0.131 A 
HETATM   28  C16 UNL     1      31.914   6.737  48.979  1.00  0.00     0.003 A 
HETATM   29  C17 UNL     1      32.837   5.762  49.051  1.00  0.00     0.017 A 
HETATM   30  C18 UNL     1      32.421   4.672  48.162  1.00  0.00     0.009 A 
HETATM   31 BR1  UNL     1      33.080   2.958  47.644  1.00  0.00    -0.051 Br
HETATM   32  C19 UNL     1      31.274   5.003  47.579  1.00  0.00     0.021 A 
ENDBRANCH  25  27
ENDBRANCH   8  25
TORSDOF 8
ENDMDL
MODEL 8
REMARK VINA RESULT:      -7.8      4.043      6.018
REMARK  8 active torsions:
REMARK  status: ('A' for Active; 'I' for Inactive)
REMARK    1  A    between atoms: N1_7  and  C7_8 
REMARK    2  A    between atoms: C7_8  and  C8_9 
REMARK    3  A    between atoms: C8_9  and  N2_10 
REMARK    4  A    between atoms: N2_10  and  N3_11 
REMARK    5  A    between atoms: N3_11  and  O1_12 
REMARK    6  A    between atoms: N3_11  and  C9_13 
REMARK    7  A    between atoms: C14_20  and  N6_21 
REMARK    8  A    between atoms: N6_21  and  C15_22 
ROOT
HETATM    1  C9  UNL     1      27.002   6.273  48.570  1.00  0.00     0.076 A 
HETATM    2  C10 UNL     1      25.915   6.964  48.100  1.00  0.00     0.036 A 
HETATM    3  C11 UNL     1      24.618   6.526  48.245  1.00  0.00     0.035 A 
HETATM    4  C12 UNL     1      24.439   5.327  48.902  1.00  0.00     0.072 A 
HETATM    5  N4  UNL     1      23.191   4.849  49.060  1.00  0.00    -0.241 NA
HETATM    6  C13 UNL     1      22.987   3.660  49.697  1.00  0.00     0.235 A 
HETATM    7  N5  UNL     1      24.052   2.954  50.173  1.00  0.00    -0.224 NA
HETATM    8  C14 UNL     1      25.324   3.373  50.048  1.00  0.00     0.138 A 
HETATM    9  C20 UNL     1      25.485   4.578  49.401  1.00  0.00     0.041 A 
HETATM   10  C21 UNL     1      26.736   5.073  49.220  1.00  0.00     0.051 A 
ENDROOT
BRANCH   1  11
HETATM   11  N3  UNL     1      28.378   6.622  48.446  1.00  0.00    -0.187 N 
BRANCH  11  12
HETATM   12  N2  UNL     1      29.196   5.653  48.958  1.00  0.00    -0.211 NA
HETATM   13  H15 UNL     1      28.914   4.677  48.873  1.00  0.00     0.149 HD
BRANCH  12  14
HETATM   14  C8  UNL     1      30.536   5.810  48.454  1.00  0.00     0.132 C 
BRANCH  14  15
HETATM   15  C7  UNL     1      30.923   4.766  47.438  1.00  0.00     0.138 C 
BRANCH  15  16
HETATM   16  N1  UNL     1      32.349   4.451  47.521  1.00  0.00    -0.384 N 
HETATM   17  C2  UNL     1      32.837   3.132  47.352  1.00  0.00    -0.003 C 
HETATM   18  C1  UNL     1      32.124   2.318  46.594  1.00  0.00     0.038 C 
HETATM   19  C3  UNL     1      34.109   2.823  48.055  1.00  0.00     0.056 C 
HETATM   20  C4  UNL     1      35.066   3.948  47.714  1.00  0.00     0.007 C 
HETATM   21  C5  UNL     1      34.524   5.193  48.417  1.00  0.00     0.020 C 
HETATM   22  C6  UNL     1      33.229   5.570  47.781  1.00  0.00     0.122 C 
ENDBRANCH  15  16
ENDBRANCH  14  15
ENDBRANCH  12  14
ENDBRANCH  11  12
BRANCH  11  23
HETATM   23  O1  UNL     1      29.058   7.690  47.941  1.00  0.00    -0.272 OA
HETATM   24  H16 UNL     1      30.012   7.516  48.143  1.00  0.00     0.246 HD
ENDBRANCH  11  23
ENDBRANCH   1  11
BRANCH   8  25
HETATM   25  N6  UNL     1      26.380   2.577  50.565  1.00  0.00    -0.363 N 
HETATM   26  H20 UNL     1      27.238   2.293  50.095  1.00  0.00     0.162 HD
BRANCH  25  27
HETATM   27  C15 UNL     1      26.202   2.119  51.936  1.00  0.00     0.131 A 
HETATM   28  C16 UNL     1      25.676   0.730  51.975  1.00  0.00     0.003 A 
HETATM   29  C17 UNL     1      26.564  -0.071  52.587  1.00  0.00     0.017 A 
HETATM   30  C18 UNL     1      27.718   0.745  52.983  1.00  0.00     0.009 A 
HETATM   31 BR1  UNL     1      29.387   0.475  53.868  1.00  0.00    -0.051 Br
HETATM   32  C19 UNL     1      27.508   2.002  52.608  1.00  0.00     0.021 A 
ENDBRANCH  25  27
ENDBRANCH   8  25
TORSDOF 8
ENDMDL
MODEL 9
REMARK VINA RESULT:      -7.7      3.128      5.108
REMARK  8 active torsions:
REMARK  status: ('A' for Active; 'I' for Inactive)
REMARK    1  A    between atoms: N1_7  and  C7_8 
REMARK    2  A    between atoms: C7_8  and  C8_9 
REMARK    3  A    between atoms: C8_9  and  N2_10 
REMARK    4  A    between atoms: N2_10  and  N3_11 
REMARK    5  A    between atoms: N3_11  and  O1_12 
REMARK    6  A    between atoms: N3_11  and  C9_13 
REMARK    7  A    between atoms: C14_20  and  N6_21 
REMARK    8  A    between atoms: N6_21  and  C15_22 
ROOT
HETATM    1  C9  UNL     1      21.638   1.139  52.987  1.00  0.00     0.076 A 
HETATM    2  C10 UNL     1      21.712  -0.099  53.572  1.00  0.00     0.036 A 
HETATM    3  C11 UNL     1      22.900  -0.746  53.829  1.00  0.00     0.035 A 
HETATM    4  C12 UNL     1      24.054  -0.086  53.468  1.00  0.00     0.072 A 
HETATM    5  N4  UNL     1      25.242  -0.681  53.688  1.00  0.00    -0.241 NA
HETATM    6  C13 UNL     1      26.400  -0.054  53.330  1.00  0.00     0.235 A 
HETATM    7  N5  UNL     1      26.352   1.178  52.747  1.00  0.00    -0.224 NA
HETATM    8  C14 UNL     1      25.202   1.827  52.498  1.00  0.00     0.138 A 
HETATM    9  C20 UNL     1      24.057   1.160  52.876  1.00  0.00     0.041 A 
HETATM   10  C21 UNL     1      22.849   1.736  52.653  1.00  0.00     0.051 A 
ENDROOT
BRANCH   1  11
HETATM   11  N3  UNL     1      20.466   1.877  52.653  1.00  0.00    -0.187 N 
BRANCH  11  12
HETATM   12  N2  UNL     1      19.478   1.067  52.166  1.00  0.00    -0.211 NA
HETATM   13  H15 UNL     1      18.508   1.367  52.255  1.00  0.00     0.149 HD
BRANCH  12  14
HETATM   14  C8  UNL     1      19.746   0.719  50.794  1.00  0.00     0.132 C 
BRANCH  14  15
HETATM   15  C7  UNL     1      19.082   1.634  49.798  1.00  0.00     0.138 C 
BRANCH  15  16
HETATM   16  N1  UNL     1      20.066   2.255  48.912  1.00  0.00    -0.384 N 
HETATM   17  C2  UNL     1      19.728   3.327  48.050  1.00  0.00    -0.003 C 
HETATM   18  C1  UNL     1      18.735   4.113  48.426  1.00  0.00     0.038 C 
HETATM   19  C3  UNL     1      20.546   3.440  46.814  1.00  0.00     0.056 C 
HETATM   20  C4  UNL     1      21.994   3.355  47.255  1.00  0.00     0.007 C 
HETATM   21  C5  UNL     1      22.207   1.919  47.735  1.00  0.00     0.020 C 
HETATM   22  C6  UNL     1      21.405   1.710  48.975  1.00  0.00     0.122 C 
ENDBRANCH  15  16
ENDBRANCH  14  15
ENDBRANCH  12  14
ENDBRANCH  11  12
BRANCH  11  23
HETATM   23  O1  UNL     1      20.108   3.192  52.708  1.00  0.00    -0.272 OA
HETATM   24  H16 UNL     1      19.843   3.432  51.785  1.00  0.00     0.246 HD
ENDBRANCH  11  23
ENDBRANCH   1  11
BRANCH   8  25
HETATM   25  N6  UNL     1      25.234   3.105  51.881  1.00  0.00    -0.363 N 
HETATM   26  H20 UNL     1      25.245   4.019  52.332  1.00  0.00     0.162 HD
BRANCH  25  27
HETATM   27  C15 UNL     1      25.257   3.093  50.425  1.00  0.00     0.131 A 
HETATM   28  C16 UNL     1      24.335   4.114  49.865  1.00  0.00     0.003 A 
HETATM   29  C17 UNL     1      25.035   5.009  49.148  1.00  0.00     0.017 A 
HETATM   30  C18 UNL     1      26.452   4.627  49.198  1.00  0.00     0.009 A 
HETATM   31 BR1  UNL     1      28.104   5.281  48.504  1.00  0.00    -0.051 Br
HETATM   32  C19 UNL     1      26.577   3.527  49.932  1.00  0.00     0.021 A 
ENDBRANCH  25  27
ENDBRANCH   8  25
TORSDOF 8
ENDMDL
