MODEL 1
REMARK VINA RESULT:      -8.4      0.000      0.000
REMARK  1 active torsions:
REMARK  status: ('A' for Active; 'I' for Inactive)
REMARK    1  A    between atoms: C7_7  and  N1_8 
REMARK       I    between atoms: N1_8  and  C8_9 
REMARK       I    between atoms: C8_9  and  N2_10 
ROOT
HETATM    1  C1  UNL     1      28.103  -1.288  53.080  1.00  0.00     0.017 C 
HETATM    2  C2  UNL     1      27.074  -0.692  53.034  1.00  0.00    -0.082 C 
HETATM    3  C3  UNL     1      25.810   0.067  52.966  1.00  0.00     0.001 C 
HETATM    4  C4  UNL     1      25.368   1.215  52.422  1.00  0.00     0.062 C 
HETATM    5  C5  UNL     1      25.920   2.343  51.588  1.00  0.00    -0.017 C 
HETATM    6  C6  UNL     1      25.176   3.417  51.205  1.00  0.00     0.005 C 
HETATM    7  C7  UNL     1      23.864   4.092  51.241  1.00  0.00     0.073 C 
HETATM    8  C9  UNL     1      23.085   3.103  52.096  1.00  0.00     0.021 C 
HETATM    9  C10 UNL     1      22.752   2.044  51.302  1.00  0.00     0.006 C 
HETATM   10  C11 UNL     1      22.174   0.999  52.084  1.00  0.00     0.113 C 
HETATM   11  N3  UNL     1      21.404   0.326  51.341  1.00  0.00    -0.230 NA
HETATM   12  C12 UNL     1      21.317   0.672  49.929  1.00  0.00     0.229 C 
HETATM   13  N4  UNL     1      22.000   1.600  49.238  1.00  0.00    -0.273 NA
HETATM   14  C13 UNL     1      22.994   2.374  49.885  1.00  0.00     0.148 C 
HETATM   15  C14 UNL     1      22.979   3.856  49.987  1.00  0.00     0.072 C 
HETATM   16  N5  UNL     1      22.318   0.553  53.430  1.00  0.00    -0.268 NA
HETATM   17  C15 UNL     1      23.366  -0.436  53.779  1.00  0.00     0.086 A 
HETATM   18  C16 UNL     1      24.733  -0.695  53.635  1.00  0.00     0.008 C 
HETATM   19  H13 UNL     1      23.052   0.099  52.879  1.00  0.00     0.155 HD
ENDROOT
BRANCH   7  20
HETATM   20  N1  UNL     1      23.790   5.399  51.711  1.00  0.00    -0.327 N 
HETATM   21  C8  UNL     1      24.414   6.441  50.988  1.00  0.00     0.314 C 
HETATM   22  N2  UNL     1      24.330   7.789  51.485  1.00  0.00    -0.352 N 
HETATM   23  O1  UNL     1      25.058   6.284  49.913  1.00  0.00    -0.248 OA
HETATM   24  H6  UNL     1      23.875   8.727  51.377  1.00  0.00     0.160 HD
HETATM   25  H7  UNL     1      24.996   7.908  52.299  1.00  0.00     0.160 HD
HETATM   26  H5  UNL     1      23.281   5.651  52.594  1.00  0.00     0.165 HD
ENDBRANCH   7  20
TORSDOF 1
ENDMDL
MODEL 2
REMARK VINA RESULT:      -8.1      2.021      2.462
REMARK  1 active torsions:
REMARK  status: ('A' for Active; 'I' for Inactive)
REMARK    1  A    between atoms: C7_7  and  N1_8 
REMARK       I    between atoms: N1_8  and  C8_9 
REMARK       I    between atoms: C8_9  and  N2_10 
ROOT
HETATM    1  C1  UNL     1      26.396  -1.360  52.937  1.00  0.00     0.017 C 
HETATM    2  C2  UNL     1      25.348  -0.820  53.101  1.00  0.00    -0.082 C 
HETATM    3  C3  UNL     1      24.056  -0.132  53.287  1.00  0.00     0.001 C 
HETATM    4  C4  UNL     1      23.388   0.896  52.733  1.00  0.00     0.062 C 
HETATM    5  C5  UNL     1      23.595   1.895  51.624  1.00  0.00    -0.017 C 
HETATM    6  C6  UNL     1      22.688   2.864  51.318  1.00  0.00     0.005 C 
HETATM    7  C7  UNL     1      21.385   3.485  51.629  1.00  0.00     0.073 C 
HETATM    8  C9  UNL     1      20.955   2.616  52.802  1.00  0.00     0.021 C 
HETATM    9  C10 UNL     1      20.506   1.431  52.296  1.00  0.00     0.006 C 
HETATM   10  C11 UNL     1      20.253   0.504  53.351  1.00  0.00     0.113 C 
HETATM   11  N3  UNL     1      19.367  -0.310  52.962  1.00  0.00    -0.230 NA
HETATM   12  C12 UNL     1      18.868  -0.199  51.598  1.00  0.00     0.229 C 
HETATM   13  N4  UNL     1      19.255   0.632  50.616  1.00  0.00    -0.273 NA
HETATM   14  C13 UNL     1      20.321   1.538  50.836  1.00  0.00     0.148 C 
HETATM   15  C14 UNL     1      20.212   3.016  50.725  1.00  0.00     0.072 C 
HETATM   16  N5  UNL     1      20.798   0.286  54.650  1.00  0.00    -0.268 NA
HETATM   17  C15 UNL     1      21.980  -0.593  54.824  1.00  0.00     0.086 A 
HETATM   18  C16 UNL     1      23.271  -0.817  54.337  1.00  0.00     0.008 C 
HETATM   19  H13 UNL     1      21.387  -0.222  53.984  1.00  0.00     0.155 HD
ENDROOT
BRANCH   7  20
HETATM   20  N1  UNL     1      21.335   4.847  51.908  1.00  0.00    -0.327 N 
HETATM   21  C8  UNL     1      21.773   5.778  50.939  1.00  0.00     0.314 C 
HETATM   22  N2  UNL     1      21.716   7.183  51.240  1.00  0.00    -0.352 N 
HETATM   23  O1  UNL     1      22.222   5.471  49.800  1.00  0.00    -0.248 OA
HETATM   24  H6  UNL     1      21.206   8.086  51.081  1.00  0.00     0.160 HD
HETATM   25  H7  UNL     1      22.509   7.438  51.894  1.00  0.00     0.160 HD
HETATM   26  H5  UNL     1      20.980   5.220  52.823  1.00  0.00     0.165 HD
ENDBRANCH   7  20
TORSDOF 1
ENDMDL
MODEL 3
REMARK VINA RESULT:      -8.0      2.889      5.341
REMARK  1 active torsions:
REMARK  status: ('A' for Active; 'I' for Inactive)
REMARK    1  A    between atoms: C7_7  and  N1_8 
REMARK       I    between atoms: N1_8  and  C8_9 
REMARK       I    between atoms: C8_9  and  N2_10 
ROOT
HETATM    1  C1  UNL     1      19.011  -0.143  52.078  1.00  0.00     0.017 C 
HETATM    2  C2  UNL     1      19.906   0.630  52.218  1.00  0.00    -0.082 C 
HETATM    3  C3  UNL     1      21.031   1.568  52.395  1.00  0.00     0.001 C 
HETATM    4  C4  UNL     1      22.366   1.502  52.544  1.00  0.00     0.062 C 
HETATM    5  C5  UNL     1      23.433   0.440  52.608  1.00  0.00    -0.017 C 
HETATM    6  C6  UNL     1      24.753   0.721  52.795  1.00  0.00     0.005 C 
HETATM    7  C7  UNL     1      25.781   1.760  53.001  1.00  0.00     0.073 C 
HETATM    8  C9  UNL     1      24.902   3.002  52.997  1.00  0.00     0.021 C 
HETATM    9  C10 UNL     1      24.584   3.279  51.699  1.00  0.00     0.006 C 
HETATM   10  C11 UNL     1      23.617   4.327  51.637  1.00  0.00     0.113 C 
HETATM   11  N3  UNL     1      23.749   4.925  50.531  1.00  0.00    -0.230 NA
HETATM   12  C12 UNL     1      24.732   4.424  49.580  1.00  0.00     0.229 C 
HETATM   13  N4  UNL     1      25.522   3.341  49.665  1.00  0.00    -0.273 NA
HETATM   14  C13 UNL     1      25.427   2.483  50.787  1.00  0.00     0.148 C 
HETATM   15  C14 UNL     1      26.546   2.176  51.715  1.00  0.00     0.072 C 
HETATM   16  N5  UNL     1      22.565   4.776  52.487  1.00  0.00    -0.268 NA
HETATM   17  C15 UNL     1      21.209   4.186  52.369  1.00  0.00     0.086 A 
HETATM   18  C16 UNL     1      20.537   2.961  52.324  1.00  0.00     0.008 C 
HETATM   19  H13 UNL     1      22.184   4.026  51.902  1.00  0.00     0.155 HD
ENDROOT
BRANCH   7  20
HETATM   20  N1  UNL     1      26.610   1.678  54.116  1.00  0.00    -0.327 N 
HETATM   21  C8  UNL     1      27.610   0.681  54.175  1.00  0.00     0.314 C 
HETATM   22  N2  UNL     1      28.460   0.608  55.333  1.00  0.00    -0.352 N 
HETATM   23  O1  UNL     1      27.825  -0.174  53.271  1.00  0.00    -0.248 OA
HETATM   24  H6  UNL     1      29.410   0.811  55.727  1.00  0.00     0.160 HD
HETATM   25  H7  UNL     1      27.927   0.170  56.136  1.00  0.00     0.160 HD
HETATM   26  H5  UNL     1      26.524   2.336  54.929  1.00  0.00     0.165 HD
ENDBRANCH   7  20
TORSDOF 1
ENDMDL
MODEL 4
REMARK VINA RESULT:      -7.9      1.630      2.011
REMARK  1 active torsions:
REMARK  status: ('A' for Active; 'I' for Inactive)
REMARK    1  A    between atoms: C7_7  and  N1_8 
REMARK       I    between atoms: N1_8  and  C8_9 
REMARK       I    between atoms: C8_9  and  N2_10 
ROOT
HETATM    1  C1  UNL     1      26.953  -1.250  52.344  1.00  0.00     0.017 C 
HETATM    2  C2  UNL     1      26.218  -0.319  52.246  1.00  0.00    -0.082 C 
HETATM    3  C3  UNL     1      25.326   0.849  52.111  1.00  0.00     0.001 C 
HETATM    4  C4  UNL     1      25.350   2.056  51.517  1.00  0.00     0.062 C 
HETATM    5  C5  UNL     1      26.296   2.865  50.668  1.00  0.00    -0.017 C 
HETATM    6  C6  UNL     1      26.010   4.121  50.226  1.00  0.00     0.005 C 
HETATM    7  C7  UNL     1      25.040   5.234  50.198  1.00  0.00     0.073 C 
HETATM    8  C9  UNL     1      23.934   4.637  51.057  1.00  0.00     0.021 C 
HETATM    9  C10 UNL     1      23.248   3.744  50.286  1.00  0.00     0.006 C 
HETATM   10  C11 UNL     1      22.310   3.019  51.080  1.00  0.00     0.113 C 
HETATM   11  N3  UNL     1      21.360   2.647  50.333  1.00  0.00    -0.230 NA
HETATM   12  C12 UNL     1      21.435   2.942  48.909  1.00  0.00     0.229 C 
HETATM   13  N4  UNL     1      22.426   3.523  48.212  1.00  0.00    -0.273 NA
HETATM   14  C13 UNL     1      23.623   3.902  48.867  1.00  0.00     0.148 C 
HETATM   15  C14 UNL     1      24.155   5.288  48.922  1.00  0.00     0.072 C 
HETATM   16  N5  UNL     1      22.252   2.607  52.443  1.00  0.00    -0.268 NA
HETATM   17  C15 UNL     1      22.854   1.317  52.858  1.00  0.00     0.086 A 
HETATM   18  C16 UNL     1      24.031   0.567  52.768  1.00  0.00     0.008 C 
HETATM   19  H13 UNL     1      22.777   1.893  51.931  1.00  0.00     0.155 HD
ENDROOT
BRANCH   7  20
HETATM   20  N1  UNL     1      25.445   6.494  50.624  1.00  0.00    -0.327 N 
HETATM   21  C8  UNL     1      26.375   7.229  49.854  1.00  0.00     0.314 C 
HETATM   22  N2  UNL     1      26.786   8.532  50.306  1.00  0.00    -0.352 N 
HETATM   23  O1  UNL     1      26.890   6.827  48.773  1.00  0.00    -0.248 OA
HETATM   24  H6  UNL     1      26.688   9.568  50.175  1.00  0.00     0.160 HD
HETATM   25  H7  UNL     1      27.475   8.429  51.103  1.00  0.00     0.160 HD
HETATM   26  H5  UNL     1      25.084   6.932  51.508  1.00  0.00     0.165 HD
ENDBRANCH   7  20
TORSDOF 1
ENDMDL
MODEL 5
REMARK VINA RESULT:      -7.4      2.704      5.478
REMARK  1 active torsions:
REMARK  status: ('A' for Active; 'I' for Inactive)
REMARK    1  A    between atoms: C7_7  and  N1_8 
REMARK       I    between atoms: N1_8  and  C8_9 
REMARK       I    between atoms: C8_9  and  N2_10 
ROOT
HETATM    1  C1  UNL     1      23.215   7.399  50.833  1.00  0.00     0.017 C 
HETATM    2  C2  UNL     1      23.198   6.210  50.761  1.00  0.00    -0.082 C 
HETATM    3  C3  UNL     1      23.191   4.736  50.693  1.00  0.00     0.001 C 
HETATM    4  C4  UNL     1      23.618   3.705  51.444  1.00  0.00     0.062 C 
HETATM    5  C5  UNL     1      24.327   3.495  52.757  1.00  0.00    -0.017 C 
HETATM    6  C6  UNL     1      24.641   2.263  53.245  1.00  0.00     0.005 C 
HETATM    7  C7  UNL     1      24.599   0.801  53.039  1.00  0.00     0.073 C 
HETATM    8  C9  UNL     1      23.906   0.748  51.685  1.00  0.00     0.021 C 
HETATM    9  C10 UNL     1      22.575   0.967  51.894  1.00  0.00     0.006 C 
HETATM   10  C11 UNL     1      21.893   1.106  50.648  1.00  0.00     0.113 C 
HETATM   11  N3  UNL     1      20.689   0.755  50.811  1.00  0.00    -0.230 NA
HETATM   12  C12 UNL     1      20.248   0.378  52.148  1.00  0.00     0.229 C 
HETATM   13  N4  UNL     1      20.929   0.397  53.305  1.00  0.00    -0.273 NA
HETATM   14  C13 UNL     1      22.263   0.874  53.333  1.00  0.00     0.148 C 
HETATM   15  C14 UNL     1      23.437   0.078  53.773  1.00  0.00     0.072 C 
HETATM   16  N5  UNL     1      22.252   1.579  49.352  1.00  0.00    -0.268 NA
HETATM   17  C15 UNL     1      22.120   3.019  49.023  1.00  0.00     0.086 A 
HETATM   18  C16 UNL     1      22.454   4.294  49.489  1.00  0.00     0.008 C 
HETATM   19  H13 UNL     1      21.966   2.393  49.905  1.00  0.00     0.155 HD
ENDROOT
BRANCH   7  20
HETATM   20  N1  UNL     1      25.788   0.080  53.075  1.00  0.00    -0.327 N 
HETATM   21  C8  UNL     1      26.636   0.181  54.202  1.00  0.00     0.314 C 
HETATM   22  N2  UNL     1      27.862  -0.570  54.226  1.00  0.00    -0.352 N 
HETATM   23  O1  UNL     1      26.400   0.895  55.216  1.00  0.00    -0.248 OA
HETATM   24  H6  UNL     1      28.359  -1.409  54.612  1.00  0.00     0.160 HD
HETATM   25  H7  UNL     1      28.578  -0.101  53.602  1.00  0.00     0.160 HD
HETATM   26  H5  UNL     1      26.088  -0.547  52.289  1.00  0.00     0.165 HD
ENDBRANCH   7  20
TORSDOF 1
ENDMDL
MODEL 6
REMARK VINA RESULT:      -7.4      7.147     10.100
REMARK  1 active torsions:
REMARK  status: ('A' for Active; 'I' for Inactive)
REMARK    1  A    between atoms: C7_7  and  N1_8 
REMARK       I    between atoms: N1_8  and  C8_9 
REMARK       I    between atoms: C8_9  and  N2_10 
ROOT
HETATM    1  C1  UNL     1      24.507   5.793  48.510  1.00  0.00     0.017 C 
HETATM    2  C2  UNL     1      25.537   6.345  48.737  1.00  0.00    -0.082 C 
HETATM    3  C3  UNL     1      26.826   7.011  49.007  1.00  0.00     0.001 C 
HETATM    4  C4  UNL     1      28.123   6.827  48.700  1.00  0.00     0.062 C 
HETATM    5  C5  UNL     1      28.959   5.848  47.916  1.00  0.00    -0.017 C 
HETATM    6  C6  UNL     1      30.314   5.941  47.816  1.00  0.00     0.005 C 
HETATM    7  C7  UNL     1      31.536   6.681  48.187  1.00  0.00     0.073 C 
HETATM    8  C9  UNL     1      30.927   7.774  49.052  1.00  0.00     0.021 C 
HETATM    9  C10 UNL     1      30.370   8.699  48.217  1.00  0.00     0.006 C 
HETATM   10  C11 UNL     1      29.627   9.661  48.966  1.00  0.00     0.113 C 
HETATM   11  N3  UNL     1      29.604  10.743  48.311  1.00  0.00    -0.230 NA
HETATM   12  C12 UNL     1      30.226  10.775  46.995  1.00  0.00     0.229 C 
HETATM   13  N4  UNL     1      30.799   9.778  46.300  1.00  0.00    -0.273 NA
HETATM   14  C13 UNL     1      30.813   8.465  46.829  1.00  0.00     0.148 C 
HETATM   15  C14 UNL     1      32.042   7.678  47.109  1.00  0.00     0.072 C 
HETATM   16  N5  UNL     1      28.906   9.640  50.195  1.00  0.00    -0.268 NA
HETATM   17  C15 UNL     1      27.475   9.249  50.213  1.00  0.00     0.086 A 
HETATM   18  C16 UNL     1      26.596   8.253  49.777  1.00  0.00     0.008 C 
HETATM   19  H13 UNL     1      28.267   9.320  49.461  1.00  0.00     0.155 HD
ENDROOT
BRANCH   7  20
HETATM   20  N1  UNL     1      32.574   5.999  48.815  1.00  0.00    -0.327 N 
HETATM   21  C8  UNL     1      33.352   5.076  48.081  1.00  0.00     0.314 C 
HETATM   22  N2  UNL     1      34.422   4.377  48.742  1.00  0.00    -0.352 N 
HETATM   23  O1  UNL     1      33.183   4.805  46.859  1.00  0.00    -0.248 OA
HETATM   24  H6  UNL     1      35.459   4.308  48.880  1.00  0.00     0.160 HD
HETATM   25  H7  UNL     1      34.021   3.609  49.350  1.00  0.00     0.160 HD
HETATM   26  H5  UNL     1      32.808   6.143  49.828  1.00  0.00     0.165 HD
ENDBRANCH   7  20
TORSDOF 1
ENDMDL
MODEL 7
REMARK VINA RESULT:      -7.3      2.407      4.810
REMARK  1 active torsions:
REMARK  status: ('A' for Active; 'I' for Inactive)
REMARK    1  A    between atoms: C7_7  and  N1_8 
REMARK       I    between atoms: N1_8  and  C8_9 
REMARK       I    between atoms: C8_9  and  N2_10 
ROOT
HETATM    1  C1  UNL     1      27.406  -0.138  53.922  1.00  0.00     0.017 C 
HETATM    2  C2  UNL     1      26.739   0.455  53.134  1.00  0.00    -0.082 C 
HETATM    3  C3  UNL     1      25.891   1.179  52.167  1.00  0.00     0.001 C 
HETATM    4  C4  UNL     1      24.578   1.358  51.936  1.00  0.00     0.062 C 
HETATM    5  C5  UNL     1      23.267   0.922  52.537  1.00  0.00    -0.017 C 
HETATM    6  C6  UNL     1      22.057   1.282  52.024  1.00  0.00     0.005 C 
HETATM    7  C7  UNL     1      21.326   2.023  50.977  1.00  0.00     0.073 C 
HETATM    8  C9  UNL     1      22.499   2.571  50.178  1.00  0.00     0.021 C 
HETATM    9  C10 UNL     1      23.007   3.634  50.867  1.00  0.00     0.006 C 
HETATM   10  C11 UNL     1      24.219   4.085  50.262  1.00  0.00     0.113 C 
HETATM   11  N3  UNL     1      24.362   5.313  50.526  1.00  0.00    -0.230 NA
HETATM   12  C12 UNL     1      23.381   5.961  51.386  1.00  0.00     0.229 C 
HETATM   13  N4  UNL     1      22.328   5.428  52.026  1.00  0.00    -0.273 NA
HETATM   14  C13 UNL     1      22.079   4.036  51.941  1.00  0.00     0.148 C 
HETATM   15  C14 UNL     1      20.831   3.431  51.406  1.00  0.00     0.072 C 
HETATM   16  N5  UNL     1      25.262   3.464  49.516  1.00  0.00    -0.268 NA
HETATM   17  C15 UNL     1      26.417   2.853  50.216  1.00  0.00     0.086 A 
HETATM   18  C16 UNL     1      26.741   1.965  51.247  1.00  0.00     0.008 C 
HETATM   19  H13 UNL     1      25.486   3.346  50.508  1.00  0.00     0.155 HD
ENDROOT
BRANCH   7  20
HETATM   20  N1  UNL     1      20.398   1.344  50.193  1.00  0.00    -0.327 N 
HETATM   21  C8  UNL     1      19.169   0.933  50.759  1.00  0.00     0.314 C 
HETATM   22  N2  UNL     1      18.219   0.232  49.938  1.00  0.00    -0.352 N 
HETATM   23  O1  UNL     1      18.827   1.134  51.958  1.00  0.00    -0.248 OA
HETATM   24  H6  UNL     1      17.321   0.298  49.399  1.00  0.00     0.160 HD
HETATM   25  H7  UNL     1      18.534  -0.770  49.807  1.00  0.00     0.160 HD
HETATM   26  H5  UNL     1      20.573   1.121  49.183  1.00  0.00     0.165 HD
ENDBRANCH   7  20
TORSDOF 1
ENDMDL
MODEL 8
REMARK VINA RESULT:      -7.3      6.276     10.852
REMARK  1 active torsions:
REMARK  status: ('A' for Active; 'I' for Inactive)
REMARK    1  A    between atoms: C7_7  and  N1_8 
REMARK       I    between atoms: N1_8  and  C8_9 
REMARK       I    between atoms: C8_9  and  N2_10 
ROOT
HETATM    1  C1  UNL     1      26.714  15.170  47.108  1.00  0.00     0.017 C 
HETATM    2  C2  UNL     1      27.219  14.215  47.607  1.00  0.00    -0.082 C 
HETATM    3  C3  UNL     1      27.822  13.018  48.226  1.00  0.00     0.001 C 
HETATM    4  C4  UNL     1      27.444  11.767  48.545  1.00  0.00     0.062 C 
HETATM    5  C5  UNL     1      26.208  10.911  48.442  1.00  0.00    -0.017 C 
HETATM    6  C6  UNL     1      26.151   9.630  48.900  1.00  0.00     0.005 C 
HETATM    7  C7  UNL     1      26.860   8.517  49.562  1.00  0.00     0.073 C 
HETATM    8  C9  UNL     1      28.211   9.177  49.804  1.00  0.00     0.021 C 
HETATM    9  C10 UNL     1      28.887   9.179  48.619  1.00  0.00     0.006 C 
HETATM   10  C11 UNL     1      30.089   9.941  48.734  1.00  0.00     0.113 C 
HETATM   11  N3  UNL     1      30.923   9.498  47.894  1.00  0.00    -0.230 NA
HETATM   12  C12 UNL     1      30.507   8.431  46.993  1.00  0.00     0.229 C 
HETATM   13  N4  UNL     1      29.303   7.850  46.863  1.00  0.00    -0.273 NA
HETATM   14  C13 UNL     1      28.212   8.301  47.645  1.00  0.00     0.148 C 
HETATM   15  C14 UNL     1      27.443   7.453  48.592  1.00  0.00     0.072 C 
HETATM   16  N5  UNL     1      30.498  11.062  49.513  1.00  0.00    -0.268 NA
HETATM   17  C15 UNL     1      30.254  12.440  49.022  1.00  0.00     0.086 A 
HETATM   18  C16 UNL     1      29.252  13.268  48.509  1.00  0.00     0.008 C 
HETATM   19  H13 UNL     1      30.030  11.426  48.679  1.00  0.00     0.155 HD
ENDROOT
BRANCH   7  20
HETATM   20  N1  UNL     1      26.312   7.954  50.710  1.00  0.00    -0.327 N 
HETATM   21  C8  UNL     1      25.038   7.344  50.651  1.00  0.00     0.314 C 
HETATM   22  N2  UNL     1      24.482   6.765  51.846  1.00  0.00    -0.352 N 
HETATM   23  O1  UNL     1      24.328   7.262  49.611  1.00  0.00    -0.248 OA
HETATM   24  H6  UNL     1      24.278   5.878  52.367  1.00  0.00     0.160 HD
HETATM   25  H7  UNL     1      24.123   7.534  52.478  1.00  0.00     0.160 HD
HETATM   26  H5  UNL     1      26.811   7.962  51.633  1.00  0.00     0.165 HD
ENDBRANCH   7  20
TORSDOF 1
ENDMDL
MODEL 9
REMARK VINA RESULT:      -6.9      3.031      6.311
REMARK  1 active torsions:
REMARK  status: ('A' for Active; 'I' for Inactive)
REMARK    1  A    between atoms: C7_7  and  N1_8 
REMARK       I    between atoms: N1_8  and  C8_9 
REMARK       I    between atoms: C8_9  and  N2_10 
ROOT
HETATM    1  C1  UNL     1      21.783   3.266  46.572  1.00  0.00     0.017 C 
HETATM    2  C2  UNL     1      21.819   3.194  47.760  1.00  0.00    -0.082 C 
HETATM    3  C3  UNL     1      21.858   3.078  49.230  1.00  0.00     0.001 C 
HETATM    4  C4  UNL     1      21.766   2.105  50.154  1.00  0.00     0.062 C 
HETATM    5  C5  UNL     1      21.578   0.610  50.188  1.00  0.00    -0.017 C 
HETATM    6  C6  UNL     1      21.505  -0.104  51.345  1.00  0.00     0.005 C 
HETATM    7  C7  UNL     1      21.528  -0.078  52.821  1.00  0.00     0.073 C 
HETATM    8  C9  UNL     1      21.697   1.417  53.053  1.00  0.00     0.021 C 
HETATM    9  C10 UNL     1      23.005   1.725  52.820  1.00  0.00     0.006 C 
HETATM   10  C11 UNL     1      23.194   3.140  52.847  1.00  0.00     0.113 C 
HETATM   11  N3  UNL     1      24.391   3.375  53.183  1.00  0.00    -0.230 NA
HETATM   12  C12 UNL     1      25.292   2.249  53.389  1.00  0.00     0.229 C 
HETATM   13  N4  UNL     1      25.065   0.937  53.216  1.00  0.00    -0.273 NA
HETATM   14  C13 UNL     1      23.811   0.493  52.730  1.00  0.00     0.148 C 
HETATM   15  C14 UNL     1      22.902  -0.431  53.454  1.00  0.00     0.072 C 
HETATM   16  N5  UNL     1      22.381   4.269  52.540  1.00  0.00    -0.268 NA
HETATM   17  C15 UNL     1      22.331   4.798  51.155  1.00  0.00     0.086 A 
HETATM   18  C16 UNL     1      22.136   4.402  49.828  1.00  0.00     0.008 C 
HETATM   19  H13 UNL     1      22.813   3.959  51.665  1.00  0.00     0.155 HD
ENDROOT
BRANCH   7  20
HETATM   20  N1  UNL     1      20.458  -0.624  53.523  1.00  0.00    -0.327 N 
HETATM   21  C8  UNL     1      19.160  -0.585  52.964  1.00  0.00     0.314 C 
HETATM   22  N2  UNL     1      18.062  -1.153  53.699  1.00  0.00    -0.352 N 
HETATM   23  O1  UNL     1      18.876  -0.080  51.842  1.00  0.00    -0.248 OA
HETATM   24  H6  UNL     1      17.405  -1.966  53.790  1.00  0.00     0.160 HD
HETATM   25  H7  UNL     1      17.782  -0.497  54.482  1.00  0.00     0.160 HD
HETATM   26  H5  UNL     1      20.573  -1.071  54.465  1.00  0.00     0.165 HD
ENDBRANCH   7  20
TORSDOF 1
ENDMDL
