MODEL 1
REMARK VINA RESULT:      -8.1      0.000      0.000
REMARK  4 active torsions:
REMARK  status: ('A' for Active; 'I' for Inactive)
REMARK    1  A    between atoms: C2_4  and  C3_5 
REMARK    2  A    between atoms: C3_5  and  N2_6 
REMARK    3  A    between atoms: N2_6  and  C4_7 
REMARK    4  A    between atoms: C7_10  and  N3_11 
ROOT
HETATM    1  C4  UNL     1      23.783   3.856  51.474  1.00  0.00     0.094 A 
HETATM    2  C5  UNL     1      23.425   4.766  52.442  1.00  0.00     0.047 A 
HETATM    3  C6  UNL     1      22.347   3.805  52.076  1.00  0.00     0.042 A 
HETATM    4  C7  UNL     1      21.939   2.555  52.232  1.00  0.00     0.032 C 
HETATM    5  C13 UNL     1      20.812   2.153  51.363  1.00  0.00     0.307 C 
HETATM    6  N4  UNL     1      21.307   1.185  50.341  1.00  0.00     0.054 NA
HETATM    7  C14 UNL     1      22.188   1.642  49.432  1.00  0.00     0.829 C 
HETATM    8  O2  UNL     1      22.890   2.891  49.079  1.00  0.00    -0.313 OA
HETATM    9  C15 UNL     1      22.932   3.699  50.239  1.00  0.00     0.075 C 
HETATM   10  C16 UNL     1      21.803   4.301  49.792  1.00  0.00     0.009 C 
HETATM   11  C17 UNL     1      21.462   4.702  51.212  1.00  0.00     0.049 C 
ENDROOT
BRANCH   1  12
HETATM   12  N2  UNL     1      24.804   2.911  51.169  1.00  0.00    -0.404 N 
HETATM   13  H5  UNL     1      24.435   2.189  50.534  1.00  0.00     0.154 HD
BRANCH  12  14
HETATM   14  C3  UNL     1      26.143   2.880  51.635  1.00  0.00     0.142 C 
BRANCH  14  15
HETATM   15  C2  UNL     1      26.468   1.924  52.727  1.00  0.00     0.128 C 
HETATM   16  N1  UNL     1      27.208   2.540  53.813  1.00  0.00    -0.329 N 
HETATM   17  C1  UNL     1      28.503   1.965  53.872  1.00  0.00     0.361 C 
HETATM   18  H1  UNL     1      26.785   3.288  54.415  1.00  0.00     0.165 HD
HETATM   19  O1  UNL     1      29.417   2.522  54.552  1.00  0.00    -0.239 OA
HETATM   20  O3  UNL     1      28.498   0.817  53.110  1.00  0.00    -0.302 OA
HETATM   21  C18 UNL     1      27.310   0.760  52.347  1.00  0.00     0.207 C 
ENDBRANCH  14  15
ENDBRANCH  12  14
ENDBRANCH   1  12
BRANCH   4  22
HETATM   22  N3  UNL     1      22.339   1.389  52.894  1.00  0.00    -0.336 N 
HETATM   23  C8  UNL     1      21.144   0.894  53.527  1.00  0.00     0.095 A 
HETATM   24  C9  UNL     1      21.144  -0.233  54.255  1.00  0.00     0.033 A 
HETATM   25  C10 UNL     1      22.368  -1.025  54.446  1.00  0.00     0.240 A 
HETATM   26  F1  UNL     1      22.643  -1.223  55.806  1.00  0.00    -0.239 F 
HETATM   27  C11 UNL     1      23.549  -0.478  53.786  1.00  0.00     0.065 A 
HETATM   28 CL1  UNL     1      25.105  -1.258  53.879  1.00  0.00    -0.084 Cl
HETATM   29  C12 UNL     1      23.495   0.628  53.085  1.00  0.00     0.118 A 
ENDBRANCH   4  22
TORSDOF 4
ENDMDL
MODEL 2
REMARK VINA RESULT:      -8.0      2.923      5.225
REMARK  4 active torsions:
REMARK  status: ('A' for Active; 'I' for Inactive)
REMARK    1  A    between atoms: C2_4  and  C3_5 
REMARK    2  A    between atoms: C3_5  and  N2_6 
REMARK    3  A    between atoms: N2_6  and  C4_7 
REMARK    4  A    between atoms: C7_10  and  N3_11 
ROOT
HETATM    1  C4  UNL     1      21.972   2.478  49.363  1.00  0.00     0.094 A 
HETATM    2  C5  UNL     1      22.647   2.455  48.164  1.00  0.00     0.047 A 
HETATM    3  C6  UNL     1      23.282   3.308  49.208  1.00  0.00     0.042 A 
HETATM    4  C7  UNL     1      24.005   3.271  50.316  1.00  0.00     0.032 C 
HETATM    5  C13 UNL     1      24.123   4.562  51.029  1.00  0.00     0.307 C 
HETATM    6  N4  UNL     1      23.345   4.489  52.299  1.00  0.00     0.054 NA
HETATM    7  C14 UNL     1      22.008   4.367  52.200  1.00  0.00     0.829 C 
HETATM    8  O2  UNL     1      20.964   4.270  51.162  1.00  0.00    -0.313 OA
HETATM    9  C15 UNL     1      21.581   3.797  49.979  1.00  0.00     0.075 C 
HETATM   10  C16 UNL     1      21.724   5.091  49.603  1.00  0.00     0.009 C 
HETATM   11  C17 UNL     1      22.881   4.696  48.709  1.00  0.00     0.049 C 
ENDROOT
BRANCH   1  12
HETATM   12  N2  UNL     1      21.423   1.598  50.339  1.00  0.00    -0.404 N 
HETATM   13  H5  UNL     1      22.121   1.407  51.071  1.00  0.00     0.154 HD
BRANCH  12  14
HETATM   14  C3  UNL     1      20.131   1.014  50.370  1.00  0.00     0.142 C 
BRANCH  14  15
HETATM   15  C2  UNL     1      19.387   1.062  51.657  1.00  0.00     0.128 C 
HETATM   16  N1  UNL     1      20.232   1.416  52.783  1.00  0.00    -0.329 N 
HETATM   17  C1  UNL     1      20.302   0.313  53.670  1.00  0.00     0.361 C 
HETATM   18  H1  UNL     1      20.685   2.359  52.857  1.00  0.00     0.165 HD
HETATM   19  O1  UNL     1      21.188   0.281  54.577  1.00  0.00    -0.239 OA
HETATM   20  O3  UNL     1      19.304  -0.575  53.332  1.00  0.00    -0.302 OA
HETATM   21  C18 UNL     1      18.743  -0.206  52.089  1.00  0.00     0.207 C 
ENDBRANCH  14  15
ENDBRANCH  12  14
ENDBRANCH   1  12
BRANCH   4  22
HETATM   22  N3  UNL     1      24.615   2.324  51.146  1.00  0.00    -0.336 N 
HETATM   23  C8  UNL     1      26.028   2.563  51.004  1.00  0.00     0.095 A 
HETATM   24  C9  UNL     1      26.939   1.839  51.672  1.00  0.00     0.033 A 
HETATM   25  C10 UNL     1      26.542   0.759  52.588  1.00  0.00     0.240 A 
HETATM   26  F1  UNL     1      27.158  -0.453  52.248  1.00  0.00    -0.239 F 
HETATM   27  C11 UNL     1      25.100   0.559  52.693  1.00  0.00     0.065 A 
HETATM   28 CL1  UNL     1      24.410  -0.666  53.723  1.00  0.00    -0.084 Cl
HETATM   29  C12 UNL     1      24.251   1.295  52.018  1.00  0.00     0.118 A 
ENDBRANCH   4  22
TORSDOF 4
ENDMDL
MODEL 3
REMARK VINA RESULT:      -7.9      2.501      3.219
REMARK  4 active torsions:
REMARK  status: ('A' for Active; 'I' for Inactive)
REMARK    1  A    between atoms: C2_4  and  C3_5 
REMARK    2  A    between atoms: C3_5  and  N2_6 
REMARK    3  A    between atoms: N2_6  and  C4_7 
REMARK    4  A    between atoms: C7_10  and  N3_11 
ROOT
HETATM    1  C4  UNL     1      22.200   4.107  51.002  1.00  0.00     0.094 A 
HETATM    2  C5  UNL     1      21.868   4.757  52.168  1.00  0.00     0.047 A 
HETATM    3  C6  UNL     1      21.401   3.343  52.101  1.00  0.00     0.042 A 
HETATM    4  C7  UNL     1      21.804   2.085  52.197  1.00  0.00     0.032 C 
HETATM    5  C13 UNL     1      20.804   1.076  51.783  1.00  0.00     0.307 C 
HETATM    6  N4  UNL     1      21.247   0.447  50.506  1.00  0.00     0.054 NA
HETATM    7  C14 UNL     1      21.293   1.231  49.413  1.00  0.00     0.829 C 
HETATM    8  O2  UNL     1      21.030   2.629  49.024  1.00  0.00    -0.313 OA
HETATM    9  C15 UNL     1      21.129   3.423  50.191  1.00  0.00     0.075 C 
HETATM   10  C16 UNL     1      19.787   3.292  50.325  1.00  0.00     0.009 C 
HETATM   11  C17 UNL     1      19.916   3.557  51.810  1.00  0.00     0.049 C 
ENDROOT
BRANCH   1  12
HETATM   12  N2  UNL     1      23.325   3.832  50.171  1.00  0.00    -0.404 N 
HETATM   13  H5  UNL     1      23.437   2.816  50.058  1.00  0.00     0.154 HD
BRANCH  12  14
HETATM   14  C3  UNL     1      24.217   4.754  49.566  1.00  0.00     0.142 C 
BRANCH  14  15
HETATM   15  C2  UNL     1      25.626   4.758  50.041  1.00  0.00     0.128 C 
HETATM   16  N1  UNL     1      26.382   5.897  49.551  1.00  0.00    -0.329 N 
HETATM   17  C1  UNL     1      27.409   5.433  48.691  1.00  0.00     0.361 C 
HETATM   18  H1  UNL     1      26.144   6.879  49.833  1.00  0.00     0.165 HD
HETATM   19  O1  UNL     1      28.021   6.245  47.934  1.00  0.00    -0.239 OA
HETATM   20  O3  UNL     1      27.539   4.073  48.874  1.00  0.00    -0.302 OA
HETATM   21  C18 UNL     1      26.455   3.592  49.642  1.00  0.00     0.207 C 
ENDBRANCH  14  15
ENDBRANCH  12  14
ENDBRANCH   1  12
BRANCH   4  22
HETATM   22  N3  UNL     1      22.979   1.370  52.449  1.00  0.00    -0.336 N 
HETATM   23  C8  UNL     1      22.602   0.365  53.409  1.00  0.00     0.095 A 
HETATM   24  C9  UNL     1      23.485  -0.526  53.885  1.00  0.00     0.033 A 
HETATM   25  C10 UNL     1      24.890  -0.525  53.448  1.00  0.00     0.240 A 
HETATM   26  F1  UNL     1      25.764  -0.436  54.539  1.00  0.00    -0.239 F 
HETATM   27  C11 UNL     1      25.218   0.514  52.477  1.00  0.00     0.065 A 
HETATM   28 CL1  UNL     1      26.824   0.695  51.825  1.00  0.00    -0.084 Cl
HETATM   29  C12 UNL     1      24.316   1.361  52.044  1.00  0.00     0.118 A 
ENDBRANCH   4  22
TORSDOF 4
ENDMDL
MODEL 4
REMARK VINA RESULT:      -7.8      2.911      3.308
REMARK  4 active torsions:
REMARK  status: ('A' for Active; 'I' for Inactive)
REMARK    1  A    between atoms: C2_4  and  C3_5 
REMARK    2  A    between atoms: C3_5  and  N2_6 
REMARK    3  A    between atoms: N2_6  and  C4_7 
REMARK    4  A    between atoms: C7_10  and  N3_11 
ROOT
HETATM    1  C4  UNL     1      22.400   3.723  51.379  1.00  0.00     0.094 A 
HETATM    2  C5  UNL     1      21.985   4.565  52.385  1.00  0.00     0.047 A 
HETATM    3  C6  UNL     1      21.154   3.337  52.232  1.00  0.00     0.042 A 
HETATM    4  C7  UNL     1      21.126   2.036  52.474  1.00  0.00     0.032 C 
HETATM    5  C13 UNL     1      20.014   1.304  51.828  1.00  0.00     0.307 C 
HETATM    6  N4  UNL     1      20.566   0.439  50.744  1.00  0.00     0.054 NA
HETATM    7  C14 UNL     1      21.124   1.054  49.686  1.00  0.00     0.829 C 
HETATM    8  O2  UNL     1      21.399   2.419  49.197  1.00  0.00    -0.313 OA
HETATM    9  C15 UNL     1      21.423   3.278  50.321  1.00  0.00     0.075 C 
HETATM   10  C16 UNL     1      20.115   3.540  50.078  1.00  0.00     0.009 C 
HETATM   11  C17 UNL     1      19.928   3.921  51.532  1.00  0.00     0.049 C 
ENDROOT
BRANCH   1  12
HETATM   12  N2  UNL     1      23.567   3.058  50.905  1.00  0.00    -0.404 N 
HETATM   13  H5  UNL     1      23.309   2.155  50.484  1.00  0.00     0.154 HD
BRANCH  12  14
HETATM   14  C3  UNL     1      24.916   3.491  50.976  1.00  0.00     0.142 C 
BRANCH  14  15
HETATM   15  C2  UNL     1      25.306   4.660  50.144  1.00  0.00     0.128 C 
HETATM   16  N1  UNL     1      25.300   5.907  50.888  1.00  0.00    -0.329 N 
HETATM   17  C1  UNL     1      24.292   6.753  50.360  1.00  0.00     0.361 C 
HETATM   18  H1  UNL     1      25.966   6.080  51.680  1.00  0.00     0.165 HD
HETATM   19  O1  UNL     1      23.913   7.774  51.010  1.00  0.00    -0.239 OA
HETATM   20  O3  UNL     1      23.899   6.243  49.142  1.00  0.00    -0.302 OA
HETATM   21  C18 UNL     1      24.438   4.948  48.973  1.00  0.00     0.207 C 
ENDBRANCH  14  15
ENDBRANCH  12  14
ENDBRANCH   1  12
BRANCH   4  22
HETATM   22  N3  UNL     1      21.929   1.055  53.066  1.00  0.00    -0.336 N 
HETATM   23  C8  UNL     1      21.062   0.379  53.997  1.00  0.00     0.095 A 
HETATM   24  C9  UNL     1      21.493  -0.643  54.751  1.00  0.00     0.033 A 
HETATM   25  C10 UNL     1      22.878  -1.131  54.667  1.00  0.00     0.240 A 
HETATM   26  F1  UNL     1      23.499  -1.129  55.923  1.00  0.00    -0.239 F 
HETATM   27  C11 UNL     1      23.712  -0.411  53.710  1.00  0.00     0.065 A 
HETATM   28 CL1  UNL     1      25.385  -0.825  53.448  1.00  0.00    -0.084 Cl
HETATM   29  C12 UNL     1      23.242   0.583  52.997  1.00  0.00     0.118 A 
ENDBRANCH   4  22
TORSDOF 4
ENDMDL
MODEL 5
REMARK VINA RESULT:      -7.8      9.818     11.875
REMARK  4 active torsions:
REMARK  status: ('A' for Active; 'I' for Inactive)
REMARK    1  A    between atoms: C2_4  and  C3_5 
REMARK    2  A    between atoms: C3_5  and  N2_6 
REMARK    3  A    between atoms: N2_6  and  C4_7 
REMARK    4  A    between atoms: C7_10  and  N3_11 
ROOT
HETATM    1  C4  UNL     1      31.822   8.087  46.809  1.00  0.00     0.094 A 
HETATM    2  C5  UNL     1      32.837   8.856  47.329  1.00  0.00     0.047 A 
HETATM    3  C6  UNL     1      32.270   7.864  48.285  1.00  0.00     0.042 A 
HETATM    4  C7  UNL     1      32.257   6.578  48.599  1.00  0.00     0.032 C 
HETATM    5  C13 UNL     1      31.242   6.191  49.604  1.00  0.00     0.307 C 
HETATM    6  N4  UNL     1      30.182   5.380  48.938  1.00  0.00     0.054 NA
HETATM    7  C14 UNL     1      29.417   5.996  48.018  1.00  0.00     0.829 C 
HETATM    8  O2  UNL     1      29.265   7.324  47.393  1.00  0.00    -0.313 OA
HETATM    9  C15 UNL     1      30.499   8.002  47.526  1.00  0.00     0.075 C 
HETATM   10  C16 UNL     1      30.004   8.565  48.656  1.00  0.00     0.009 C 
HETATM   11  C17 UNL     1      31.416   8.782  49.159  1.00  0.00     0.049 C 
ENDROOT
BRANCH   1  12
HETATM   12  N2  UNL     1      31.527   7.257  45.688  1.00  0.00    -0.404 N 
HETATM   13  H5  UNL     1      30.611   6.806  45.818  1.00  0.00     0.154 HD
BRANCH  12  14
HETATM   14  C3  UNL     1      32.321   7.018  44.537  1.00  0.00     0.142 C 
BRANCH  14  15
HETATM   15  C2  UNL     1      33.447   6.056  44.668  1.00  0.00     0.128 C 
HETATM   16  N1  UNL     1      34.683   6.555  44.095  1.00  0.00    -0.329 N 
HETATM   17  C1  UNL     1      35.039   5.745  42.987  1.00  0.00     0.361 C 
HETATM   18  H1  UNL     1      35.178   7.391  44.493  1.00  0.00     0.165 HD
HETATM   19  O1  UNL     1      35.921   6.139  42.166  1.00  0.00    -0.239 OA
HETATM   20  O3  UNL     1      34.283   4.594  43.038  1.00  0.00    -0.302 OA
HETATM   21  C18 UNL     1      33.262   4.739  44.004  1.00  0.00     0.207 C 
ENDBRANCH  14  15
ENDBRANCH  12  14
ENDBRANCH   1  12
BRANCH   4  22
HETATM   22  N3  UNL     1      32.834   5.380  48.165  1.00  0.00    -0.336 N 
HETATM   23  C8  UNL     1      34.254   5.588  48.289  1.00  0.00     0.095 A 
HETATM   24  C9  UNL     1      35.140   4.633  47.967  1.00  0.00     0.033 A 
HETATM   25  C10 UNL     1      34.706   3.318  47.469  1.00  0.00     0.240 A 
HETATM   26  F1  UNL     1      35.301   3.016  46.237  1.00  0.00    -0.239 F 
HETATM   27  C11 UNL     1      33.259   3.162  47.362  1.00  0.00     0.065 A 
HETATM   28 CL1  UNL     1      32.528   1.684  46.796  1.00  0.00    -0.084 Cl
HETATM   29  C12 UNL     1      32.436   4.128  47.690  1.00  0.00     0.118 A 
ENDBRANCH   4  22
TORSDOF 4
ENDMDL
MODEL 6
REMARK VINA RESULT:      -7.7      1.670      1.975
REMARK  4 active torsions:
REMARK  status: ('A' for Active; 'I' for Inactive)
REMARK    1  A    between atoms: C2_4  and  C3_5 
REMARK    2  A    between atoms: C3_5  and  N2_6 
REMARK    3  A    between atoms: N2_6  and  C4_7 
REMARK    4  A    between atoms: C7_10  and  N3_11 
ROOT
HETATM    1  C4  UNL     1      23.823   4.292  52.336  1.00  0.00     0.094 A 
HETATM    2  C5  UNL     1      23.134   5.162  53.149  1.00  0.00     0.047 A 
HETATM    3  C6  UNL     1      22.353   4.669  51.980  1.00  0.00     0.042 A 
HETATM    4  C7  UNL     1      21.693   3.623  51.507  1.00  0.00     0.032 C 
HETATM    5  C13 UNL     1      21.304   3.722  50.083  1.00  0.00     0.307 C 
HETATM    6  N4  UNL     1      22.118   2.756  49.289  1.00  0.00     0.054 NA
HETATM    7  C14 UNL     1      23.443   2.978  49.213  1.00  0.00     0.829 C 
HETATM    8  O2  UNL     1      24.448   3.944  49.699  1.00  0.00    -0.313 OA
HETATM    9  C15 UNL     1      23.920   4.563  50.856  1.00  0.00     0.075 C 
HETATM   10  C16 UNL     1      23.471   5.557  50.051  1.00  0.00     0.009 C 
HETATM   11  C17 UNL     1      22.409   5.899  51.074  1.00  0.00     0.049 C 
ENDROOT
BRANCH   1  12
HETATM   12  N2  UNL     1      24.590   3.093  52.398  1.00  0.00    -0.404 N 
HETATM   13  H5  UNL     1      24.604   2.638  51.475  1.00  0.00     0.154 HD
BRANCH  12  14
HETATM   14  C3  UNL     1      25.252   2.529  53.519  1.00  0.00     0.142 C 
BRANCH  14  15
HETATM   15  C2  UNL     1      26.403   1.626  53.253  1.00  0.00     0.128 C 
HETATM   16  N1  UNL     1      27.331   1.554  54.367  1.00  0.00    -0.329 N 
HETATM   17  C1  UNL     1      28.573   2.109  53.968  1.00  0.00     0.361 C 
HETATM   18  H1  UNL     1      27.053   1.144  55.291  1.00  0.00     0.165 HD
HETATM   19  O1  UNL     1      29.447   2.406  54.837  1.00  0.00    -0.239 OA
HETATM   20  O3  UNL     1      28.572   2.220  52.594  1.00  0.00    -0.302 OA
HETATM   21  C18 UNL     1      27.268   1.991  52.101  1.00  0.00     0.207 C 
ENDBRANCH  14  15
ENDBRANCH  12  14
ENDBRANCH   1  12
BRANCH   4  22
HETATM   22  N3  UNL     1      21.343   2.329  51.905  1.00  0.00    -0.336 N 
HETATM   23  C8  UNL     1      19.914   2.263  51.737  1.00  0.00     0.095 A 
HETATM   24  C9  UNL     1      19.219   1.150  52.016  1.00  0.00     0.033 A 
HETATM   25  C10 UNL     1      19.881  -0.067  52.510  1.00  0.00     0.240 A 
HETATM   26  F1  UNL     1      19.319  -0.502  53.718  1.00  0.00    -0.239 F 
HETATM   27  C11 UNL     1      21.327   0.055  52.664  1.00  0.00     0.065 A 
HETATM   28 CL1  UNL     1      22.311  -1.267  53.233  1.00  0.00    -0.084 Cl
HETATM   29  C12 UNL     1      21.959   1.167  52.376  1.00  0.00     0.118 A 
ENDBRANCH   4  22
TORSDOF 4
ENDMDL
MODEL 7
REMARK VINA RESULT:      -7.5      3.158      6.090
REMARK  4 active torsions:
REMARK  status: ('A' for Active; 'I' for Inactive)
REMARK    1  A    between atoms: C2_4  and  C3_5 
REMARK    2  A    between atoms: C3_5  and  N2_6 
REMARK    3  A    between atoms: N2_6  and  C4_7 
REMARK    4  A    between atoms: C7_10  and  N3_11 
ROOT
HETATM    1  C4  UNL     1      21.902   2.724  49.286  1.00  0.00     0.094 A 
HETATM    2  C5  UNL     1      22.674   2.449  48.181  1.00  0.00     0.047 A 
HETATM    3  C6  UNL     1      23.398   3.162  49.271  1.00  0.00     0.042 A 
HETATM    4  C7  UNL     1      23.955   3.000  50.461  1.00  0.00     0.032 C 
HETATM    5  C13 UNL     1      24.341   4.253  51.146  1.00  0.00     0.307 C 
HETATM    6  N4  UNL     1      23.436   4.468  52.313  1.00  0.00     0.054 NA
HETATM    7  C14 UNL     1      22.136   4.702  52.052  1.00  0.00     0.829 C 
HETATM    8  O2  UNL     1      21.228   4.827  50.896  1.00  0.00    -0.313 OA
HETATM    9  C15 UNL     1      21.820   4.134  49.813  1.00  0.00     0.075 C 
HETATM   10  C16 UNL     1      22.352   5.318  49.421  1.00  0.00     0.009 C 
HETATM   11  C17 UNL     1      23.449   4.574  48.688  1.00  0.00     0.049 C 
ENDROOT
BRANCH   1  12
HETATM   12  N2  UNL     1      21.028   2.084  50.212  1.00  0.00    -0.404 N 
HETATM   13  H5  UNL     1      21.407   2.166  51.165  1.00  0.00     0.154 HD
BRANCH  12  14
HETATM   14  C3  UNL     1      19.814   1.401  49.947  1.00  0.00     0.142 C 
BRANCH  14  15
HETATM   15  C2  UNL     1      18.624   2.224  49.603  1.00  0.00     0.128 C 
HETATM   16  N1  UNL     1      18.464   3.373  50.476  1.00  0.00    -0.329 N 
HETATM   17  C1  UNL     1      17.270   3.219  51.225  1.00  0.00     0.361 C 
HETATM   18  H1  UNL     1      19.164   4.154  50.495  1.00  0.00     0.165 HD
HETATM   19  O1  UNL     1      17.056   3.949  52.240  1.00  0.00    -0.239 OA
HETATM   20  O3  UNL     1      16.524   2.218  50.642  1.00  0.00    -0.302 OA
HETATM   21  C18 UNL     1      17.308   1.538  49.684  1.00  0.00     0.207 C 
ENDBRANCH  14  15
ENDBRANCH  12  14
ENDBRANCH   1  12
BRANCH   4  22
HETATM   22  N3  UNL     1      24.187   1.977  51.386  1.00  0.00    -0.336 N 
HETATM   23  C8  UNL     1      25.620   1.842  51.438  1.00  0.00     0.095 A 
HETATM   24  C9  UNL     1      26.218   0.948  52.240  1.00  0.00     0.033 A 
HETATM   25  C10 UNL     1      25.440   0.056  53.112  1.00  0.00     0.240 A 
HETATM   26  F1  UNL     1      25.761  -1.289  52.885  1.00  0.00    -0.239 F 
HETATM   27  C11 UNL     1      23.995   0.233  53.019  1.00  0.00     0.065 A 
HETATM   28 CL1  UNL     1      22.884  -0.720  53.967  1.00  0.00    -0.084 Cl
HETATM   29  C12 UNL     1      23.460   1.122  52.219  1.00  0.00     0.118 A 
ENDBRANCH   4  22
TORSDOF 4
ENDMDL
MODEL 8
REMARK VINA RESULT:      -7.5      4.438      6.299
REMARK  4 active torsions:
REMARK  status: ('A' for Active; 'I' for Inactive)
REMARK    1  A    between atoms: C2_4  and  C3_5 
REMARK    2  A    between atoms: C3_5  and  N2_6 
REMARK    3  A    between atoms: N2_6  and  C4_7 
REMARK    4  A    between atoms: C7_10  and  N3_11 
ROOT
HETATM    1  C4  UNL     1      24.238   3.463  49.952  1.00  0.00     0.094 A 
HETATM    2  C5  UNL     1      23.600   2.981  48.833  1.00  0.00     0.047 A 
HETATM    3  C6  UNL     1      23.408   4.441  49.066  1.00  0.00     0.042 A 
HETATM    4  C7  UNL     1      24.003   5.620  48.969  1.00  0.00     0.032 C 
HETATM    5  C13 UNL     1      23.283   6.738  49.617  1.00  0.00     0.307 C 
HETATM    6  N4  UNL     1      24.044   7.172  50.824  1.00  0.00     0.054 NA
HETATM    7  C14 UNL     1      24.139   6.298  51.843  1.00  0.00     0.829 C 
HETATM    8  O2  UNL     1      23.705   4.932  52.194  1.00  0.00    -0.313 OA
HETATM    9  C15 UNL     1      23.460   4.238  50.985  1.00  0.00     0.075 C 
HETATM   10  C16 UNL     1      22.159   4.598  51.109  1.00  0.00     0.009 C 
HETATM   11  C17 UNL     1      21.982   4.447  49.613  1.00  0.00     0.049 C 
ENDROOT
BRANCH   1  12
HETATM   12  N2  UNL     1      25.519   3.477  50.575  1.00  0.00    -0.404 N 
HETATM   13  H5  UNL     1      25.775   4.441  50.830  1.00  0.00     0.154 HD
BRANCH  12  14
HETATM   14  C3  UNL     1      26.386   2.383  50.828  1.00  0.00     0.142 C 
BRANCH  14  15
HETATM   15  C2  UNL     1      26.334   1.765  52.180  1.00  0.00     0.128 C 
HETATM   16  N1  UNL     1      26.982   2.576  53.195  1.00  0.00    -0.329 N 
HETATM   17  C1  UNL     1      28.115   1.880  53.686  1.00  0.00     0.361 C 
HETATM   18  H1  UNL     1      26.612   3.520  53.467  1.00  0.00     0.165 HD
HETATM   19  O1  UNL     1      28.989   2.490  54.373  1.00  0.00    -0.239 OA
HETATM   20  O3  UNL     1      28.022   0.567  53.278  1.00  0.00    -0.302 OA
HETATM   21  C18 UNL     1      26.992   0.440  52.319  1.00  0.00     0.207 C 
ENDBRANCH  14  15
ENDBRANCH  12  14
ENDBRANCH   1  12
BRANCH   4  22
HETATM   22  N3  UNL     1      25.225   6.153  48.545  1.00  0.00    -0.336 N 
HETATM   23  C8  UNL     1      24.872   7.312  47.767  1.00  0.00     0.095 A 
HETATM   24  C9  UNL     1      25.803   8.093  47.198  1.00  0.00     0.033 A 
HETATM   25  C10 UNL     1      27.239   7.807  47.341  1.00  0.00     0.240 A 
HETATM   26  F1  UNL     1      27.866   7.702  46.092  1.00  0.00    -0.239 F 
HETATM   27  C11 UNL     1      27.540   6.621  48.137  1.00  0.00     0.065 A 
HETATM   28 CL1  UNL     1      29.176   6.099  48.435  1.00  0.00    -0.084 Cl
HETATM   29  C12 UNL     1      26.591   5.892  48.671  1.00  0.00     0.118 A 
ENDBRANCH   4  22
TORSDOF 4
ENDMDL
MODEL 9
REMARK VINA RESULT:      -7.3      9.914     12.286
REMARK  4 active torsions:
REMARK  status: ('A' for Active; 'I' for Inactive)
REMARK    1  A    between atoms: C2_4  and  C3_5 
REMARK    2  A    between atoms: C3_5  and  N2_6 
REMARK    3  A    between atoms: N2_6  and  C4_7 
REMARK    4  A    between atoms: C7_10  and  N3_11 
ROOT
HETATM    1  C4  UNL     1      32.732   3.788  45.893  1.00  0.00     0.094 A 
HETATM    2  C5  UNL     1      31.926   2.723  46.224  1.00  0.00     0.047 A 
HETATM    3  C6  UNL     1      32.163   3.682  47.340  1.00  0.00     0.042 A 
HETATM    4  C7  UNL     1      31.824   4.873  47.808  1.00  0.00     0.032 C 
HETATM    5  C13 UNL     1      32.647   5.357  48.939  1.00  0.00     0.307 C 
HETATM    6  N4  UNL     1      33.493   6.493  48.473  1.00  0.00     0.054 NA
HETATM    7  C14 UNL     1      34.441   6.223  47.556  1.00  0.00     0.829 C 
HETATM    8  O2  UNL     1      34.967   5.077  46.790  1.00  0.00    -0.313 OA
HETATM    9  C15 UNL     1      33.947   4.099  46.730  1.00  0.00     0.075 C 
HETATM   10  C16 UNL     1      34.509   3.526  47.822  1.00  0.00     0.009 C 
HETATM   11  C17 UNL     1      33.177   2.894  48.168  1.00  0.00     0.049 C 
ENDROOT
BRANCH   1  12
HETATM   12  N2  UNL     1      32.862   4.813  44.913  1.00  0.00    -0.404 N 
HETATM   13  H5  UNL     1      32.432   5.683  45.256  1.00  0.00     0.154 HD
BRANCH  12  14
HETATM   14  C3  UNL     1      33.459   4.733  43.629  1.00  0.00     0.142 C 
BRANCH  14  15
HETATM   15  C2  UNL     1      34.112   5.959  43.098  1.00  0.00     0.128 C 
HETATM   16  N1  UNL     1      34.637   6.815  44.146  1.00  0.00    -0.329 N 
HETATM   17  C1  UNL     1      33.921   8.039  44.142  1.00  0.00     0.361 C 
HETATM   18  H1  UNL     1      35.423   6.507  44.768  1.00  0.00     0.165 HD
HETATM   19  O1  UNL     1      34.009   8.832  45.127  1.00  0.00    -0.239 OA
HETATM   20  O3  UNL     1      33.215   8.119  42.961  1.00  0.00    -0.302 OA
HETATM   21  C18 UNL     1      33.246   6.869  42.304  1.00  0.00     0.207 C 
ENDBRANCH  14  15
ENDBRANCH  12  14
ENDBRANCH   1  12
BRANCH   4  22
HETATM   22  N3  UNL     1      30.979   5.936  47.474  1.00  0.00    -0.336 N 
HETATM   23  C8  UNL     1      29.733   5.641  48.134  1.00  0.00     0.095 A 
HETATM   24  C9  UNL     1      28.674   6.459  48.045  1.00  0.00     0.033 A 
HETATM   25  C10 UNL     1      28.728   7.706  47.267  1.00  0.00     0.240 A 
HETATM   26  F1  UNL     1      27.705   7.759  46.311  1.00  0.00    -0.239 F 
HETATM   27  C11 UNL     1      30.012   7.956  46.619  1.00  0.00     0.065 A 
HETATM   28 CL1  UNL     1      30.297   9.376  45.649  1.00  0.00    -0.084 Cl
HETATM   29  C12 UNL     1      31.017   7.123  46.737  1.00  0.00     0.118 A 
ENDBRANCH   4  22
TORSDOF 4
ENDMDL
