MODEL 1
REMARK VINA RESULT:      -7.8      0.000      0.000
REMARK  4 active torsions:
REMARK  status: ('A' for Active; 'I' for Inactive)
REMARK    1  A    between atoms: C1_2  and  C2_3 
REMARK       I    between atoms: C1_2  and  N1_11 
REMARK    2  A    between atoms: C2_3  and  C3_4 
REMARK    3  A    between atoms: N1_11  and  S1_12 
REMARK    4  A    between atoms: S1_12  and  C9_15 
ROOT
HETATM    1  O1  UNL     1      27.593   2.870  51.523  1.00  0.00    -0.272 OA
HETATM    2  C1  UNL     1      26.507   2.503  50.959  1.00  0.00     0.235 C 
HETATM    3  N1  UNL     1      25.635   1.650  51.707  1.00  0.00    -0.250 N 
HETATM    4  H7  UNL     1      24.732   1.343  51.242  1.00  0.00     0.181 HD
ENDROOT
BRANCH   3   5
HETATM    5  S1  UNL     1      25.929   1.082  53.294  1.00  0.00     0.261 S 
HETATM    6  O2  UNL     1      24.756   0.298  53.779  1.00  0.00    -0.200 OA
HETATM    7  O3  UNL     1      26.258   2.185  54.257  1.00  0.00    -0.200 OA
BRANCH   5   8
HETATM    8  C9  UNL     1      27.311  -0.022  53.330  1.00  0.00     0.064 A 
HETATM    9  C10 UNL     1      27.315  -1.271  52.885  1.00  0.00     0.024 A 
HETATM   10  C11 UNL     1      28.606  -1.931  53.052  1.00  0.00     0.039 A 
HETATM   11  C12 UNL     1      29.370  -1.011  53.618  1.00  0.00     0.098 A 
HETATM   12  F1  UNL     1      30.679  -1.168  53.969  1.00  0.00    -0.210 F 
HETATM   13  C13 UNL     1      28.674   0.274  53.860  1.00  0.00     0.122 A 
ENDBRANCH   5   8
ENDBRANCH   3   5
BRANCH   2  14
HETATM   14  C2  UNL     1      26.085   2.903  49.574  1.00  0.00     0.142 C 
BRANCH  14  15
HETATM   15  C3  UNL     1      26.445   4.313  49.338  1.00  0.00    -0.049 A 
HETATM   16  C4  UNL     1      25.554   5.248  49.873  1.00  0.00     0.009 A 
HETATM   17  C5  UNL     1      25.827   6.591  49.691  1.00  0.00     0.024 A 
HETATM   18  C6  UNL     1      26.933   7.047  49.008  1.00  0.00     0.034 A 
HETATM   19 CL1  UNL     1      27.265   8.755  48.785  1.00  0.00    -0.084 Cl
HETATM   20  C7  UNL     1      27.807   6.121  48.483  1.00  0.00     0.024 A 
HETATM   21  C8  UNL     1      27.556   4.757  48.652  1.00  0.00     0.009 A 
ENDBRANCH  14  15
ENDBRANCH   2  14
TORSDOF 4
ENDMDL
MODEL 2
REMARK VINA RESULT:      -7.7      4.017      6.846
REMARK  4 active torsions:
REMARK  status: ('A' for Active; 'I' for Inactive)
REMARK    1  A    between atoms: C1_2  and  C2_3 
REMARK       I    between atoms: C1_2  and  N1_11 
REMARK    2  A    between atoms: C2_3  and  C3_4 
REMARK    3  A    between atoms: N1_11  and  S1_12 
REMARK    4  A    between atoms: S1_12  and  C9_15 
ROOT
HETATM    1  O1  UNL     1      23.284   0.898  51.505  1.00  0.00    -0.272 OA
HETATM    2  C1  UNL     1      23.756   1.124  52.669  1.00  0.00     0.235 C 
HETATM    3  N1  UNL     1      23.970   2.491  53.036  1.00  0.00    -0.250 N 
HETATM    4  H7  UNL     1      24.362   2.683  54.003  1.00  0.00     0.181 HD
ENDROOT
BRANCH   3   5
HETATM    5  S1  UNL     1      23.644   3.844  52.041  1.00  0.00     0.261 S 
HETATM    6  O2  UNL     1      23.642   5.091  52.862  1.00  0.00    -0.200 OA
HETATM    7  O3  UNL     1      22.357   3.714  51.282  1.00  0.00    -0.200 OA
BRANCH   5   8
HETATM    8  C9  UNL     1      24.908   4.057  50.822  1.00  0.00     0.064 A 
HETATM    9  C10 UNL     1      25.816   3.154  50.482  1.00  0.00     0.024 A 
HETATM   10  C11 UNL     1      26.727   3.623  49.443  1.00  0.00     0.039 A 
HETATM   11  C12 UNL     1      26.314   4.853  49.181  1.00  0.00     0.098 A 
HETATM   12  F1  UNL     1      26.866   5.701  48.265  1.00  0.00    -0.210 F 
HETATM   13  C13 UNL     1      25.148   5.275  49.992  1.00  0.00     0.122 A 
ENDBRANCH   5   8
ENDBRANCH   3   5
BRANCH   2  14
HETATM   14  C2  UNL     1      24.101   0.062  53.674  1.00  0.00     0.142 C 
BRANCH  14  15
HETATM   15  C3  UNL     1      25.565  -0.098  53.738  1.00  0.00    -0.049 A 
HETATM   16  C4  UNL     1      26.122  -0.852  52.700  1.00  0.00     0.009 A 
HETATM   17  C5  UNL     1      27.492  -1.044  52.693  1.00  0.00     0.024 A 
HETATM   18  C6  UNL     1      28.327  -0.530  53.660  1.00  0.00     0.034 A 
HETATM   19 CL1  UNL     1      30.063  -0.784  53.637  1.00  0.00    -0.084 Cl
HETATM   20  C7  UNL     1      27.772   0.211  54.680  1.00  0.00     0.024 A 
HETATM   21  C8  UNL     1      26.391   0.422  54.711  1.00  0.00     0.009 A 
ENDBRANCH  14  15
ENDBRANCH   2  14
TORSDOF 4
ENDMDL
MODEL 3
REMARK VINA RESULT:      -7.5      4.726      6.199
REMARK  4 active torsions:
REMARK  status: ('A' for Active; 'I' for Inactive)
REMARK    1  A    between atoms: C1_2  and  C2_3 
REMARK       I    between atoms: C1_2  and  N1_11 
REMARK    2  A    between atoms: C2_3  and  C3_4 
REMARK    3  A    between atoms: N1_11  and  S1_12 
REMARK    4  A    between atoms: S1_12  and  C9_15 
ROOT
HETATM    1  O1  UNL     1      24.068   2.871  53.102  1.00  0.00    -0.272 OA
HETATM    2  C1  UNL     1      24.513   2.400  52.002  1.00  0.00     0.235 C 
HETATM    3  N1  UNL     1      23.610   1.625  51.207  1.00  0.00    -0.250 N 
HETATM    4  H7  UNL     1      23.975   1.232  50.292  1.00  0.00     0.181 HD
ENDROOT
BRANCH   3   5
HETATM    5  S1  UNL     1      21.983   1.279  51.612  1.00  0.00     0.261 S 
HETATM    6  O2  UNL     1      21.297   0.634  50.454  1.00  0.00    -0.200 OA
HETATM    7  O3  UNL     1      21.224   2.491  52.064  1.00  0.00    -0.200 OA
BRANCH   5   8
HETATM    8  C9  UNL     1      21.892   0.122  52.948  1.00  0.00     0.064 A 
HETATM    9  C10 UNL     1      20.792  -0.479  53.378  1.00  0.00     0.024 A 
HETATM   10  C11 UNL     1      21.035  -1.381  54.498  1.00  0.00     0.039 A 
HETATM   11  C12 UNL     1      22.338  -1.287  54.713  1.00  0.00     0.098 A 
HETATM   12  F1  UNL     1      23.037  -1.957  55.675  1.00  0.00    -0.210 F 
HETATM   13  C13 UNL     1      23.027  -0.354  53.792  1.00  0.00     0.122 A 
ENDBRANCH   5   8
ENDBRANCH   3   5
BRANCH   2  14
HETATM   14  C2  UNL     1      25.909   2.602  51.486  1.00  0.00     0.142 C 
BRANCH  14  15
HETATM   15  C3  UNL     1      26.811   1.616  52.111  1.00  0.00    -0.049 A 
HETATM   16  C4  UNL     1      27.889   2.164  52.814  1.00  0.00     0.009 A 
HETATM   17  C5  UNL     1      28.777   1.300  53.427  1.00  0.00     0.024 A 
HETATM   18  C6  UNL     1      28.648  -0.071  53.376  1.00  0.00     0.034 A 
HETATM   19 CL1  UNL     1      29.785  -1.154  54.159  1.00  0.00    -0.084 Cl
HETATM   20  C7  UNL     1      27.585  -0.604  52.682  1.00  0.00     0.024 A 
HETATM   21  C8  UNL     1      26.671   0.246  52.053  1.00  0.00     0.009 A 
ENDBRANCH  14  15
ENDBRANCH   2  14
TORSDOF 4
ENDMDL
MODEL 4
REMARK VINA RESULT:      -7.4      4.061      6.970
REMARK  4 active torsions:
REMARK  status: ('A' for Active; 'I' for Inactive)
REMARK    1  A    between atoms: C1_2  and  C2_3 
REMARK       I    between atoms: C1_2  and  N1_11 
REMARK    2  A    between atoms: C2_3  and  C3_4 
REMARK    3  A    between atoms: N1_11  and  S1_12 
REMARK    4  A    between atoms: S1_12  and  C9_15 
ROOT
HETATM    1  O1  UNL     1      24.623   2.426  50.688  1.00  0.00    -0.272 OA
HETATM    2  C1  UNL     1      24.660   3.118  51.760  1.00  0.00     0.235 C 
HETATM    3  N1  UNL     1      24.571   4.540  51.626  1.00  0.00    -0.250 N 
HETATM    4  H7  UNL     1      24.601   5.119  52.515  1.00  0.00     0.181 HD
ENDROOT
BRANCH   3   5
HETATM    5  S1  UNL     1      24.419   5.386  50.146  1.00  0.00     0.261 S 
HETATM    6  O2  UNL     1      23.916   6.769  50.400  1.00  0.00    -0.200 OA
HETATM    7  O3  UNL     1      23.538   4.681  49.159  1.00  0.00    -0.200 OA
BRANCH   5   8
HETATM    8  C9  UNL     1      25.990   5.570  49.353  1.00  0.00     0.064 A 
HETATM    9  C10 UNL     1      26.495   6.704  48.888  1.00  0.00     0.024 A 
HETATM   10  C11 UNL     1      27.813   6.537  48.285  1.00  0.00     0.039 A 
HETATM   11  C12 UNL     1      28.068   5.244  48.416  1.00  0.00     0.098 A 
HETATM   12  F1  UNL     1      29.200   4.609  47.995  1.00  0.00    -0.210 F 
HETATM   13  C13 UNL     1      26.984   4.489  49.086  1.00  0.00     0.122 A 
ENDBRANCH   5   8
ENDBRANCH   3   5
BRANCH   2  14
HETATM   14  C2  UNL     1      24.789   2.547  53.143  1.00  0.00     0.142 C 
BRANCH  14  15
HETATM   15  C3  UNL     1      25.883   1.558  53.167  1.00  0.00    -0.049 A 
HETATM   16  C4  UNL     1      27.160   2.094  53.352  1.00  0.00     0.009 A 
HETATM   17  C5  UNL     1      28.236   1.225  53.385  1.00  0.00     0.024 A 
HETATM   18  C6  UNL     1      28.105  -0.138  53.243  1.00  0.00     0.034 A 
HETATM   19 CL1  UNL     1      29.480  -1.227  53.287  1.00  0.00    -0.084 Cl
HETATM   20  C7  UNL     1      26.843  -0.660  53.061  1.00  0.00     0.024 A 
HETATM   21  C8  UNL     1      25.738   0.195  53.024  1.00  0.00     0.009 A 
ENDBRANCH  14  15
ENDBRANCH   2  14
TORSDOF 4
ENDMDL
MODEL 5
REMARK VINA RESULT:      -7.3      4.180      6.865
REMARK  4 active torsions:
REMARK  status: ('A' for Active; 'I' for Inactive)
REMARK    1  A    between atoms: C1_2  and  C2_3 
REMARK       I    between atoms: C1_2  and  N1_11 
REMARK    2  A    between atoms: C2_3  and  C3_4 
REMARK    3  A    between atoms: N1_11  and  S1_12 
REMARK    4  A    between atoms: S1_12  and  C9_15 
ROOT
HETATM    1  O1  UNL     1      23.859   2.899  52.986  1.00  0.00    -0.272 OA
HETATM    2  C1  UNL     1      23.808   1.698  52.555  1.00  0.00     0.235 C 
HETATM    3  N1  UNL     1      23.521   1.513  51.165  1.00  0.00    -0.250 N 
HETATM    4  H7  UNL     1      23.477   0.517  50.802  1.00  0.00     0.181 HD
ENDROOT
BRANCH   3   5
HETATM    5  S1  UNL     1      23.241   2.769  50.036  1.00  0.00     0.261 S 
HETATM    6  O2  UNL     1      22.335   3.795  50.632  1.00  0.00    -0.200 OA
HETATM    7  O3  UNL     1      22.687   2.271  48.735  1.00  0.00    -0.200 OA
BRANCH   5   8
HETATM    8  C9  UNL     1      24.745   3.611  49.635  1.00  0.00     0.064 A 
HETATM    9  C10 UNL     1      25.967   3.111  49.749  1.00  0.00     0.024 A 
HETATM   10  C11 UNL     1      27.008   4.047  49.340  1.00  0.00     0.039 A 
HETATM   11  C12 UNL     1      26.342   5.132  48.976  1.00  0.00     0.098 A 
HETATM   12  F1  UNL     1      26.898   6.289  48.513  1.00  0.00    -0.210 F 
HETATM   13  C13 UNL     1      24.873   5.003  49.111  1.00  0.00     0.122 A 
ENDBRANCH   5   8
ENDBRANCH   3   5
BRANCH   2  14
HETATM   14  C2  UNL     1      24.026   0.475  53.398  1.00  0.00     0.142 C 
BRANCH  14  15
HETATM   15  C3  UNL     1      25.460   0.131  53.404  1.00  0.00    -0.049 A 
HETATM   16  C4  UNL     1      26.253   0.921  54.242  1.00  0.00     0.009 A 
HETATM   17  C5  UNL     1      27.610   0.655  54.299  1.00  0.00     0.024 A 
HETATM   18  C6  UNL     1      28.210  -0.347  53.570  1.00  0.00     0.034 A 
HETATM   19 CL1  UNL     1      29.933  -0.670  53.653  1.00  0.00    -0.084 Cl
HETATM   20  C7  UNL     1      27.423  -1.120  52.745  1.00  0.00     0.024 A 
HETATM   21  C8  UNL     1      26.049  -0.874  52.668  1.00  0.00     0.009 A 
ENDBRANCH  14  15
ENDBRANCH   2  14
TORSDOF 4
ENDMDL
MODEL 6
REMARK VINA RESULT:      -7.2      4.252      7.118
REMARK  4 active torsions:
REMARK  status: ('A' for Active; 'I' for Inactive)
REMARK    1  A    between atoms: C1_2  and  C2_3 
REMARK       I    between atoms: C1_2  and  N1_11 
REMARK    2  A    between atoms: C2_3  and  C3_4 
REMARK    3  A    between atoms: N1_11  and  S1_12 
REMARK    4  A    between atoms: S1_12  and  C9_15 
ROOT
HETATM    1  O1  UNL     1      23.479   2.348  51.734  1.00  0.00    -0.272 OA
HETATM    2  C1  UNL     1      24.516   2.858  52.278  1.00  0.00     0.235 C 
HETATM    3  N1  UNL     1      25.255   3.815  51.513  1.00  0.00    -0.250 N 
HETATM    4  H7  UNL     1      26.117   4.240  51.961  1.00  0.00     0.181 HD
ENDROOT
BRANCH   3   5
HETATM    5  S1  UNL     1      24.861   4.331  49.929  1.00  0.00     0.261 S 
HETATM    6  O2  UNL     1      23.774   5.353  49.983  1.00  0.00    -0.200 OA
HETATM    7  O3  UNL     1      24.472   3.198  49.026  1.00  0.00    -0.200 OA
BRANCH   5   8
HETATM    8  C9  UNL     1      26.242   5.119  49.154  1.00  0.00     0.064 A 
HETATM    9  C10 UNL     1      27.429   4.568  48.942  1.00  0.00     0.024 A 
HETATM   10  C11 UNL     1      28.366   5.470  48.280  1.00  0.00     0.039 A 
HETATM   11  C12 UNL     1      27.676   6.586  48.108  1.00  0.00     0.098 A 
HETATM   12  F1  UNL     1      28.140   7.727  47.522  1.00  0.00    -0.210 F 
HETATM   13  C13 UNL     1      26.288   6.513  48.621  1.00  0.00     0.122 A 
ENDBRANCH   5   8
ENDBRANCH   3   5
BRANCH   2  14
HETATM   14  C2  UNL     1      25.010   2.524  53.656  1.00  0.00     0.142 C 
BRANCH  14  15
HETATM   15  C3  UNL     1      26.195   1.652  53.556  1.00  0.00    -0.049 A 
HETATM   16  C4  UNL     1      25.915   0.295  53.371  1.00  0.00     0.009 A 
HETATM   17  C5  UNL     1      26.978  -0.585  53.268  1.00  0.00     0.024 A 
HETATM   18  C6  UNL     1      28.294  -0.184  53.339  1.00  0.00     0.034 A 
HETATM   19 CL1  UNL     1      29.631  -1.313  53.207  1.00  0.00    -0.084 Cl
HETATM   20  C7  UNL     1      28.563   1.155  53.522  1.00  0.00     0.024 A 
HETATM   21  C8  UNL     1      27.508   2.065  53.629  1.00  0.00     0.009 A 
ENDBRANCH  14  15
ENDBRANCH   2  14
TORSDOF 4
ENDMDL
MODEL 7
REMARK VINA RESULT:      -7.1      5.047      7.441
REMARK  4 active torsions:
REMARK  status: ('A' for Active; 'I' for Inactive)
REMARK    1  A    between atoms: C1_2  and  C2_3 
REMARK       I    between atoms: C1_2  and  N1_11 
REMARK    2  A    between atoms: C2_3  and  C3_4 
REMARK    3  A    between atoms: N1_11  and  S1_12 
REMARK    4  A    between atoms: S1_12  and  C9_15 
ROOT
HETATM    1  O1  UNL     1      24.431   1.135  51.898  1.00  0.00    -0.272 OA
HETATM    2  C1  UNL     1      23.788   0.724  52.921  1.00  0.00     0.235 C 
HETATM    3  N1  UNL     1      22.533   1.352  53.203  1.00  0.00    -0.250 N 
HETATM    4  H7  UNL     1      21.995   1.013  54.052  1.00  0.00     0.181 HD
ENDROOT
BRANCH   3   5
HETATM    5  S1  UNL     1      21.826   2.608  52.279  1.00  0.00     0.261 S 
HETATM    6  O2  UNL     1      22.640   3.853  52.408  1.00  0.00    -0.200 OA
HETATM    7  O3  UNL     1      20.398   2.873  52.652  1.00  0.00    -0.200 OA
BRANCH   5   8
HETATM    8  C9  UNL     1      21.813   2.203  50.558  1.00  0.00     0.064 A 
HETATM    9  C10 UNL     1      21.266   1.121  50.021  1.00  0.00     0.024 A 
HETATM   10  C11 UNL     1      21.417   1.064  48.571  1.00  0.00     0.039 A 
HETATM   11  C12 UNL     1      22.081   2.170  48.271  1.00  0.00     0.098 A 
HETATM   12  F1  UNL     1      22.458   2.557  47.018  1.00  0.00    -0.210 F 
HETATM   13  C13 UNL     1      22.408   3.006  49.449  1.00  0.00     0.122 A 
ENDBRANCH   5   8
ENDBRANCH   3   5
BRANCH   2  14
HETATM   14  C2  UNL     1      24.253  -0.366  53.844  1.00  0.00     0.142 C 
BRANCH  14  15
HETATM   15  C3  UNL     1      25.718  -0.503  53.743  1.00  0.00    -0.049 A 
HETATM   16  C4  UNL     1      26.447   0.287  54.637  1.00  0.00     0.009 A 
HETATM   17  C5  UNL     1      27.828   0.210  54.601  1.00  0.00     0.024 A 
HETATM   18  C6  UNL     1      28.512  -0.605  53.727  1.00  0.00     0.034 A 
HETATM   19 CL1  UNL     1      30.265  -0.690  53.694  1.00  0.00    -0.084 Cl
HETATM   20  C7  UNL     1      27.788  -1.381  52.849  1.00  0.00     0.024 A 
HETATM   21  C8  UNL     1      26.391  -1.323  52.864  1.00  0.00     0.009 A 
ENDBRANCH  14  15
ENDBRANCH   2  14
TORSDOF 4
ENDMDL
MODEL 8
REMARK VINA RESULT:      -7.1      2.063      2.546
REMARK  4 active torsions:
REMARK  status: ('A' for Active; 'I' for Inactive)
REMARK    1  A    between atoms: C1_2  and  C2_3 
REMARK       I    between atoms: C1_2  and  N1_11 
REMARK    2  A    between atoms: C2_3  and  C3_4 
REMARK    3  A    between atoms: N1_11  and  S1_12 
REMARK    4  A    between atoms: S1_12  and  C9_15 
ROOT
HETATM    1  O1  UNL     1      27.663   2.776  51.669  1.00  0.00    -0.272 OA
HETATM    2  C1  UNL     1      26.579   2.464  51.070  1.00  0.00     0.235 C 
HETATM    3  N1  UNL     1      25.673   1.600  51.763  1.00  0.00    -0.250 N 
HETATM    4  H7  UNL     1      24.771   1.338  51.269  1.00  0.00     0.181 HD
ENDROOT
BRANCH   3   5
HETATM    5  S1  UNL     1      25.925   0.952  53.327  1.00  0.00     0.261 S 
HETATM    6  O2  UNL     1      24.744   0.135  53.735  1.00  0.00    -0.200 OA
HETATM    7  O3  UNL     1      26.216   2.004  54.355  1.00  0.00    -0.200 OA
BRANCH   5   8
HETATM    8  C9  UNL     1      27.314  -0.144  53.346  1.00  0.00     0.064 A 
HETATM    9  C10 UNL     1      27.334  -1.377  52.860  1.00  0.00     0.024 A 
HETATM   10  C11 UNL     1      28.627  -2.034  53.023  1.00  0.00     0.039 A 
HETATM   11  C12 UNL     1      29.376  -1.128  53.632  1.00  0.00     0.098 A 
HETATM   12  F1  UNL     1      30.681  -1.288  53.997  1.00  0.00    -0.210 F 
HETATM   13  C13 UNL     1      28.667   0.144  53.907  1.00  0.00     0.122 A 
ENDBRANCH   5   8
ENDBRANCH   3   5
BRANCH   2  14
HETATM   14  C2  UNL     1      26.192   2.938  49.699  1.00  0.00     0.142 C 
BRANCH  14  15
HETATM   15  C3  UNL     1      24.974   3.766  49.791  1.00  0.00    -0.049 A 
HETATM   16  C4  UNL     1      23.855   3.245  49.134  1.00  0.00     0.009 A 
HETATM   17  C5  UNL     1      22.676   3.967  49.178  1.00  0.00     0.024 A 
HETATM   18  C6  UNL     1      22.557   5.171  49.835  1.00  0.00     0.034 A 
HETATM   19 CL1  UNL     1      21.054   6.075  49.880  1.00  0.00    -0.084 Cl
HETATM   20  C7  UNL     1      23.664   5.679  50.479  1.00  0.00     0.024 A 
HETATM   21  C8  UNL     1      24.868   4.971  50.452  1.00  0.00     0.009 A 
ENDBRANCH  14  15
ENDBRANCH   2  14
TORSDOF 4
ENDMDL
MODEL 9
REMARK VINA RESULT:      -6.9      6.537      7.951
REMARK  4 active torsions:
REMARK  status: ('A' for Active; 'I' for Inactive)
REMARK    1  A    between atoms: C1_2  and  C2_3 
REMARK       I    between atoms: C1_2  and  N1_11 
REMARK    2  A    between atoms: C2_3  and  C3_4 
REMARK    3  A    between atoms: N1_11  and  S1_12 
REMARK    4  A    between atoms: S1_12  and  C9_15 
ROOT
HETATM    1  O1  UNL     1      21.839   2.146  52.795  1.00  0.00    -0.272 OA
HETATM    2  C1  UNL     1      22.612   1.182  52.471  1.00  0.00     0.235 C 
HETATM    3  N1  UNL     1      22.292  -0.115  52.983  1.00  0.00    -0.250 N 
HETATM    4  H7  UNL     1      22.932  -0.919  52.717  1.00  0.00     0.181 HD
ENDROOT
BRANCH   3   5
HETATM    5  S1  UNL     1      20.959  -0.479  53.993  1.00  0.00     0.261 S 
HETATM    6  O2  UNL     1      20.767   0.611  54.993  1.00  0.00    -0.200 OA
HETATM    7  O3  UNL     1      21.093  -1.805  54.680  1.00  0.00    -0.200 OA
BRANCH   5   8
HETATM    8  C9  UNL     1      19.458  -0.565  53.060  1.00  0.00     0.064 A 
HETATM    9  C10 UNL     1      19.230   0.042  51.904  1.00  0.00     0.024 A 
HETATM   10  C11 UNL     1      17.894  -0.219  51.377  1.00  0.00     0.039 A 
HETATM   11  C12 UNL     1      17.339  -1.013  52.279  1.00  0.00     0.098 A 
HETATM   12  F1  UNL     1      16.077  -1.527  52.218  1.00  0.00    -0.210 F 
HETATM   13  C13 UNL     1      18.226  -1.325  53.424  1.00  0.00     0.122 A 
ENDBRANCH   5   8
ENDBRANCH   3   5
BRANCH   2  14
HETATM   14  C2  UNL     1      23.825   1.316  51.596  1.00  0.00     0.142 C 
BRANCH  14  15
HETATM   15  C3  UNL     1      25.034   1.004  52.382  1.00  0.00    -0.049 A 
HETATM   16  C4  UNL     1      25.343   1.929  53.383  1.00  0.00     0.009 A 
HETATM   17  C5  UNL     1      26.464   1.702  54.161  1.00  0.00     0.024 A 
HETATM   18  C6  UNL     1      27.286   0.610  53.993  1.00  0.00     0.034 A 
HETATM   19 CL1  UNL     1      28.705   0.337  54.988  1.00  0.00    -0.084 Cl
HETATM   20  C7  UNL     1      26.976  -0.298  53.003  1.00  0.00     0.024 A 
HETATM   21  C8  UNL     1      25.850  -0.093  52.203  1.00  0.00     0.009 A 
ENDBRANCH  14  15
ENDBRANCH   2  14
TORSDOF 4
ENDMDL
