MODEL 1
REMARK VINA RESULT:      -6.8      0.000      0.000
REMARK  7 active torsions:
REMARK  status: ('A' for Active; 'I' for Inactive)
REMARK    1  A    between atoms: C2_2  and  C3_4 
REMARK    2  A    between atoms: C3_4  and  C4_5 
REMARK    3  A    between atoms: C4_5  and  C5_6 
REMARK    4  A    between atoms: C7_9  and  C8_10 
REMARK    5  A    between atoms: C9_11  and  N1_12 
REMARK    6  A    between atoms: N1_12  and  C10_13 
REMARK    7  A    between atoms: C10_13  and  C11_14 
ROOT
HETATM    1  C5  UNL     1      26.484   2.413  51.341  1.00  0.00    -0.054 C 
HETATM    2  C6  UNL     1      26.708   3.122  50.364  1.00  0.00     0.010 C 
HETATM    3 CL1  UNL     1      27.029   4.126  48.991  1.00  0.00    -0.023 Cl
ENDROOT
BRANCH   1   4
HETATM    4  C4  UNL     1      26.246   1.579  52.488  1.00  0.00     0.003 C 
HETATM    5  C7  UNL     1      25.519   0.478  52.381  1.00  0.00     0.018 C 
BRANCH   4   6
HETATM    6  C3  UNL     1      26.881   2.075  53.735  1.00  0.00     0.117 C 
BRANCH   6   7
HETATM    7  C2  UNL     1      28.346   1.825  53.746  1.00  0.00     0.089 C 
HETATM    8  C1  UNL     1      28.941   0.657  53.961  1.00  0.00     0.052 C 
HETATM    9  F1  UNL     1      28.999   2.993  53.499  1.00  0.00    -0.211 F 
ENDBRANCH   6   7
ENDBRANCH   4   6
BRANCH   5  10
HETATM   10  C8  UNL     1      25.242  -0.408  53.502  1.00  0.00     0.018 C 
HETATM   11  C9  UNL     1      24.006  -0.841  53.724  1.00  0.00     0.083 C 
BRANCH  11  12
HETATM   12  N1  UNL     1      22.880  -0.514  52.948  1.00  0.00    -0.395 N 
HETATM   13  H8  UNL     1      22.770  -1.326  52.292  1.00  0.00     0.159 HD
BRANCH  12  14
HETATM   14  C10 UNL     1      22.238   0.755  53.254  1.00  0.00     0.157 C 
BRANCH  14  15
HETATM   15  C11 UNL     1      22.505   1.718  52.163  1.00  0.00    -0.040 A 
HETATM   16  C12 UNL     1      22.360   1.388  50.821  1.00  0.00     0.011 A 
HETATM   17  C13 UNL     1      22.636   2.367  49.905  1.00  0.00     0.033 A 
HETATM   18  C14 UNL     1      23.044   3.650  50.209  1.00  0.00     0.070 A 
HETATM   19  N2  UNL     1      23.309   4.595  49.297  1.00  0.00    -0.241 NA
HETATM   20  C17 UNL     1      23.168   3.917  51.571  1.00  0.00     0.011 A 
HETATM   21  C15 UNL     1      23.706   5.836  49.685  1.00  0.00     0.233 A 
HETATM   22  N3  UNL     1      23.835   6.122  51.001  1.00  0.00    -0.253 NA
HETATM   23  C16 UNL     1      23.574   5.187  51.937  1.00  0.00     0.131 A 
HETATM   24  C18 UNL     1      22.913   2.994  52.562  1.00  0.00     0.024 A 
ENDBRANCH  14  15
ENDBRANCH  12  14
ENDBRANCH  11  12
ENDBRANCH   5  10
ENDBRANCH   1   4
TORSDOF 7
ENDMDL
MODEL 2
REMARK VINA RESULT:      -6.6      2.538      5.519
REMARK  7 active torsions:
REMARK  status: ('A' for Active; 'I' for Inactive)
REMARK    1  A    between atoms: C2_2  and  C3_4 
REMARK    2  A    between atoms: C3_4  and  C4_5 
REMARK    3  A    between atoms: C4_5  and  C5_6 
REMARK    4  A    between atoms: C7_9  and  C8_10 
REMARK    5  A    between atoms: C9_11  and  N1_12 
REMARK    6  A    between atoms: N1_12  and  C10_13 
REMARK    7  A    between atoms: C10_13  and  C11_14 
ROOT
HETATM    1  C5  UNL     1      25.660   4.546  49.317  1.00  0.00    -0.054 C 
HETATM    2  C6  UNL     1      26.810   4.814  48.981  1.00  0.00     0.010 C 
HETATM    3 CL1  UNL     1      28.429   5.197  48.503  1.00  0.00    -0.023 Cl
ENDROOT
BRANCH   1   4
HETATM    4  C4  UNL     1      24.311   4.257  49.721  1.00  0.00     0.003 C 
HETATM    5  C7  UNL     1      23.584   3.371  49.059  1.00  0.00     0.018 C 
BRANCH   4   6
HETATM    6  C3  UNL     1      23.857   5.030  50.905  1.00  0.00     0.117 C 
BRANCH   6   7
HETATM    7  C2  UNL     1      23.804   6.489  50.625  1.00  0.00     0.089 C 
HETATM    8  C1  UNL     1      22.863   7.121  49.933  1.00  0.00     0.052 C 
HETATM    9  F1  UNL     1      24.883   7.092  51.196  1.00  0.00    -0.211 F 
ENDBRANCH   6   7
ENDBRANCH   4   6
BRANCH   5  10
HETATM   10  C8  UNL     1      22.215   3.033  49.416  1.00  0.00     0.018 C 
HETATM   11  C9  UNL     1      21.971   2.139  50.367  1.00  0.00     0.083 C 
BRANCH  11  12
HETATM   12  N1  UNL     1      22.952   1.449  51.103  1.00  0.00    -0.395 N 
HETATM   13  H8  UNL     1      23.415   0.825  50.397  1.00  0.00     0.159 HD
BRANCH  12  14
HETATM   14  C10 UNL     1      23.038   1.774  52.518  1.00  0.00     0.157 C 
BRANCH  14  15
HETATM   15  C11 UNL     1      24.261   1.168  53.089  1.00  0.00    -0.040 A 
HETATM   16  C12 UNL     1      24.300  -0.141  53.556  1.00  0.00     0.011 A 
HETATM   17  C13 UNL     1      25.491  -0.587  54.063  1.00  0.00     0.033 A 
HETATM   18  C14 UNL     1      26.650   0.159  54.144  1.00  0.00     0.070 A 
HETATM   19  N2  UNL     1      27.808  -0.296  54.643  1.00  0.00    -0.241 NA
HETATM   20  C17 UNL     1      26.544   1.461  53.659  1.00  0.00     0.011 A 
HETATM   21  C15 UNL     1      28.904   0.507  54.686  1.00  0.00     0.233 A 
HETATM   22  N3  UNL     1      28.828   1.775  54.222  1.00  0.00    -0.253 NA
HETATM   23  C16 UNL     1      27.674   2.255  53.715  1.00  0.00     0.131 A 
HETATM   24  C18 UNL     1      25.387   1.994  53.133  1.00  0.00     0.024 A 
ENDBRANCH  14  15
ENDBRANCH  12  14
ENDBRANCH  11  12
ENDBRANCH   5  10
ENDBRANCH   1   4
TORSDOF 7
ENDMDL
MODEL 3
REMARK VINA RESULT:      -6.5      2.674      5.398
REMARK  7 active torsions:
REMARK  status: ('A' for Active; 'I' for Inactive)
REMARK    1  A    between atoms: C2_2  and  C3_4 
REMARK    2  A    between atoms: C3_4  and  C4_5 
REMARK    3  A    between atoms: C4_5  and  C5_6 
REMARK    4  A    between atoms: C7_9  and  C8_10 
REMARK    5  A    between atoms: C9_11  and  N1_12 
REMARK    6  A    between atoms: N1_12  and  C10_13 
REMARK    7  A    between atoms: C10_13  and  C11_14 
ROOT
HETATM    1  C5  UNL     1      24.218   3.402  49.331  1.00  0.00    -0.054 C 
HETATM    2  C6  UNL     1      25.395   3.751  49.300  1.00  0.00     0.010 C 
HETATM    3 CL1  UNL     1      27.052   4.248  49.251  1.00  0.00    -0.023 Cl
ENDROOT
BRANCH   1   4
HETATM    4  C4  UNL     1      22.833   3.016  49.378  1.00  0.00     0.003 C 
HETATM    5  C7  UNL     1      22.490   1.739  49.415  1.00  0.00     0.018 C 
BRANCH   4   6
HETATM    6  C3  UNL     1      21.889   4.162  49.380  1.00  0.00     0.117 C 
BRANCH   6   7
HETATM    7  C2  UNL     1      21.563   4.607  50.760  1.00  0.00     0.089 C 
HETATM    8  C1  UNL     1      20.454   4.323  51.434  1.00  0.00     0.052 C 
HETATM    9  F1  UNL     1      22.589   5.361  51.240  1.00  0.00    -0.211 F 
ENDBRANCH   6   7
ENDBRANCH   4   6
BRANCH   5  10
HETATM   10  C8  UNL     1      21.109   1.283  49.463  1.00  0.00     0.018 C 
HETATM   11  C9  UNL     1      20.686   0.534  50.475  1.00  0.00     0.083 C 
BRANCH  11  12
HETATM   12  N1  UNL     1      21.476   0.114  51.560  1.00  0.00    -0.395 N 
HETATM   13  H8  UNL     1      21.835  -0.830  51.271  1.00  0.00     0.159 HD
BRANCH  12  14
HETATM   14  C10 UNL     1      21.565   1.034  52.682  1.00  0.00     0.157 C 
BRANCH  14  15
HETATM   15  C11 UNL     1      22.987   1.295  52.995  1.00  0.00    -0.040 A 
HETATM   16  C12 UNL     1      23.539   2.570  52.962  1.00  0.00     0.011 A 
HETATM   17  C13 UNL     1      24.869   2.682  53.272  1.00  0.00     0.033 A 
HETATM   18  C14 UNL     1      25.697   1.632  53.614  1.00  0.00     0.070 A 
HETATM   19  N2  UNL     1      26.996   1.762  53.915  1.00  0.00    -0.241 NA
HETATM   20  C17 UNL     1      25.083   0.382  53.629  1.00  0.00     0.011 A 
HETATM   21  C15 UNL     1      27.742   0.673  54.242  1.00  0.00     0.233 A 
HETATM   22  N3  UNL     1      27.170  -0.552  54.263  1.00  0.00    -0.253 NA
HETATM   23  C16 UNL     1      25.864  -0.708  53.964  1.00  0.00     0.131 A 
HETATM   24  C18 UNL     1      23.753   0.175  53.330  1.00  0.00     0.024 A 
ENDBRANCH  14  15
ENDBRANCH  12  14
ENDBRANCH  11  12
ENDBRANCH   5  10
ENDBRANCH   1   4
TORSDOF 7
ENDMDL
MODEL 4
REMARK VINA RESULT:      -6.5      2.845      4.662
REMARK  7 active torsions:
REMARK  status: ('A' for Active; 'I' for Inactive)
REMARK    1  A    between atoms: C2_2  and  C3_4 
REMARK    2  A    between atoms: C3_4  and  C4_5 
REMARK    3  A    between atoms: C4_5  and  C5_6 
REMARK    4  A    between atoms: C7_9  and  C8_10 
REMARK    5  A    between atoms: C9_11  and  N1_12 
REMARK    6  A    between atoms: N1_12  and  C10_13 
REMARK    7  A    between atoms: C10_13  and  C11_14 
ROOT
HETATM    1  C5  UNL     1      21.982   0.787  51.025  1.00  0.00    -0.054 C 
HETATM    2  C6  UNL     1      21.772   1.159  49.874  1.00  0.00     0.010 C 
HETATM    3 CL1  UNL     1      21.470   1.680  48.251  1.00  0.00    -0.023 Cl
ENDROOT
BRANCH   1   4
HETATM    4  C4  UNL     1      22.204   0.356  52.379  1.00  0.00     0.003 C 
HETATM    5  C7  UNL     1      23.321  -0.270  52.712  1.00  0.00     0.018 C 
BRANCH   4   6
HETATM    6  C3  UNL     1      21.089   0.681  53.305  1.00  0.00     0.117 C 
BRANCH   6   7
HETATM    7  C2  UNL     1      20.016  -0.346  53.260  1.00  0.00     0.089 C 
HETATM    8  C1  UNL     1      18.924  -0.307  52.503  1.00  0.00     0.052 C 
HETATM    9  F1  UNL     1      20.324  -1.351  54.123  1.00  0.00    -0.211 F 
ENDBRANCH   6   7
ENDBRANCH   4   6
BRANCH   5  10
HETATM   10  C8  UNL     1      23.606  -0.731  54.063  1.00  0.00     0.018 C 
HETATM   11  C9  UNL     1      24.834  -0.630  54.560  1.00  0.00     0.083 C 
BRANCH  11  12
HETATM   12  N1  UNL     1      25.943  -0.097  53.880  1.00  0.00    -0.395 N 
HETATM   13  H8  UNL     1      26.340  -0.912  53.350  1.00  0.00     0.159 HD
BRANCH  12  14
HETATM   14  C10 UNL     1      26.202   1.319  54.088  1.00  0.00     0.157 C 
BRANCH  14  15
HETATM   15  C11 UNL     1      25.623   2.095  52.970  1.00  0.00    -0.040 A 
HETATM   16  C12 UNL     1      26.081   1.980  51.662  1.00  0.00     0.011 A 
HETATM   17  C13 UNL     1      25.463   2.752  50.715  1.00  0.00     0.033 A 
HETATM   18  C14 UNL     1      24.426   3.630  50.957  1.00  0.00     0.070 A 
HETATM   19  N2  UNL     1      23.834   4.377  50.015  1.00  0.00    -0.241 NA
HETATM   20  C17 UNL     1      24.014   3.698  52.286  1.00  0.00     0.011 A 
HETATM   21  C15 UNL     1      22.816   5.219  50.340  1.00  0.00     0.233 A 
HETATM   22  N3  UNL     1      22.397   5.304  51.624  1.00  0.00    -0.253 NA
HETATM   23  C16 UNL     1      22.978   4.562  52.588  1.00  0.00     0.131 A 
HETATM   24  C18 UNL     1      24.578   2.960  53.304  1.00  0.00     0.024 A 
ENDBRANCH  14  15
ENDBRANCH  12  14
ENDBRANCH  11  12
ENDBRANCH   5  10
ENDBRANCH   1   4
TORSDOF 7
ENDMDL
MODEL 5
REMARK VINA RESULT:      -6.5      3.386      6.796
REMARK  7 active torsions:
REMARK  status: ('A' for Active; 'I' for Inactive)
REMARK    1  A    between atoms: C2_2  and  C3_4 
REMARK    2  A    between atoms: C3_4  and  C4_5 
REMARK    3  A    between atoms: C4_5  and  C5_6 
REMARK    4  A    between atoms: C7_9  and  C8_10 
REMARK    5  A    between atoms: C9_11  and  N1_12 
REMARK    6  A    between atoms: N1_12  and  C10_13 
REMARK    7  A    between atoms: C10_13  and  C11_14 
ROOT
HETATM    1  C5  UNL     1      28.016   5.448  48.476  1.00  0.00    -0.054 C 
HETATM    2  C6  UNL     1      29.188   5.360  48.118  1.00  0.00     0.010 C 
HETATM    3 CL1  UNL     1      30.840   5.232  47.619  1.00  0.00    -0.023 Cl
ENDROOT
BRANCH   1   4
HETATM    4  C4  UNL     1      26.641   5.525  48.891  1.00  0.00     0.003 C 
HETATM    5  C7  UNL     1      25.966   4.427  49.190  1.00  0.00     0.018 C 
BRANCH   4   6
HETATM    6  C3  UNL     1      26.103   6.908  48.938  1.00  0.00     0.117 C 
BRANCH   6   7
HETATM    7  C2  UNL     1      25.617   7.358  47.608  1.00  0.00     0.089 C 
HETATM    8  C1  UNL     1      24.347   7.459  47.230  1.00  0.00     0.052 C 
HETATM    9  F1  UNL     1      26.686   7.658  46.820  1.00  0.00    -0.211 F 
ENDBRANCH   6   7
ENDBRANCH   4   6
BRANCH   5  10
HETATM   10  C8  UNL     1      24.574   4.436  49.616  1.00  0.00     0.018 C 
HETATM   11  C9  UNL     1      24.245   4.035  50.839  1.00  0.00     0.083 C 
BRANCH  11  12
HETATM   12  N1  UNL     1      25.149   3.579  51.814  1.00  0.00    -0.395 N 
HETATM   13  H8  UNL     1      25.918   4.294  51.812  1.00  0.00     0.159 HD
BRANCH  12  14
HETATM   14  C10 UNL     1      24.788   2.346  52.495  1.00  0.00     0.157 C 
BRANCH  14  15
HETATM   15  C11 UNL     1      26.006   1.540  52.735  1.00  0.00    -0.040 A 
HETATM   16  C12 UNL     1      27.234   2.114  53.044  1.00  0.00     0.011 A 
HETATM   17  C13 UNL     1      28.287   1.262  53.244  1.00  0.00     0.033 A 
HETATM   18  C14 UNL     1      28.223  -0.115  53.165  1.00  0.00     0.070 A 
HETATM   19  N2  UNL     1      29.266  -0.932  53.365  1.00  0.00    -0.241 NA
HETATM   20  C17 UNL     1      26.965  -0.626  52.853  1.00  0.00     0.011 A 
HETATM   21  C15 UNL     1      29.116  -2.280  53.267  1.00  0.00     0.233 A 
HETATM   22  N3  UNL     1      27.905  -2.802  52.965  1.00  0.00    -0.253 NA
HETATM   23  C16 UNL     1      26.841  -1.999  52.760  1.00  0.00     0.131 A 
HETATM   24  C18 UNL     1      25.851   0.155  52.634  1.00  0.00     0.024 A 
ENDBRANCH  14  15
ENDBRANCH  12  14
ENDBRANCH  11  12
ENDBRANCH   5  10
ENDBRANCH   1   4
TORSDOF 7
ENDMDL
MODEL 6
REMARK VINA RESULT:      -6.3      2.894      6.160
REMARK  7 active torsions:
REMARK  status: ('A' for Active; 'I' for Inactive)
REMARK    1  A    between atoms: C2_2  and  C3_4 
REMARK    2  A    between atoms: C3_4  and  C4_5 
REMARK    3  A    between atoms: C4_5  and  C5_6 
REMARK    4  A    between atoms: C7_9  and  C8_10 
REMARK    5  A    between atoms: C9_11  and  N1_12 
REMARK    6  A    between atoms: N1_12  and  C10_13 
REMARK    7  A    between atoms: C10_13  and  C11_14 
ROOT
HETATM    1  C5  UNL     1      25.744   5.011  49.358  1.00  0.00    -0.054 C 
HETATM    2  C6  UNL     1      26.855   5.230  48.884  1.00  0.00     0.010 C 
HETATM    3 CL1  UNL     1      28.419   5.543  48.211  1.00  0.00    -0.023 Cl
ENDROOT
BRANCH   1   4
HETATM    4  C4  UNL     1      24.440   4.781  49.918  1.00  0.00     0.003 C 
HETATM    5  C7  UNL     1      24.308   4.342  51.160  1.00  0.00     0.018 C 
BRANCH   4   6
HETATM    6  C3  UNL     1      23.323   5.078  48.987  1.00  0.00     0.117 C 
BRANCH   6   7
HETATM    7  C2  UNL     1      22.685   3.838  48.475  1.00  0.00     0.089 C 
HETATM    8  C1  UNL     1      21.410   3.696  48.129  1.00  0.00     0.052 C 
HETATM    9  F1  UNL     1      23.619   2.850  48.410  1.00  0.00    -0.211 F 
ENDBRANCH   6   7
ENDBRANCH   4   6
BRANCH   5  10
HETATM   10  C8  UNL     1      23.019   4.089  51.786  1.00  0.00     0.018 C 
HETATM   11  C9  UNL     1      22.620   2.843  52.018  1.00  0.00     0.083 C 
BRANCH  11  12
HETATM   12  N1  UNL     1      23.353   1.684  51.705  1.00  0.00    -0.395 N 
HETATM   13  H8  UNL     1      23.556   1.774  50.679  1.00  0.00     0.159 HD
BRANCH  12  14
HETATM   14  C10 UNL     1      23.600   0.766  52.805  1.00  0.00     0.157 C 
BRANCH  14  15
HETATM   15  C11 UNL     1      25.045   0.755  53.122  1.00  0.00    -0.040 A 
HETATM   16  C12 UNL     1      25.726   1.888  53.552  1.00  0.00     0.011 A 
HETATM   17  C13 UNL     1      27.063   1.750  53.814  1.00  0.00     0.033 A 
HETATM   18  C14 UNL     1      27.782   0.579  53.688  1.00  0.00     0.070 A 
HETATM   19  N2  UNL     1      29.091   0.464  53.951  1.00  0.00    -0.241 NA
HETATM   20  C17 UNL     1      27.042  -0.519  53.255  1.00  0.00     0.011 A 
HETATM   21  C15 UNL     1      29.723  -0.730  53.799  1.00  0.00     0.233 A 
HETATM   22  N3  UNL     1      29.028  -1.811  53.379  1.00  0.00    -0.253 NA
HETATM   23  C16 UNL     1      27.710  -1.720  53.109  1.00  0.00     0.131 A 
HETATM   24  C18 UNL     1      25.695  -0.473  52.966  1.00  0.00     0.024 A 
ENDBRANCH  14  15
ENDBRANCH  12  14
ENDBRANCH  11  12
ENDBRANCH   5  10
ENDBRANCH   1   4
TORSDOF 7
ENDMDL
MODEL 7
REMARK VINA RESULT:      -6.3      2.300      3.055
REMARK  7 active torsions:
REMARK  status: ('A' for Active; 'I' for Inactive)
REMARK    1  A    between atoms: C2_2  and  C3_4 
REMARK    2  A    between atoms: C3_4  and  C4_5 
REMARK    3  A    between atoms: C4_5  and  C5_6 
REMARK    4  A    between atoms: C7_9  and  C8_10 
REMARK    5  A    between atoms: C9_11  and  N1_12 
REMARK    6  A    between atoms: N1_12  and  C10_13 
REMARK    7  A    between atoms: C10_13  and  C11_14 
ROOT
HETATM    1  C5  UNL     1      24.724   1.559  52.042  1.00  0.00    -0.054 C 
HETATM    2  C6  UNL     1      24.895   2.397  51.160  1.00  0.00     0.010 C 
HETATM    3 CL1  UNL     1      25.130   3.575  49.914  1.00  0.00    -0.023 Cl
ENDROOT
BRANCH   1   4
HETATM    4  C4  UNL     1      24.499   0.586  53.076  1.00  0.00     0.003 C 
HETATM    5  C7  UNL     1      23.295   0.071  53.267  1.00  0.00     0.018 C 
BRANCH   4   6
HETATM    6  C3  UNL     1      25.714   0.248  53.860  1.00  0.00     0.117 C 
BRANCH   6   7
HETATM    7  C2  UNL     1      26.745  -0.418  53.021  1.00  0.00     0.089 C 
HETATM    8  C1  UNL     1      26.671  -1.644  52.514  1.00  0.00     0.052 C 
HETATM    9  F1  UNL     1      27.794   0.431  52.847  1.00  0.00    -0.211 F 
ENDBRANCH   6   7
ENDBRANCH   4   6
BRANCH   5  10
HETATM   10  C8  UNL     1      23.001  -0.916  54.295  1.00  0.00     0.018 C 
HETATM   11  C9  UNL     1      21.822  -0.916  54.907  1.00  0.00     0.083 C 
BRANCH  11  12
HETATM   12  N1  UNL     1      20.775  -0.013  54.651  1.00  0.00    -0.395 N 
HETATM   13  H8  UNL     1      20.786   0.639  55.474  1.00  0.00     0.159 HD
BRANCH  12  14
HETATM   14  C10 UNL     1      20.036  -0.222  53.417  1.00  0.00     0.157 C 
BRANCH  14  15
HETATM   15  C11 UNL     1      20.398   0.828  52.440  1.00  0.00    -0.040 A 
HETATM   16  C12 UNL     1      20.362   2.183  52.750  1.00  0.00     0.011 A 
HETATM   17  C13 UNL     1      20.720   3.058  51.760  1.00  0.00     0.033 A 
HETATM   18  C14 UNL     1      21.114   2.701  50.486  1.00  0.00     0.070 A 
HETATM   19  N2  UNL     1      21.462   3.574  49.531  1.00  0.00    -0.241 NA
HETATM   20  C17 UNL     1      21.130   1.330  50.241  1.00  0.00     0.011 A 
HETATM   21  C15 UNL     1      21.838   3.136  48.300  1.00  0.00     0.233 A 
HETATM   22  N3  UNL     1      21.862   1.810  48.035  1.00  0.00    -0.253 NA
HETATM   23  C16 UNL     1      21.516   0.913  48.981  1.00  0.00     0.131 A 
HETATM   24  C18 UNL     1      20.784   0.377  51.175  1.00  0.00     0.024 A 
ENDBRANCH  14  15
ENDBRANCH  12  14
ENDBRANCH  11  12
ENDBRANCH   5  10
ENDBRANCH   1   4
TORSDOF 7
ENDMDL
MODEL 8
REMARK VINA RESULT:      -6.2      2.918      5.895
REMARK  7 active torsions:
REMARK  status: ('A' for Active; 'I' for Inactive)
REMARK    1  A    between atoms: C2_2  and  C3_4 
REMARK    2  A    between atoms: C3_4  and  C4_5 
REMARK    3  A    between atoms: C4_5  and  C5_6 
REMARK    4  A    between atoms: C7_9  and  C8_10 
REMARK    5  A    between atoms: C9_11  and  N1_12 
REMARK    6  A    between atoms: N1_12  and  C10_13 
REMARK    7  A    between atoms: C10_13  and  C11_14 
ROOT
HETATM    1  C5  UNL     1      26.383   5.517  49.057  1.00  0.00    -0.054 C 
HETATM    2  C6  UNL     1      27.521   5.471  48.599  1.00  0.00     0.010 C 
HETATM    3 CL1  UNL     1      29.124   5.399  47.950  1.00  0.00    -0.023 Cl
ENDROOT
BRANCH   1   4
HETATM    4  C4  UNL     1      25.041   5.568  49.570  1.00  0.00     0.003 C 
HETATM    5  C7  UNL     1      24.817   5.821  50.850  1.00  0.00     0.018 C 
BRANCH   4   6
HETATM    6  C3  UNL     1      23.995   5.318  48.546  1.00  0.00     0.117 C 
BRANCH   6   7
HETATM    7  C2  UNL     1      23.229   4.076  48.831  1.00  0.00     0.089 C 
HETATM    8  C1  UNL     1      23.741   2.864  49.015  1.00  0.00     0.052 C 
HETATM    9  F1  UNL     1      21.901   4.371  48.877  1.00  0.00    -0.211 F 
ENDBRANCH   6   7
ENDBRANCH   4   6
BRANCH   5  10
HETATM   10  C8  UNL     1      23.485   5.887  51.431  1.00  0.00     0.018 C 
HETATM   11  C9  UNL     1      23.126   5.032  52.382  1.00  0.00     0.083 C 
BRANCH  11  12
HETATM   12  N1  UNL     1      23.942   4.017  52.912  1.00  0.00    -0.395 N 
HETATM   13  H8  UNL     1      24.740   4.532  53.360  1.00  0.00     0.159 HD
BRANCH  12  14
HETATM   14  C10 UNL     1      23.484   2.653  52.705  1.00  0.00     0.157 C 
BRANCH  14  15
HETATM   15  C11 UNL     1      24.570   1.710  53.053  1.00  0.00    -0.040 A 
HETATM   16  C12 UNL     1      24.349   0.349  53.235  1.00  0.00     0.011 A 
HETATM   17  C13 UNL     1      25.436  -0.421  53.555  1.00  0.00     0.033 A 
HETATM   18  C14 UNL     1      26.725   0.047  53.708  1.00  0.00     0.070 A 
HETATM   19  N2  UNL     1      27.776  -0.724  54.020  1.00  0.00    -0.241 NA
HETATM   20  C17 UNL     1      26.878   1.417  53.511  1.00  0.00     0.011 A 
HETATM   21  C15 UNL     1      29.015  -0.181  54.152  1.00  0.00     0.233 A 
HETATM   22  N3  UNL     1      29.192   1.148  53.967  1.00  0.00    -0.253 NA
HETATM   23  C16 UNL     1      28.149   1.943  53.651  1.00  0.00     0.131 A 
HETATM   24  C18 UNL     1      25.843   2.268  53.188  1.00  0.00     0.024 A 
ENDBRANCH  14  15
ENDBRANCH  12  14
ENDBRANCH  11  12
ENDBRANCH   5  10
ENDBRANCH   1   4
TORSDOF 7
ENDMDL
MODEL 9
REMARK VINA RESULT:      -6.1      3.426      6.618
REMARK  7 active torsions:
REMARK  status: ('A' for Active; 'I' for Inactive)
REMARK    1  A    between atoms: C2_2  and  C3_4 
REMARK    2  A    between atoms: C3_4  and  C4_5 
REMARK    3  A    between atoms: C4_5  and  C5_6 
REMARK    4  A    between atoms: C7_9  and  C8_10 
REMARK    5  A    between atoms: C9_11  and  N1_12 
REMARK    6  A    between atoms: N1_12  and  C10_13 
REMARK    7  A    between atoms: C10_13  and  C11_14 
ROOT
HETATM    1  C5  UNL     1      21.637   1.094  53.047  1.00  0.00    -0.054 C 
HETATM    2  C6  UNL     1      21.482   0.047  53.671  1.00  0.00     0.010 C 
HETATM    3 CL1  UNL     1      21.264  -1.424  54.556  1.00  0.00    -0.023 Cl
ENDROOT
BRANCH   1   4
HETATM    4  C4  UNL     1      21.796   2.328  52.326  1.00  0.00     0.003 C 
HETATM    5  C7  UNL     1      22.890   3.057  52.472  1.00  0.00     0.018 C 
BRANCH   4   6
HETATM    6  C3  UNL     1      20.647   2.665  51.448  1.00  0.00     0.117 C 
BRANCH   6   7
HETATM    7  C2  UNL     1      20.496   1.689  50.337  1.00  0.00     0.089 C 
HETATM    8  C1  UNL     1      19.419   0.953  50.080  1.00  0.00     0.052 C 
HETATM    9  F1  UNL     1      21.645   1.660  49.609  1.00  0.00    -0.211 F 
ENDBRANCH   6   7
ENDBRANCH   4   6
BRANCH   5  10
HETATM   10  C8  UNL     1      23.113   4.314  51.773  1.00  0.00     0.018 C 
HETATM   11  C9  UNL     1      23.824   4.339  50.651  1.00  0.00     0.083 C 
BRANCH  11  12
HETATM   12  N1  UNL     1      24.414   3.220  50.039  1.00  0.00    -0.395 N 
HETATM   13  H8  UNL     1      23.605   2.688  49.632  1.00  0.00     0.159 HD
BRANCH  12  14
HETATM   14  C10 UNL     1      25.862   3.126  50.135  1.00  0.00     0.157 C 
BRANCH  14  15
HETATM   15  C11 UNL     1      26.225   2.199  51.229  1.00  0.00    -0.040 A 
HETATM   16  C12 UNL     1      25.521   1.028  51.482  1.00  0.00     0.011 A 
HETATM   17  C13 UNL     1      25.955   0.252  52.524  1.00  0.00     0.033 A 
HETATM   18  C14 UNL     1      27.033   0.542  53.336  1.00  0.00     0.070 A 
HETATM   19  N2  UNL     1      27.444  -0.231  54.351  1.00  0.00    -0.241 NA
HETATM   20  C17 UNL     1      27.696   1.728  53.029  1.00  0.00     0.011 A 
HETATM   21  C15 UNL     1      28.518   0.129  55.102  1.00  0.00     0.233 A 
HETATM   22  N3  UNL     1      29.179   1.276  54.826  1.00  0.00    -0.253 NA
HETATM   23  C16 UNL     1      28.785   2.070  53.809  1.00  0.00     0.131 A 
HETATM   24  C18 UNL     1      27.330   2.570  52.001  1.00  0.00     0.024 A 
ENDBRANCH  14  15
ENDBRANCH  12  14
ENDBRANCH  11  12
ENDBRANCH   5  10
ENDBRANCH   1   4
TORSDOF 7
ENDMDL
