MODEL 1
REMARK VINA RESULT:      -8.2      0.000      0.000
REMARK  4 active torsions:
REMARK  status: ('A' for Active; 'I' for Inactive)
REMARK    1  A    between atoms: C6_6  and  C7_7 
REMARK    2  A    between atoms: C12_13  and  O1_14 
REMARK    3  A    between atoms: O1_14  and  C13_15 
REMARK    4  A    between atoms: C13_15  and  N2_16 
ROOT
HETATM    1  C7  UNL     1      25.524  -0.506  53.935  1.00  0.00     0.061 A 
HETATM    2  C8  UNL     1      24.709  -0.077  53.018  1.00  0.00     0.047 A 
HETATM    3  C9  UNL     1      23.258  -0.207  53.137  1.00  0.00     0.012 A 
HETATM    4  C10 UNL     1      22.402   0.217  52.226  1.00  0.00     0.106 A 
HETATM    5  N1  UNL     1      20.992   0.071  52.378  1.00  0.00    -0.341 N 
HETATM    6  C11 UNL     1      20.181   0.589  51.290  1.00  0.00     0.158 C 
HETATM    7  C12 UNL     1      20.461  -0.551  53.544  1.00  0.00     0.147 A 
HETATM    8  C14 UNL     1      21.241  -1.009  54.513  1.00  0.00     0.090 A 
HETATM    9  C15 UNL     1      22.677  -0.841  54.320  1.00  0.00     0.092 A 
HETATM   10  N3  UNL     1      23.507  -1.261  55.219  1.00  0.00    -0.174 NA
HETATM   11  N4  UNL     1      24.897  -1.110  55.055  1.00  0.00    -0.277 N 
HETATM   12  H17 UNL     1      25.448  -1.493  55.854  1.00  0.00     0.189 HD
ENDROOT
BRANCH   1  13
HETATM   13  C6  UNL     1      26.967  -0.381  53.825  1.00  0.00    -0.007 A 
HETATM   14  C5  UNL     1      27.749  -1.374  53.329  1.00  0.00     0.014 A 
HETATM   15  C4  UNL     1      29.123  -1.277  53.216  1.00  0.00     0.001 A 
HETATM   16  C3  UNL     1      29.777  -0.121  53.617  1.00  0.00     0.007 A 
HETATM   17  C2  UNL     1      29.000   0.908  54.128  1.00  0.00    -0.061 A 
HETATM   18  C1  UNL     1      29.692   2.171  54.570  1.00  0.00     0.048 C 
HETATM   19  C16 UNL     1      27.643   0.749  54.214  1.00  0.00     0.020 A 
ENDBRANCH   1  13
BRANCH   7  20
HETATM   20  O1  UNL     1      19.080  -0.652  53.610  1.00  0.00    -0.306 OA
BRANCH  20  21
HETATM   21  C13 UNL     1      18.348  -1.842  53.509  1.00  0.00     0.443 C 
BRANCH  21  22
HETATM   22  N2  UNL     1      16.936  -1.459  53.482  1.00  0.00     0.101 N 
HETATM   23  H14 UNL     1      16.297  -2.285  53.488  1.00  0.00     0.315 HD
HETATM   24  H15 UNL     1      16.691  -0.788  54.244  1.00  0.00     0.315 HD
ENDBRANCH  21  22
ENDBRANCH  20  21
ENDBRANCH   7  20
TORSDOF 4
ENDMDL
MODEL 2
REMARK VINA RESULT:      -8.1      0.876      1.559
REMARK  4 active torsions:
REMARK  status: ('A' for Active; 'I' for Inactive)
REMARK    1  A    between atoms: C6_6  and  C7_7 
REMARK    2  A    between atoms: C12_13  and  O1_14 
REMARK    3  A    between atoms: O1_14  and  C13_15 
REMARK    4  A    between atoms: C13_15  and  N2_16 
ROOT
HETATM    1  C7  UNL     1      24.895   0.065  53.771  1.00  0.00     0.061 A 
HETATM    2  C8  UNL     1      23.984   0.494  52.949  1.00  0.00     0.047 A 
HETATM    3  C9  UNL     1      22.581   0.098  53.060  1.00  0.00     0.012 A 
HETATM    4  C10 UNL     1      21.631   0.514  52.244  1.00  0.00     0.106 A 
HETATM    5  N1  UNL     1      20.272   0.106  52.383  1.00  0.00    -0.341 N 
HETATM    6  C11 UNL     1      19.343   0.650  51.408  1.00  0.00     0.158 C 
HETATM    7  C12 UNL     1      19.899  -0.783  53.433  1.00  0.00     0.147 A 
HETATM    8  C14 UNL     1      20.783  -1.254  54.301  1.00  0.00     0.090 A 
HETATM    9  C15 UNL     1      22.161  -0.813  54.124  1.00  0.00     0.092 A 
HETATM   10  N3  UNL     1      23.085  -1.227  54.930  1.00  0.00    -0.174 NA
HETATM   11  N4  UNL     1      24.423  -0.815  54.780  1.00  0.00    -0.277 N 
HETATM   12  H17 UNL     1      25.061  -1.224  55.496  1.00  0.00     0.189 HD
ENDROOT
BRANCH   1  13
HETATM   13  C6  UNL     1      26.291   0.452  53.669  1.00  0.00    -0.007 A 
HETATM   14  C5  UNL     1      26.683   1.749  53.588  1.00  0.00     0.014 A 
HETATM   15  C4  UNL     1      28.005   2.142  53.490  1.00  0.00     0.001 A 
HETATM   16  C3  UNL     1      29.015   1.191  53.472  1.00  0.00     0.007 A 
HETATM   17  C2  UNL     1      28.640  -0.142  53.554  1.00  0.00    -0.061 A 
HETATM   18  C1  UNL     1      29.723  -1.188  53.535  1.00  0.00     0.048 C 
HETATM   19  C16 UNL     1      27.313  -0.464  53.649  1.00  0.00     0.020 A 
ENDBRANCH   1  13
BRANCH   7  20
HETATM   20  O1  UNL     1      18.558  -1.128  53.495  1.00  0.00    -0.306 OA
BRANCH  20  21
HETATM   21  C13 UNL     1      18.062  -2.427  53.666  1.00  0.00     0.443 C 
BRANCH  21  22
HETATM   22  N2  UNL     1      16.672  -2.403  53.212  1.00  0.00     0.101 N 
HETATM   23  H14 UNL     1      16.577  -2.647  52.201  1.00  0.00     0.315 HD
HETATM   24  H15 UNL     1      16.049  -3.000  53.803  1.00  0.00     0.315 HD
ENDBRANCH  21  22
ENDBRANCH  20  21
ENDBRANCH   7  20
TORSDOF 4
ENDMDL
MODEL 3
REMARK VINA RESULT:      -7.8      4.801      5.907
REMARK  4 active torsions:
REMARK  status: ('A' for Active; 'I' for Inactive)
REMARK    1  A    between atoms: C6_6  and  C7_7 
REMARK    2  A    between atoms: C12_13  and  O1_14 
REMARK    3  A    between atoms: O1_14  and  C13_15 
REMARK    4  A    between atoms: C13_15  and  N2_16 
ROOT
HETATM    1  C7  UNL     1      25.085   3.685  50.108  1.00  0.00     0.061 A 
HETATM    2  C8  UNL     1      25.637   2.916  50.999  1.00  0.00     0.047 A 
HETATM    3  C9  UNL     1      24.886   1.890  51.721  1.00  0.00     0.012 A 
HETATM    4  C10 UNL     1      25.413   1.093  52.630  1.00  0.00     0.106 A 
HETATM    5  N1  UNL     1      24.647   0.102  53.313  1.00  0.00    -0.341 N 
HETATM    6  C11 UNL     1      25.370  -0.698  54.286  1.00  0.00     0.158 C 
HETATM    7  C12 UNL     1      23.261  -0.053  53.023  1.00  0.00     0.147 A 
HETATM    8  C14 UNL     1      22.643   0.702  52.125  1.00  0.00     0.090 A 
HETATM    9  C15 UNL     1      23.461   1.702  51.449  1.00  0.00     0.092 A 
HETATM   10  N3  UNL     1      22.934   2.479  50.559  1.00  0.00    -0.174 NA
HETATM   11  N4  UNL     1      23.702   3.453  49.893  1.00  0.00    -0.277 N 
HETATM   12  H17 UNL     1      23.152   4.008  49.203  1.00  0.00     0.189 HD
ENDROOT
BRANCH   1  13
HETATM   13  C6  UNL     1      25.824   4.708  49.387  1.00  0.00    -0.007 A 
HETATM   14  C5  UNL     1      25.242   5.852  48.947  1.00  0.00     0.014 A 
HETATM   15  C4  UNL     1      25.924   6.839  48.260  1.00  0.00     0.001 A 
HETATM   16  C3  UNL     1      27.275   6.690  47.984  1.00  0.00     0.007 A 
HETATM   17  C2  UNL     1      27.893   5.528  48.423  1.00  0.00    -0.061 A 
HETATM   18  C1  UNL     1      29.360   5.348  48.133  1.00  0.00     0.048 C 
HETATM   19  C16 UNL     1      27.160   4.590  49.099  1.00  0.00     0.020 A 
ENDBRANCH   1  13
BRANCH   7  20
HETATM   20  O1  UNL     1      22.594  -1.038  53.733  1.00  0.00    -0.306 OA
BRANCH  20  21
HETATM   21  C13 UNL     1      21.690  -0.812  54.780  1.00  0.00     0.443 C 
BRANCH  21  22
HETATM   22  N2  UNL     1      20.369  -1.185  54.276  1.00  0.00     0.101 N 
HETATM   23  H14 UNL     1      20.008  -0.512  53.563  1.00  0.00     0.315 HD
HETATM   24  H15 UNL     1      20.342  -2.165  53.916  1.00  0.00     0.315 HD
ENDBRANCH  21  22
ENDBRANCH  20  21
ENDBRANCH   7  20
TORSDOF 4
ENDMDL
MODEL 4
REMARK VINA RESULT:      -7.8      2.750      7.818
REMARK  4 active torsions:
REMARK  status: ('A' for Active; 'I' for Inactive)
REMARK    1  A    between atoms: C6_6  and  C7_7 
REMARK    2  A    between atoms: C12_13  and  O1_14 
REMARK    3  A    between atoms: O1_14  and  C13_15 
REMARK    4  A    between atoms: C13_15  and  N2_16 
ROOT
HETATM    1  C7  UNL     1      21.735  -0.349  53.272  1.00  0.00     0.061 A 
HETATM    2  C8  UNL     1      22.608   0.410  52.679  1.00  0.00     0.047 A 
HETATM    3  C9  UNL     1      24.005   0.477  53.103  1.00  0.00     0.012 A 
HETATM    4  C10 UNL     1      24.916   1.235  52.524  1.00  0.00     0.106 A 
HETATM    5  N1  UNL     1      26.271   1.274  52.967  1.00  0.00    -0.341 N 
HETATM    6  C11 UNL     1      27.155   2.158  52.228  1.00  0.00     0.158 C 
HETATM    7  C12 UNL     1      26.683   0.475  54.073  1.00  0.00     0.147 A 
HETATM    8  C14 UNL     1      25.839  -0.318  54.718  1.00  0.00     0.090 A 
HETATM    9  C15 UNL     1      24.463  -0.329  54.235  1.00  0.00     0.092 A 
HETATM   10  N3  UNL     1      23.578  -1.077  54.810  1.00  0.00    -0.174 NA
HETATM   11  N4  UNL     1      22.244  -1.104  54.361  1.00  0.00    -0.277 N 
HETATM   12  H17 UNL     1      21.639  -1.749  54.914  1.00  0.00     0.189 HD
ENDROOT
BRANCH   1  13
HETATM   13  C6  UNL     1      20.345  -0.422  52.858  1.00  0.00    -0.007 A 
HETATM   14  C5  UNL     1      19.410  -1.109  53.563  1.00  0.00     0.014 A 
HETATM   15  C4  UNL     1      18.082  -1.192  53.188  1.00  0.00     0.001 A 
HETATM   16  C3  UNL     1      17.641  -0.554  52.038  1.00  0.00     0.007 A 
HETATM   17  C2  UNL     1      18.578   0.154  51.300  1.00  0.00    -0.061 A 
HETATM   18  C1  UNL     1      18.118   0.853  50.047  1.00  0.00     0.048 C 
HETATM   19  C16 UNL     1      19.878   0.197  51.726  1.00  0.00     0.020 A 
ENDBRANCH   1  13
BRANCH   7  20
HETATM   20  O1  UNL     1      28.016   0.574  54.437  1.00  0.00    -0.306 OA
BRANCH  20  21
HETATM   21  C13 UNL     1      29.009  -0.373  54.148  1.00  0.00     0.443 C 
BRANCH  21  22
HETATM   22  N2  UNL     1      30.087   0.351  53.474  1.00  0.00     0.101 N 
HETATM   23  H14 UNL     1      29.754   0.879  52.637  1.00  0.00     0.315 HD
HETATM   24  H15 UNL     1      30.616   0.974  54.125  1.00  0.00     0.315 HD
ENDBRANCH  21  22
ENDBRANCH  20  21
ENDBRANCH   7  20
TORSDOF 4
ENDMDL
MODEL 5
REMARK VINA RESULT:      -7.7      5.006      5.693
REMARK  4 active torsions:
REMARK  status: ('A' for Active; 'I' for Inactive)
REMARK    1  A    between atoms: C6_6  and  C7_7 
REMARK    2  A    between atoms: C12_13  and  O1_14 
REMARK    3  A    between atoms: O1_14  and  C13_15 
REMARK    4  A    between atoms: C13_15  and  N2_16 
ROOT
HETATM    1  C7  UNL     1      25.621   3.779  50.171  1.00  0.00     0.061 A 
HETATM    2  C8  UNL     1      24.410   3.365  49.937  1.00  0.00     0.047 A 
HETATM    3  C9  UNL     1      23.766   2.331  50.746  1.00  0.00     0.012 A 
HETATM    4  C10 UNL     1      22.541   1.889  50.537  1.00  0.00     0.106 A 
HETATM    5  N1  UNL     1      21.946   0.878  51.348  1.00  0.00    -0.341 N 
HETATM    6  C11 UNL     1      20.590   0.497  50.993  1.00  0.00     0.158 C 
HETATM    7  C12 UNL     1      22.679   0.308  52.429  1.00  0.00     0.147 A 
HETATM    8  C14 UNL     1      23.917   0.688  52.715  1.00  0.00     0.090 A 
HETATM    9  C15 UNL     1      24.489   1.723  51.863  1.00  0.00     0.092 A 
HETATM   10  N3  UNL     1      25.691   2.150  52.076  1.00  0.00    -0.174 NA
HETATM   11  N4  UNL     1      26.265   3.149  51.267  1.00  0.00    -0.277 N 
HETATM   12  H17 UNL     1      27.238   3.397  51.550  1.00  0.00     0.189 HD
ENDROOT
BRANCH   1  13
HETATM   13  C6  UNL     1      26.268   4.805  49.373  1.00  0.00    -0.007 A 
HETATM   14  C5  UNL     1      25.604   5.893  48.908  1.00  0.00     0.014 A 
HETATM   15  C4  UNL     1      26.199   6.882  48.147  1.00  0.00     0.001 A 
HETATM   16  C3  UNL     1      27.544   6.796  47.820  1.00  0.00     0.007 A 
HETATM   17  C2  UNL     1      28.245   5.692  48.283  1.00  0.00    -0.061 A 
HETATM   18  C1  UNL     1      29.707   5.581  47.937  1.00  0.00     0.048 C 
HETATM   19  C16 UNL     1      27.597   4.748  49.032  1.00  0.00     0.020 A 
ENDBRANCH   1  13
BRANCH   7  20
HETATM   20  O1  UNL     1      22.026  -0.668  53.164  1.00  0.00    -0.306 OA
BRANCH  20  21
HETATM   21  C13 UNL     1      21.853  -0.657  54.555  1.00  0.00     0.443 C 
BRANCH  21  22
HETATM   22  N2  UNL     1      20.634   0.109  54.815  1.00  0.00     0.101 N 
HETATM   23  H14 UNL     1      19.980  -0.387  55.461  1.00  0.00     0.315 HD
HETATM   24  H15 UNL     1      20.836   1.076  55.154  1.00  0.00     0.315 HD
ENDBRANCH  21  22
ENDBRANCH  20  21
ENDBRANCH   7  20
TORSDOF 4
ENDMDL
MODEL 6
REMARK VINA RESULT:      -7.6      2.512      3.423
REMARK  4 active torsions:
REMARK  status: ('A' for Active; 'I' for Inactive)
REMARK    1  A    between atoms: C6_6  and  C7_7 
REMARK    2  A    between atoms: C12_13  and  O1_14 
REMARK    3  A    between atoms: O1_14  and  C13_15 
REMARK    4  A    between atoms: C13_15  and  N2_16 
ROOT
HETATM    1  C7  UNL     1      25.780   1.302  53.047  1.00  0.00     0.061 A 
HETATM    2  C8  UNL     1      24.680   0.612  53.093  1.00  0.00     0.047 A 
HETATM    3  C9  UNL     1      23.365   1.220  52.900  1.00  0.00     0.012 A 
HETATM    4  C10 UNL     1      22.229   0.550  52.939  1.00  0.00     0.106 A 
HETATM    5  N1  UNL     1      20.964   1.179  52.746  1.00  0.00    -0.341 N 
HETATM    6  C11 UNL     1      19.805   0.307  52.819  1.00  0.00     0.158 C 
HETATM    7  C12 UNL     1      20.895   2.581  52.500  1.00  0.00     0.147 A 
HETATM    8  C14 UNL     1      21.982   3.337  52.443  1.00  0.00     0.090 A 
HETATM    9  C15 UNL     1      23.255   2.656  52.645  1.00  0.00     0.092 A 
HETATM   10  N3  UNL     1      24.363   3.323  52.604  1.00  0.00    -0.174 NA
HETATM   11  N4  UNL     1      25.605   2.689  52.797  1.00  0.00    -0.277 N 
HETATM   12  H17 UNL     1      26.414   3.343  52.738  1.00  0.00     0.189 HD
ENDROOT
BRANCH   1  13
HETATM   13  C6  UNL     1      27.091   0.706  53.237  1.00  0.00    -0.007 A 
HETATM   14  C5  UNL     1      28.176   1.435  53.604  1.00  0.00     0.014 A 
HETATM   15  C4  UNL     1      29.433   0.890  53.791  1.00  0.00     0.001 A 
HETATM   16  C3  UNL     1      29.638  -0.469  53.605  1.00  0.00     0.007 A 
HETATM   17  C2  UNL     1      28.545  -1.235  53.230  1.00  0.00    -0.061 A 
HETATM   18  C1  UNL     1      28.748  -2.713  53.023  1.00  0.00     0.048 C 
HETATM   19  C16 UNL     1      27.326  -0.634  53.061  1.00  0.00     0.020 A 
ENDBRANCH   1  13
BRANCH   7  20
HETATM   20  O1  UNL     1      19.627   3.110  52.325  1.00  0.00    -0.306 OA
BRANCH  20  21
HETATM   21  C13 UNL     1      19.125   3.635  51.126  1.00  0.00     0.443 C 
BRANCH  21  22
HETATM   22  N2  UNL     1      17.677   3.756  51.301  1.00  0.00     0.101 N 
HETATM   23  H14 UNL     1      17.262   4.499  50.695  1.00  0.00     0.315 HD
HETATM   24  H15 UNL     1      17.183   2.845  51.171  1.00  0.00     0.315 HD
ENDBRANCH  21  22
ENDBRANCH  20  21
ENDBRANCH   7  20
TORSDOF 4
ENDMDL
MODEL 7
REMARK VINA RESULT:      -7.6      1.885      2.964
REMARK  4 active torsions:
REMARK  status: ('A' for Active; 'I' for Inactive)
REMARK    1  A    between atoms: C6_6  and  C7_7 
REMARK    2  A    between atoms: C12_13  and  O1_14 
REMARK    3  A    between atoms: O1_14  and  C13_15 
REMARK    4  A    between atoms: C13_15  and  N2_16 
ROOT
HETATM    1  C7  UNL     1      25.366   0.888  52.623  1.00  0.00     0.061 A 
HETATM    2  C8  UNL     1      24.432   0.212  53.223  1.00  0.00     0.047 A 
HETATM    3  C9  UNL     1      23.032   0.270  52.804  1.00  0.00     0.012 A 
HETATM    4  C10 UNL     1      22.059  -0.401  53.389  1.00  0.00     0.106 A 
HETATM    5  N1  UNL     1      20.704  -0.318  52.952  1.00  0.00    -0.341 N 
HETATM    6  C11 UNL     1      19.747  -1.118  53.697  1.00  0.00     0.158 C 
HETATM    7  C12 UNL     1      20.361   0.513  51.846  1.00  0.00     0.147 A 
HETATM    8  C14 UNL     1      21.270   1.226  51.196  1.00  0.00     0.090 A 
HETATM    9  C15 UNL     1      22.643   1.113  51.674  1.00  0.00     0.092 A 
HETATM   10  N3  UNL     1      23.589   1.776  51.093  1.00  0.00    -0.174 NA
HETATM   11  N4  UNL     1      24.923   1.685  51.536  1.00  0.00    -0.277 N 
HETATM   12  H17 UNL     1      25.581   2.271  50.979  1.00  0.00     0.189 HD
ENDROOT
BRANCH   1  13
HETATM   13  C6  UNL     1      26.759   0.836  53.032  1.00  0.00    -0.007 A 
HETATM   14  C5  UNL     1      27.447   1.941  53.417  1.00  0.00     0.014 A 
HETATM   15  C4  UNL     1      28.772   1.916  53.810  1.00  0.00     0.001 A 
HETATM   16  C3  UNL     1      29.472   0.718  53.827  1.00  0.00     0.007 A 
HETATM   17  C2  UNL     1      28.791  -0.426  53.437  1.00  0.00    -0.061 A 
HETATM   18  C1  UNL     1      29.535  -1.736  53.448  1.00  0.00     0.048 C 
HETATM   19  C16 UNL     1      27.479  -0.333  53.059  1.00  0.00     0.020 A 
ENDBRANCH   1  13
BRANCH   7  20
HETATM   20  O1  UNL     1      19.023   0.535  51.489  1.00  0.00    -0.306 OA
BRANCH  20  21
HETATM   21  C13 UNL     1      18.448   1.397  50.545  1.00  0.00     0.443 C 
BRANCH  21  22
HETATM   22  N2  UNL     1      17.805   0.546  49.544  1.00  0.00     0.101 N 
HETATM   23  H14 UNL     1      18.457   0.267  48.778  1.00  0.00     0.315 HD
HETATM   24  H15 UNL     1      17.344  -0.290  49.968  1.00  0.00     0.315 HD
ENDBRANCH  21  22
ENDBRANCH  20  21
ENDBRANCH   7  20
TORSDOF 4
ENDMDL
MODEL 8
REMARK VINA RESULT:      -7.4      5.358      7.600
REMARK  4 active torsions:
REMARK  status: ('A' for Active; 'I' for Inactive)
REMARK    1  A    between atoms: C6_6  and  C7_7 
REMARK    2  A    between atoms: C12_13  and  O1_14 
REMARK    3  A    between atoms: O1_14  and  C13_15 
REMARK    4  A    between atoms: C13_15  and  N2_16 
ROOT
HETATM    1  C7  UNL     1      24.881   4.257  51.250  1.00  0.00     0.061 A 
HETATM    2  C8  UNL     1      24.362   3.394  52.071  1.00  0.00     0.047 A 
HETATM    3  C9  UNL     1      25.029   2.139  52.413  1.00  0.00     0.012 A 
HETATM    4  C10 UNL     1      24.532   1.241  53.242  1.00  0.00     0.106 A 
HETATM    5  N1  UNL     1      25.213   0.028  53.552  1.00  0.00    -0.341 N 
HETATM    6  C11 UNL     1      24.536  -0.860  54.481  1.00  0.00     0.158 C 
HETATM    7  C12 UNL     1      26.479  -0.250  52.960  1.00  0.00     0.147 A 
HETATM    8  C14 UNL     1      27.059   0.591  52.115  1.00  0.00     0.090 A 
HETATM    9  C15 UNL     1      26.329   1.820  51.824  1.00  0.00     0.092 A 
HETATM   10  N3  UNL     1      26.827   2.694  51.011  1.00  0.00    -0.174 NA
HETATM   11  N4  UNL     1      26.142   3.888  50.714  1.00  0.00    -0.277 N 
HETATM   12  H17 UNL     1      26.656   4.500  50.044  1.00  0.00     0.189 HD
ENDROOT
BRANCH   1  13
HETATM   13  C6  UNL     1      24.225   5.506  50.903  1.00  0.00    -0.007 A 
HETATM   14  C5  UNL     1      22.879   5.665  50.975  1.00  0.00     0.014 A 
HETATM   15  C4  UNL     1      22.233   6.844  50.650  1.00  0.00     0.001 A 
HETATM   16  C3  UNL     1      22.962   7.945  50.226  1.00  0.00     0.007 A 
HETATM   17  C2  UNL     1      24.339   7.807  50.144  1.00  0.00    -0.061 A 
HETATM   18  C1  UNL     1      25.148   8.992  49.684  1.00  0.00     0.048 C 
HETATM   19  C16 UNL     1      24.918   6.613  50.480  1.00  0.00     0.020 A 
ENDBRANCH   1  13
BRANCH   7  20
HETATM   20  O1  UNL     1      27.071  -1.451  53.316  1.00  0.00    -0.306 OA
BRANCH  20  21
HETATM   21  C13 UNL     1      28.429  -1.762  53.169  1.00  0.00     0.443 C 
BRANCH  21  22
HETATM   22  N2  UNL     1      28.518  -3.222  53.119  1.00  0.00     0.101 N 
HETATM   23  H14 UNL     1      29.480  -3.572  53.323  1.00  0.00     0.315 HD
HETATM   24  H15 UNL     1      27.811  -3.684  53.734  1.00  0.00     0.315 HD
ENDBRANCH  21  22
ENDBRANCH  20  21
ENDBRANCH   7  20
TORSDOF 4
ENDMDL
MODEL 9
REMARK VINA RESULT:      -7.1      6.363      8.723
REMARK  4 active torsions:
REMARK  status: ('A' for Active; 'I' for Inactive)
REMARK    1  A    between atoms: C6_6  and  C7_7 
REMARK    2  A    between atoms: C12_13  and  O1_14 
REMARK    3  A    between atoms: O1_14  and  C13_15 
REMARK    4  A    between atoms: C13_15  and  N2_16 
ROOT
HETATM    1  C7  UNL     1      23.681   3.170  51.312  1.00  0.00     0.061 A 
HETATM    2  C8  UNL     1      24.745   3.238  50.569  1.00  0.00     0.047 A 
HETATM    3  C9  UNL     1      25.334   4.511  50.158  1.00  0.00     0.012 A 
HETATM    4  C10 UNL     1      26.413   4.617  49.406  1.00  0.00     0.106 A 
HETATM    5  N1  UNL     1      26.958   5.879  49.026  1.00  0.00    -0.341 N 
HETATM    6  C11 UNL     1      28.149   5.830  48.195  1.00  0.00     0.158 C 
HETATM    7  C12 UNL     1      26.335   7.084  49.460  1.00  0.00     0.147 A 
HETATM    8  C14 UNL     1      25.248   7.079  50.218  1.00  0.00     0.090 A 
HETATM    9  C15 UNL     1      24.722   5.769  50.584  1.00  0.00     0.092 A 
HETATM   10  N3  UNL     1      23.664   5.678  51.323  1.00  0.00    -0.174 NA
HETATM   11  N4  UNL     1      23.136   4.425  51.690  1.00  0.00    -0.277 N 
HETATM   12  H17 UNL     1      22.283   4.498  52.285  1.00  0.00     0.189 HD
ENDROOT
BRANCH   1  13
HETATM   13  C6  UNL     1      23.089   1.910  51.724  1.00  0.00    -0.007 A 
HETATM   14  C5  UNL     1      21.984   1.394  51.126  1.00  0.00     0.014 A 
HETATM   15  C4  UNL     1      21.404   0.197  51.502  1.00  0.00     0.001 A 
HETATM   16  C3  UNL     1      21.947  -0.547  52.538  1.00  0.00     0.007 A 
HETATM   17  C2  UNL     1      23.076  -0.041  53.165  1.00  0.00    -0.061 A 
HETATM   18  C1  UNL     1      23.681  -0.835  54.293  1.00  0.00     0.048 C 
HETATM   19  C16 UNL     1      23.603   1.151  52.745  1.00  0.00     0.020 A 
ENDBRANCH   1  13
BRANCH   7  20
HETATM   20  O1  UNL     1      26.931   8.264  49.044  1.00  0.00    -0.306 OA
BRANCH  20  21
HETATM   21  C13 UNL     1      26.851   9.493  49.713  1.00  0.00     0.443 C 
BRANCH  21  22
HETATM   22  N2  UNL     1      27.749   9.398  50.864  1.00  0.00     0.101 N 
HETATM   23  H14 UNL     1      27.376   9.891  51.705  1.00  0.00     0.315 HD
HETATM   24  H15 UNL     1      28.005   8.411  51.089  1.00  0.00     0.315 HD
ENDBRANCH  21  22
ENDBRANCH  20  21
ENDBRANCH   7  20
TORSDOF 4
ENDMDL
