MODEL 1
REMARK VINA RESULT:      -8.6      0.000      0.000
REMARK  4 active torsions:
REMARK  status: ('A' for Active; 'I' for Inactive)
REMARK    1  A    between atoms: O1_2  and  C2_3 
REMARK    2  A    between atoms: C8_11  and  N2_12 
REMARK    3  A    between atoms: N2_12  and  C9_13 
REMARK    4  A    between atoms: C14_18  and  N3_19 
ROOT
HETATM    1  C2  UNL     1      18.148  -0.194  51.442  1.00  0.00     0.081 A 
HETATM    2  C3  UNL     1      17.289  -0.838  52.245  1.00  0.00     0.040 A 
HETATM    3  C4  UNL     1      18.059  -1.240  53.444  1.00  0.00     0.041 A 
HETATM    4  C5  UNL     1      19.343  -0.870  53.403  1.00  0.00     0.092 A 
HETATM    5  O2  UNL     1      20.394  -1.034  54.289  1.00  0.00    -0.277 OA
HETATM    6  C6  UNL     1      21.743  -0.791  54.083  1.00  0.00     0.249 A 
HETATM    7  N1  UNL     1      22.440  -1.318  55.021  1.00  0.00    -0.244 NA
HETATM    8  C7  UNL     1      23.856  -1.264  55.125  1.00  0.00     0.211 A 
HETATM    9  C8  UNL     1      24.485  -0.500  53.998  1.00  0.00     0.045 A 
HETATM   10  C15 UNL     1      23.718   0.038  53.033  1.00  0.00     0.121 A 
HETATM   11  N4  UNL     1      22.280  -0.058  52.985  1.00  0.00    -0.316 N 
HETATM   12  C16 UNL     1      21.811   0.621  51.819  1.00  0.00     0.160 C 
HETATM   13  C17 UNL     1      20.401   0.410  51.472  1.00  0.00     0.010 C 
HETATM   14  C18 UNL     1      19.429  -0.192  52.120  1.00  0.00     0.029 A 
ENDROOT
BRANCH   9  15
HETATM   15  N2  UNL     1      25.845  -0.293  53.885  1.00  0.00    -0.355 N 
HETATM   16  H8  UNL     1      25.621   0.761  53.842  1.00  0.00     0.166 HD
BRANCH  15  17
HETATM   17  C9  UNL     1      27.215  -0.041  53.769  1.00  0.00     0.059 A 
HETATM   18  C10 UNL     1      28.071  -1.139  53.581  1.00  0.00     0.032 A 
HETATM   19  C11 UNL     1      29.443  -0.952  53.469  1.00  0.00     0.002 A 
HETATM   20  C12 UNL     1      29.811   0.371  53.562  1.00  0.00     0.002 A 
HETATM   21  C13 UNL     1      29.042   1.497  53.746  1.00  0.00     0.031 A 
HETATM   22  C14 UNL     1      27.686   1.244  53.850  1.00  0.00     0.052 A 
BRANCH  22  23
HETATM   23  N3  UNL     1      26.851   2.378  54.041  1.00  0.00    -0.397 N 
HETATM   24  H13 UNL     1      26.108   2.442  53.299  1.00  0.00     0.156 HD
HETATM   25  H14 UNL     1      26.824   3.141  54.749  1.00  0.00     0.156 HD
ENDBRANCH  22  23
ENDBRANCH  15  17
ENDBRANCH   9  15
BRANCH   1  26
HETATM   26  O1  UNL     1      17.517   0.210  50.312  1.00  0.00    -0.355 OA
HETATM   27  C1  UNL     1      16.504  -0.438  49.616  1.00  0.00     0.210 C 
ENDBRANCH   1  26
TORSDOF 4
ENDMDL
MODEL 2
REMARK VINA RESULT:      -8.3      2.651      8.782
REMARK  4 active torsions:
REMARK  status: ('A' for Active; 'I' for Inactive)
REMARK    1  A    between atoms: O1_2  and  C2_3 
REMARK    2  A    between atoms: C8_11  and  N2_12 
REMARK    3  A    between atoms: N2_12  and  C9_13 
REMARK    4  A    between atoms: C14_18  and  N3_19 
ROOT
HETATM    1  C2  UNL     1      28.238   0.147  54.045  1.00  0.00     0.081 A 
HETATM    2  C3  UNL     1      28.924   1.295  53.957  1.00  0.00     0.040 A 
HETATM    3  C4  UNL     1      27.934   2.352  53.650  1.00  0.00     0.041 A 
HETATM    4  C5  UNL     1      26.682   1.896  53.547  1.00  0.00     0.092 A 
HETATM    5  O2  UNL     1      25.476   2.522  53.280  1.00  0.00    -0.277 OA
HETATM    6  C6  UNL     1      24.248   1.946  52.996  1.00  0.00     0.249 A 
HETATM    7  N1  UNL     1      23.438   2.825  52.532  1.00  0.00    -0.244 NA
HETATM    8  C7  UNL     1      22.096   2.581  52.137  1.00  0.00     0.211 A 
HETATM    9  C8  UNL     1      21.693   1.149  52.324  1.00  0.00     0.045 A 
HETATM   10  C15 UNL     1      22.574   0.257  52.815  1.00  0.00     0.121 A 
HETATM   11  N4  UNL     1      23.929   0.571  53.194  1.00  0.00    -0.316 N 
HETATM   12  C16 UNL     1      24.564  -0.619  53.661  1.00  0.00     0.160 C 
HETATM   13  C17 UNL     1      26.018  -0.544  53.848  1.00  0.00     0.010 C 
HETATM   14  C18 UNL     1      26.847   0.474  53.797  1.00  0.00     0.029 A 
ENDROOT
BRANCH   9  15
HETATM   15  N2  UNL     1      20.434   0.667  52.028  1.00  0.00    -0.355 N 
HETATM   16  H8  UNL     1      20.091   1.197  52.903  1.00  0.00     0.166 HD
BRANCH  15  17
HETATM   17  C9  UNL     1      19.144   0.200  51.764  1.00  0.00     0.059 A 
HETATM   18  C10 UNL     1      18.525   0.620  50.575  1.00  0.00     0.032 A 
HETATM   19  C11 UNL     1      17.239   0.196  50.263  1.00  0.00     0.002 A 
HETATM   20  C12 UNL     1      16.702  -0.633  51.220  1.00  0.00     0.002 A 
HETATM   21  C13 UNL     1      17.237  -1.088  52.404  1.00  0.00     0.031 A 
HETATM   22  C14 UNL     1      18.519  -0.632  52.657  1.00  0.00     0.052 A 
BRANCH  22  23
HETATM   23  N3  UNL     1      19.112  -1.075  53.869  1.00  0.00    -0.397 N 
HETATM   24  H13 UNL     1      19.982  -1.639  53.691  1.00  0.00     0.156 HD
HETATM   25  H14 UNL     1      18.869  -0.959  54.874  1.00  0.00     0.156 HD
ENDBRANCH  22  23
ENDBRANCH  15  17
ENDBRANCH   9  15
BRANCH   1  26
HETATM   26  O1  UNL     1      29.078  -0.879  54.326  1.00  0.00    -0.355 OA
HETATM   27  C1  UNL     1      29.692  -1.754  53.438  1.00  0.00     0.210 C 
ENDBRANCH   1  26
TORSDOF 4
ENDMDL
MODEL 3
REMARK VINA RESULT:      -8.1      5.842      8.570
REMARK  4 active torsions:
REMARK  status: ('A' for Active; 'I' for Inactive)
REMARK    1  A    between atoms: O1_2  and  C2_3 
REMARK    2  A    between atoms: C8_11  and  N2_12 
REMARK    3  A    between atoms: N2_12  and  C9_13 
REMARK    4  A    between atoms: C14_18  and  N3_19 
ROOT
HETATM    1  C2  UNL     1      26.435   7.364  47.872  1.00  0.00     0.081 A 
HETATM    2  C3  UNL     1      27.750   7.367  47.612  1.00  0.00     0.040 A 
HETATM    3  C4  UNL     1      28.287   6.098  48.154  1.00  0.00     0.041 A 
HETATM    4  C5  UNL     1      27.358   5.329  48.731  1.00  0.00     0.092 A 
HETATM    5  O2  UNL     1      27.418   4.092  49.349  1.00  0.00    -0.277 OA
HETATM    6  C6  UNL     1      26.442   3.451  50.095  1.00  0.00     0.249 A 
HETATM    7  N1  UNL     1      26.946   2.461  50.736  1.00  0.00    -0.244 NA
HETATM    8  C7  UNL     1      26.232   1.587  51.598  1.00  0.00     0.211 A 
HETATM    9  C8  UNL     1      24.776   1.936  51.690  1.00  0.00     0.045 A 
HETATM   10  C15 UNL     1      24.286   2.982  51.001  1.00  0.00     0.121 A 
HETATM   11  N4  UNL     1      25.070   3.835  50.143  1.00  0.00    -0.316 N 
HETATM   12  C16 UNL     1      24.220   4.839  49.589  1.00  0.00     0.160 C 
HETATM   13  C17 UNL     1      24.893   5.945  48.897  1.00  0.00     0.010 C 
HETATM   14  C18 UNL     1      26.151   6.122  48.564  1.00  0.00     0.029 A 
ENDROOT
BRANCH   9  15
HETATM   15  N2  UNL     1      23.870   1.224  52.450  1.00  0.00    -0.355 N 
HETATM   16  H8  UNL     1      24.703   0.615  52.764  1.00  0.00     0.166 HD
BRANCH  15  17
HETATM   17  C9  UNL     1      22.985   0.479  53.234  1.00  0.00     0.059 A 
HETATM   18  C10 UNL     1      21.613   0.757  53.118  1.00  0.00     0.032 A 
HETATM   19  C11 UNL     1      20.686   0.055  53.879  1.00  0.00     0.002 A 
HETATM   20  C12 UNL     1      21.269  -0.882  54.701  1.00  0.00     0.002 A 
HETATM   21  C13 UNL     1      22.593  -1.213  54.874  1.00  0.00     0.031 A 
HETATM   22  C14 UNL     1      23.465  -0.480  54.088  1.00  0.00     0.052 A 
BRANCH  22  23
HETATM   23  N3  UNL     1      24.845  -0.786  54.234  1.00  0.00    -0.397 N 
HETATM   24  H13 UNL     1      25.447   0.068  54.103  1.00  0.00     0.156 HD
HETATM   25  H14 UNL     1      25.371  -1.660  54.438  1.00  0.00     0.156 HD
ENDBRANCH  22  23
ENDBRANCH  15  17
ENDBRANCH   9  15
BRANCH   1  26
HETATM   26  O1  UNL     1      25.864   8.502  47.405  1.00  0.00    -0.355 OA
HETATM   27  C1  UNL     1      25.429   9.604  48.130  1.00  0.00     0.210 C 
ENDBRANCH   1  26
TORSDOF 4
ENDMDL
MODEL 4
REMARK VINA RESULT:      -7.8      4.474      5.555
REMARK  4 active torsions:
REMARK  status: ('A' for Active; 'I' for Inactive)
REMARK    1  A    between atoms: O1_2  and  C2_3 
REMARK    2  A    between atoms: C8_11  and  N2_12 
REMARK    3  A    between atoms: N2_12  and  C9_13 
REMARK    4  A    between atoms: C14_18  and  N3_19 
ROOT
HETATM    1  C2  UNL     1      20.682  -0.340  53.524  1.00  0.00     0.081 A 
HETATM    2  C3  UNL     1      21.146  -1.373  54.240  1.00  0.00     0.040 A 
HETATM    3  C4  UNL     1      22.621  -1.243  54.255  1.00  0.00     0.041 A 
HETATM    4  C5  UNL     1      23.069  -0.180  53.579  1.00  0.00     0.092 A 
HETATM    5  O2  UNL     1      24.342   0.310  53.342  1.00  0.00    -0.277 OA
HETATM    6  C6  UNL     1      24.733   1.310  52.466  1.00  0.00     0.249 A 
HETATM    7  N1  UNL     1      26.006   1.298  52.313  1.00  0.00    -0.244 NA
HETATM    8  C7  UNL     1      26.745   2.185  51.485  1.00  0.00     0.211 A 
HETATM    9  C8  UNL     1      25.868   3.179  50.783  1.00  0.00     0.045 A 
HETATM   10  C15 UNL     1      24.536   3.158  50.971  1.00  0.00     0.121 A 
HETATM   11  N4  UNL     1      23.846   2.224  51.826  1.00  0.00    -0.316 N 
HETATM   12  C16 UNL     1      22.445   2.496  51.771  1.00  0.00     0.160 C 
HETATM   13  C17 UNL     1      21.568   1.487  52.376  1.00  0.00     0.010 C 
HETATM   14  C18 UNL     1      21.838   0.422  53.095  1.00  0.00     0.029 A 
ENDROOT
BRANCH   9  15
HETATM   15  N2  UNL     1      26.352   4.156  49.937  1.00  0.00    -0.355 N 
HETATM   16  H8  UNL     1      26.407   4.796  50.804  1.00  0.00     0.166 HD
BRANCH  15  17
HETATM   17  C9  UNL     1      26.845   5.172  49.114  1.00  0.00     0.059 A 
HETATM   18  C10 UNL     1      28.174   5.072  48.672  1.00  0.00     0.032 A 
HETATM   19  C11 UNL     1      28.722   6.057  47.859  1.00  0.00     0.002 A 
HETATM   20  C12 UNL     1      27.835   7.069  47.574  1.00  0.00     0.002 A 
HETATM   21  C13 UNL     1      26.527   7.242  47.965  1.00  0.00     0.031 A 
HETATM   22  C14 UNL     1      26.040   6.229  48.771  1.00  0.00     0.052 A 
BRANCH  22  23
HETATM   23  N3  UNL     1      24.693   6.365  49.201  1.00  0.00    -0.397 N 
HETATM   24  H13 UNL     1      24.015   6.115  48.435  1.00  0.00     0.156 HD
HETATM   25  H14 UNL     1      24.248   6.653  50.096  1.00  0.00     0.156 HD
ENDBRANCH  22  23
ENDBRANCH  15  17
ENDBRANCH   9  15
BRANCH   1  26
HETATM   26  O1  UNL     1      19.328  -0.386  53.461  1.00  0.00    -0.355 OA
HETATM   27  C1  UNL     1      18.508  -1.507  53.427  1.00  0.00     0.210 C 
ENDBRANCH   1  26
TORSDOF 4
ENDMDL
MODEL 5
REMARK VINA RESULT:      -7.7      2.094      2.816
REMARK  4 active torsions:
REMARK  status: ('A' for Active; 'I' for Inactive)
REMARK    1  A    between atoms: O1_2  and  C2_3 
REMARK    2  A    between atoms: C8_11  and  N2_12 
REMARK    3  A    between atoms: N2_12  and  C9_13 
REMARK    4  A    between atoms: C14_18  and  N3_19 
ROOT
HETATM    1  C2  UNL     1      17.887   1.355  51.398  1.00  0.00     0.081 A 
HETATM    2  C3  UNL     1      17.345   2.580  51.455  1.00  0.00     0.040 A 
HETATM    3  C4  UNL     1      18.470   3.528  51.627  1.00  0.00     0.041 A 
HETATM    4  C5  UNL     1      19.666   2.932  51.677  1.00  0.00     0.092 A 
HETATM    5  O2  UNL     1      20.952   3.424  51.824  1.00  0.00    -0.277 OA
HETATM    6  C6  UNL     1      22.123   2.723  52.063  1.00  0.00     0.249 A 
HETATM    7  N1  UNL     1      23.060   3.524  52.414  1.00  0.00    -0.244 NA
HETATM    8  C7  UNL     1      24.391   3.146  52.736  1.00  0.00     0.211 A 
HETATM    9  C8  UNL     1      24.611   1.667  52.617  1.00  0.00     0.045 A 
HETATM   10  C15 UNL     1      23.601   0.860  52.244  1.00  0.00     0.121 A 
HETATM   11  N4  UNL     1      22.267   1.311  51.935  1.00  0.00    -0.316 N 
HETATM   12  C16 UNL     1      21.466   0.180  51.589  1.00  0.00     0.160 C 
HETATM   13  C17 UNL     1      20.021   0.417  51.493  1.00  0.00     0.010 C 
HETATM   14  C18 UNL     1      19.320   1.528  51.532  1.00  0.00     0.029 A 
ENDROOT
BRANCH   9  15
HETATM   15  N2  UNL     1      25.825   1.056  52.860  1.00  0.00    -0.355 N 
HETATM   16  H8  UNL     1      26.164   2.012  53.229  1.00  0.00     0.166 HD
BRANCH  15  17
HETATM   17  C9  UNL     1      27.069   0.476  53.121  1.00  0.00     0.059 A 
HETATM   18  C10 UNL     1      27.225  -0.893  52.844  1.00  0.00     0.032 A 
HETATM   19  C11 UNL     1      28.436  -1.527  53.093  1.00  0.00     0.002 A 
HETATM   20  C12 UNL     1      29.387  -0.679  53.612  1.00  0.00     0.002 A 
HETATM   21  C13 UNL     1      29.315   0.662  53.912  1.00  0.00     0.031 A 
HETATM   22  C14 UNL     1      28.085   1.235  53.642  1.00  0.00     0.052 A 
BRANCH  22  23
HETATM   23  N3  UNL     1      27.962   2.620  53.937  1.00  0.00    -0.397 N 
HETATM   24  H13 UNL     1      28.243   2.830  54.929  1.00  0.00     0.156 HD
HETATM   25  H14 UNL     1      27.660   3.449  53.387  1.00  0.00     0.156 HD
ENDBRANCH  22  23
ENDBRANCH  15  17
ENDBRANCH   9  15
BRANCH   1  26
HETATM   26  O1  UNL     1      16.916   0.422  51.241  1.00  0.00    -0.355 OA
HETATM   27  C1  UNL     1      16.229  -0.277  52.226  1.00  0.00     0.210 C 
ENDBRANCH   1  26
TORSDOF 4
ENDMDL
MODEL 6
REMARK VINA RESULT:      -7.6      5.327      7.282
REMARK  4 active torsions:
REMARK  status: ('A' for Active; 'I' for Inactive)
REMARK    1  A    between atoms: O1_2  and  C2_3 
REMARK    2  A    between atoms: C8_11  and  N2_12 
REMARK    3  A    between atoms: N2_12  and  C9_13 
REMARK    4  A    between atoms: C14_18  and  N3_19 
ROOT
HETATM    1  C2  UNL     1      24.387  -0.532  54.113  1.00  0.00     0.081 A 
HETATM    2  C3  UNL     1      23.057  -0.688  54.165  1.00  0.00     0.040 A 
HETATM    3  C4  UNL     1      22.494   0.164  53.093  1.00  0.00     0.041 A 
HETATM    4  C5  UNL     1      23.422   0.828  52.397  1.00  0.00     0.092 A 
HETATM    5  O2  UNL     1      23.342   1.712  51.334  1.00  0.00    -0.277 OA
HETATM    6  C6  UNL     1      24.340   2.509  50.796  1.00  0.00     0.249 A 
HETATM    7  N1  UNL     1      23.835   3.391  50.015  1.00  0.00    -0.244 NA
HETATM    8  C7  UNL     1      24.569   4.372  49.296  1.00  0.00     0.211 A 
HETATM    9  C8  UNL     1      26.046   4.275  49.538  1.00  0.00     0.045 A 
HETATM   10  C15 UNL     1      26.536   3.334  50.366  1.00  0.00     0.121 A 
HETATM   11  N4  UNL     1      25.731   2.367  51.070  1.00  0.00    -0.316 N 
HETATM   12  C16 UNL     1      26.589   1.539  51.857  1.00  0.00     0.160 C 
HETATM   13  C17 UNL     1      25.925   0.668  52.834  1.00  0.00     0.010 C 
HETATM   14  C18 UNL     1      24.656   0.398  53.034  1.00  0.00     0.029 A 
ENDROOT
BRANCH   9  15
HETATM   15  N2  UNL     1      26.971   5.107  48.941  1.00  0.00    -0.355 N 
HETATM   16  H8  UNL     1      26.191   5.378  48.247  1.00  0.00     0.166 HD
BRANCH  15  17
HETATM   17  C9  UNL     1      27.878   5.961  48.307  1.00  0.00     0.059 A 
HETATM   18  C10 UNL     1      29.227   5.571  48.265  1.00  0.00     0.032 A 
HETATM   19  C11 UNL     1      30.176   6.384  47.658  1.00  0.00     0.002 A 
HETATM   20  C12 UNL     1      29.638   7.540  47.142  1.00  0.00     0.002 A 
HETATM   21  C13 UNL     1      28.339   7.994  47.142  1.00  0.00     0.031 A 
HETATM   22  C14 UNL     1      27.443   7.141  47.761  1.00  0.00     0.052 A 
BRANCH  22  23
HETATM   23  N3  UNL     1      26.088   7.569  47.786  1.00  0.00    -0.397 N 
HETATM   24  H13 UNL     1      25.429   6.757  47.909  1.00  0.00     0.156 HD
HETATM   25  H14 UNL     1      25.624   8.497  47.711  1.00  0.00     0.156 HD
ENDBRANCH  22  23
ENDBRANCH  15  17
ENDBRANCH   9  15
BRANCH   1  26
HETATM   26  O1  UNL     1      24.983  -1.285  55.072  1.00  0.00    -0.355 OA
HETATM   27  C1  UNL     1      24.988  -1.078  56.445  1.00  0.00     0.210 C 
ENDBRANCH   1  26
TORSDOF 4
ENDMDL
MODEL 7
REMARK VINA RESULT:      -7.3      3.849      4.599
REMARK  4 active torsions:
REMARK  status: ('A' for Active; 'I' for Inactive)
REMARK    1  A    between atoms: O1_2  and  C2_3 
REMARK    2  A    between atoms: C8_11  and  N2_12 
REMARK    3  A    between atoms: N2_12  and  C9_13 
REMARK    4  A    between atoms: C14_18  and  N3_19 
ROOT
HETATM    1  C2  UNL     1      20.726   6.201  50.050  1.00  0.00     0.081 A 
HETATM    2  C3  UNL     1      19.458   5.771  49.998  1.00  0.00     0.040 A 
HETATM    3  C4  UNL     1      19.436   4.448  50.663  1.00  0.00     0.041 A 
HETATM    4  C5  UNL     1      20.633   4.059  51.114  1.00  0.00     0.092 A 
HETATM    5  O2  UNL     1      21.059   2.923  51.781  1.00  0.00    -0.277 OA
HETATM    6  C6  UNL     1      22.355   2.508  52.040  1.00  0.00     0.249 A 
HETATM    7  N1  UNL     1      22.365   1.285  52.426  1.00  0.00    -0.244 NA
HETATM    8  C7  UNL     1      23.523   0.540  52.774  1.00  0.00     0.211 A 
HETATM    9  C8  UNL     1      24.782   1.345  52.651  1.00  0.00     0.045 A 
HETATM   10  C15 UNL     1      24.729   2.626  52.242  1.00  0.00     0.121 A 
HETATM   11  N4  UNL     1      23.515   3.324  51.899  1.00  0.00    -0.316 N 
HETATM   12  C16 UNL     1      23.845   4.656  51.504  1.00  0.00     0.160 C 
HETATM   13  C17 UNL     1      22.766   5.430  50.878  1.00  0.00     0.010 C 
HETATM   14  C18 UNL     1      21.487   5.172  50.731  1.00  0.00     0.029 A 
ENDROOT
BRANCH   9  15
HETATM   15  N2  UNL     1      26.035   0.849  52.949  1.00  0.00    -0.355 N 
HETATM   16  H8  UNL     1      26.252   0.928  51.895  1.00  0.00     0.166 HD
BRANCH  15  17
HETATM   17  C9  UNL     1      27.313   0.349  53.209  1.00  0.00     0.059 A 
HETATM   18  C10 UNL     1      27.541  -1.019  52.989  1.00  0.00     0.032 A 
HETATM   19  C11 UNL     1      28.790  -1.575  53.239  1.00  0.00     0.002 A 
HETATM   20  C12 UNL     1      29.701  -0.654  53.702  1.00  0.00     0.002 A 
HETATM   21  C13 UNL     1      29.560   0.693  53.945  1.00  0.00     0.031 A 
HETATM   22  C14 UNL     1      28.295   1.186  53.676  1.00  0.00     0.052 A 
BRANCH  22  23
HETATM   23  N3  UNL     1      28.101   2.573  53.913  1.00  0.00    -0.397 N 
HETATM   24  H13 UNL     1      28.093   2.792  54.943  1.00  0.00     0.156 HD
HETATM   25  H14 UNL     1      27.969   3.398  53.293  1.00  0.00     0.156 HD
ENDBRANCH  22  23
ENDBRANCH  15  17
ENDBRANCH   9  15
BRANCH   1  26
HETATM   26  O1  UNL     1      20.832   7.416  49.456  1.00  0.00    -0.355 OA
HETATM   27  C1  UNL     1      20.413   7.790  48.186  1.00  0.00     0.210 C 
ENDBRANCH   1  26
TORSDOF 4
ENDMDL
MODEL 8
REMARK VINA RESULT:      -7.3      6.045      8.345
REMARK  4 active torsions:
REMARK  status: ('A' for Active; 'I' for Inactive)
REMARK    1  A    between atoms: O1_2  and  C2_3 
REMARK    2  A    between atoms: C8_11  and  N2_12 
REMARK    3  A    between atoms: N2_12  and  C9_13 
REMARK    4  A    between atoms: C14_18  and  N3_19 
ROOT
HETATM    1  C2  UNL     1      26.033  -0.120  53.690  1.00  0.00     0.081 A 
HETATM    2  C3  UNL     1      24.893  -0.687  54.109  1.00  0.00     0.040 A 
HETATM    3  C4  UNL     1      23.800  -0.041  53.348  1.00  0.00     0.041 A 
HETATM    4  C5  UNL     1      24.226   0.890  52.489  1.00  0.00     0.092 A 
HETATM    5  O2  UNL     1      23.562   1.718  51.600  1.00  0.00    -0.277 OA
HETATM    6  C6  UNL     1      24.062   2.796  50.885  1.00  0.00     0.249 A 
HETATM    7  N1  UNL     1      23.102   3.485  50.387  1.00  0.00    -0.244 NA
HETATM    8  C7  UNL     1      23.253   4.657  49.599  1.00  0.00     0.211 A 
HETATM    9  C8  UNL     1      24.691   5.026  49.388  1.00  0.00     0.045 A 
HETATM   10  C15 UNL     1      25.669   4.276  49.929  1.00  0.00     0.121 A 
HETATM   11  N4  UNL     1      25.446   3.095  50.726  1.00  0.00    -0.316 N 
HETATM   12  C16 UNL     1      26.709   2.569  51.133  1.00  0.00     0.160 C 
HETATM   13  C17 UNL     1      26.671   1.520  52.159  1.00  0.00     0.010 C 
HETATM   14  C18 UNL     1      25.666   0.862  52.689  1.00  0.00     0.029 A 
ENDROOT
BRANCH   9  15
HETATM   15  N2  UNL     1      25.096   6.114  48.642  1.00  0.00    -0.355 N 
HETATM   16  H8  UNL     1      25.850   6.276  49.397  1.00  0.00     0.166 HD
BRANCH  15  17
HETATM   17  C9  UNL     1      25.537   7.224  47.916  1.00  0.00     0.059 A 
HETATM   18  C10 UNL     1      24.670   7.764  46.951  1.00  0.00     0.032 A 
HETATM   19  C11 UNL     1      25.057   8.861  46.192  1.00  0.00     0.002 A 
HETATM   20  C12 UNL     1      26.322   9.306  46.502  1.00  0.00     0.002 A 
HETATM   21  C13 UNL     1      27.228   8.837  47.424  1.00  0.00     0.031 A 
HETATM   22  C14 UNL     1      26.784   7.745  48.149  1.00  0.00     0.052 A 
BRANCH  22  23
HETATM   23  N3  UNL     1      27.688   7.225  49.113  1.00  0.00    -0.397 N 
HETATM   24  H13 UNL     1      28.357   6.535  48.684  1.00  0.00     0.156 HD
HETATM   25  H14 UNL     1      27.822   7.382  50.133  1.00  0.00     0.156 HD
ENDBRANCH  22  23
ENDBRANCH  15  17
ENDBRANCH   9  15
BRANCH   1  26
HETATM   26  O1  UNL     1      27.091  -0.660  54.344  1.00  0.00    -0.355 OA
HETATM   27  C1  UNL     1      28.169  -0.002  54.924  1.00  0.00     0.210 C 
ENDBRANCH   1  26
TORSDOF 4
ENDMDL
MODEL 9
REMARK VINA RESULT:      -7.2      8.432     10.630
REMARK  4 active torsions:
REMARK  status: ('A' for Active; 'I' for Inactive)
REMARK    1  A    between atoms: O1_2  and  C2_3 
REMARK    2  A    between atoms: C8_11  and  N2_12 
REMARK    3  A    between atoms: N2_12  and  C9_13 
REMARK    4  A    between atoms: C14_18  and  N3_19 
ROOT
HETATM    1  C2  UNL     1      24.558   6.295  50.469  1.00  0.00     0.081 A 
HETATM    2  C3  UNL     1      24.179   7.540  50.790  1.00  0.00     0.040 A 
HETATM    3  C4  UNL     1      25.204   8.448  50.228  1.00  0.00     0.041 A 
HETATM    4  C5  UNL     1      26.186   7.809  49.583  1.00  0.00     0.092 A 
HETATM    5  O2  UNL     1      27.317   8.256  48.921  1.00  0.00    -0.277 OA
HETATM    6  C6  UNL     1      28.389   7.516  48.447  1.00  0.00     0.249 A 
HETATM    7  N1  UNL     1      29.367   8.288  48.146  1.00  0.00    -0.244 NA
HETATM    8  C7  UNL     1      30.622   7.866  47.632  1.00  0.00     0.211 A 
HETATM    9  C8  UNL     1      30.700   6.378  47.460  1.00  0.00     0.045 A 
HETATM   10  C15 UNL     1      29.651   5.602  47.788  1.00  0.00     0.121 A 
HETATM   11  N4  UNL     1      28.402   6.097  48.311  1.00  0.00    -0.316 N 
HETATM   12  C16 UNL     1      27.531   4.991  48.549  1.00  0.00     0.160 C 
HETATM   13  C17 UNL     1      26.315   5.280  49.318  1.00  0.00     0.010 C 
HETATM   14  C18 UNL     1      25.795   6.416  49.723  1.00  0.00     0.029 A 
ENDROOT
BRANCH   9  15
HETATM   15  N2  UNL     1      31.810   5.727  46.961  1.00  0.00    -0.355 N 
HETATM   16  H8  UNL     1      31.610   4.955  47.687  1.00  0.00     0.166 HD
BRANCH  15  17
HETATM   17  C9  UNL     1      32.927   5.037  46.483  1.00  0.00     0.059 A 
HETATM   18  C10 UNL     1      33.458   5.426  45.242  1.00  0.00     0.032 A 
HETATM   19  C11 UNL     1      34.562   4.769  44.712  1.00  0.00     0.002 A 
HETATM   20  C12 UNL     1      35.022   3.757  45.522  1.00  0.00     0.002 A 
HETATM   21  C13 UNL     1      34.562   3.315  46.741  1.00  0.00     0.031 A 
HETATM   22  C14 UNL     1      33.463   4.008  47.215  1.00  0.00     0.052 A 
BRANCH  22  23
HETATM   23  N3  UNL     1      32.951   3.585  48.471  1.00  0.00    -0.397 N 
HETATM   24  H13 UNL     1      31.899   3.602  48.486  1.00  0.00     0.156 HD
HETATM   25  H14 UNL     1      33.392   3.269  49.359  1.00  0.00     0.156 HD
ENDBRANCH  22  23
ENDBRANCH  15  17
ENDBRANCH   9  15
BRANCH   1  26
HETATM   26  O1  UNL     1      23.665   5.396  50.952  1.00  0.00    -0.355 OA
HETATM   27  C1  UNL     1      23.549   4.913  52.249  1.00  0.00     0.210 C 
ENDBRANCH   1  26
TORSDOF 4
ENDMDL
