MODEL 1
REMARK VINA RESULT:      -7.0      0.000      0.000
REMARK  7 active torsions:
REMARK  status: ('A' for Active; 'I' for Inactive)
REMARK    1  A    between atoms: C3_3  and  C4_4 
REMARK    2  A    between atoms: C8_9  and  C9_10 
REMARK    3  A    between atoms: C9_10  and  C10_11 
REMARK    4  A    between atoms: C10_11  and  O1_12 
REMARK    5  A    between atoms: C12_14  and  C13_15 
REMARK    6  A    between atoms: C13_15  and  C14_16 
REMARK    7  A    between atoms: C14_16  and  O2_17 
ROOT
HETATM    1  C4  UNL     1      21.928  -0.746  53.563  1.00  0.00     0.084 A 
HETATM    2  C5  UNL     1      21.757  -1.439  54.865  1.00  0.00     0.103 A 
HETATM    3  N1  UNL     1      22.877  -1.511  55.519  1.00  0.00    -0.264 NA
HETATM    4  C6  UNL     1      23.941  -0.907  54.796  1.00  0.00     0.064 A 
HETATM    5  C7  UNL     1      25.287  -0.701  55.000  1.00  0.00     0.039 A 
HETATM    6  C8  UNL     1      26.152  -0.057  54.110  1.00  0.00    -0.048 A 
HETATM    7  C12 UNL     1      25.568   0.383  52.960  1.00  0.00    -0.049 A 
HETATM    8  C15 UNL     1      24.204   0.191  52.724  1.00  0.00     0.018 A 
HETATM    9  C16 UNL     1      23.384  -0.445  53.622  1.00  0.00    -0.016 A 
ENDROOT
BRANCH   6  10
HETATM   10  C9  UNL     1      27.511   0.100  54.624  1.00  0.00     0.065 C 
BRANCH  10  11
HETATM   11  C10 UNL     1      28.637  -0.620  54.008  1.00  0.00     0.171 C 
BRANCH  11  12
HETATM   12  O1  UNL     1      29.587   0.387  53.614  1.00  0.00    -0.396 OA
HETATM   13  C11 UNL     1      29.306   1.533  54.357  1.00  0.00     0.201 C 
ENDBRANCH  11  12
ENDBRANCH  10  11
ENDBRANCH   6  10
BRANCH   7  14
HETATM   14  C13 UNL     1      26.303   0.982  51.858  1.00  0.00     0.066 C 
BRANCH  14  15
HETATM   15  C14 UNL     1      26.581   2.442  51.942  1.00  0.00     0.189 C 
BRANCH  15  16
HETATM   16  O2  UNL     1      27.067   3.012  50.810  1.00  0.00    -0.312 OA
HETATM   17 BR1  UNL     1      25.795   3.547  49.602  1.00  0.00     0.099 Br
ENDBRANCH  15  16
ENDBRANCH  14  15
ENDBRANCH   7  14
BRANCH   1  18
HETATM   18  C3  UNL     1      21.175   0.515  53.576  1.00  0.00    -0.016 C 
HETATM   19  C2  UNL     1      20.246   1.047  52.774  1.00  0.00    -0.034 C 
HETATM   20  C1  UNL     1      19.707   0.406  51.549  1.00  0.00     0.036 C 
ENDBRANCH   1  18
TORSDOF 7
ENDMDL
MODEL 2
REMARK VINA RESULT:      -6.8      3.805      5.082
REMARK  7 active torsions:
REMARK  status: ('A' for Active; 'I' for Inactive)
REMARK    1  A    between atoms: C3_3  and  C4_4 
REMARK    2  A    between atoms: C8_9  and  C9_10 
REMARK    3  A    between atoms: C9_10  and  C10_11 
REMARK    4  A    between atoms: C10_11  and  O1_12 
REMARK    5  A    between atoms: C12_14  and  C13_15 
REMARK    6  A    between atoms: C13_15  and  C14_16 
REMARK    7  A    between atoms: C14_16  and  O2_17 
ROOT
HETATM    1  C4  UNL     1      24.745   4.016  50.237  1.00  0.00     0.084 A 
HETATM    2  C5  UNL     1      26.127   4.276  49.761  1.00  0.00     0.103 A 
HETATM    3  N1  UNL     1      26.957   3.371  50.186  1.00  0.00    -0.264 NA
HETATM    4  C6  UNL     1      26.300   2.396  50.984  1.00  0.00     0.064 A 
HETATM    5  C7  UNL     1      26.671   1.258  51.665  1.00  0.00     0.039 A 
HETATM    6  C8  UNL     1      25.811   0.439  52.402  1.00  0.00    -0.048 A 
HETATM    7  C12 UNL     1      24.509   0.843  52.420  1.00  0.00    -0.049 A 
HETATM    8  C15 UNL     1      24.101   1.992  51.739  1.00  0.00     0.018 A 
HETATM    9  C16 UNL     1      24.974   2.773  51.022  1.00  0.00    -0.016 A 
ENDROOT
BRANCH   6  10
HETATM   10  C9  UNL     1      26.460  -0.752  52.947  1.00  0.00     0.065 C 
BRANCH  10  11
HETATM   11  C10 UNL     1      27.923  -0.810  53.097  1.00  0.00     0.171 C 
BRANCH  11  12
HETATM   12  O1  UNL     1      28.184  -0.692  54.508  1.00  0.00    -0.396 OA
HETATM   13  C11 UNL     1      28.806   0.539  54.711  1.00  0.00     0.201 C 
ENDBRANCH  11  12
ENDBRANCH  10  11
ENDBRANCH   6  10
BRANCH   7  14
HETATM   14  C13 UNL     1      23.473   0.197  53.210  1.00  0.00     0.066 C 
BRANCH  14  15
HETATM   15  C14 UNL     1      22.129   0.834  53.215  1.00  0.00     0.189 C 
BRANCH  15  16
HETATM   16  O2  UNL     1      21.243   0.326  54.112  1.00  0.00    -0.312 OA
HETATM   17 BR1  UNL     1      21.333  -1.490  54.348  1.00  0.00     0.099 Br
ENDBRANCH  15  16
ENDBRANCH  14  15
ENDBRANCH   7  14
BRANCH   1  18
HETATM   18  C3  UNL     1      23.880   3.709  49.090  1.00  0.00    -0.016 C 
HETATM   19  C2  UNL     1      22.559   3.758  48.887  1.00  0.00    -0.034 C 
HETATM   20  C1  UNL     1      21.556   4.183  49.893  1.00  0.00     0.036 C 
ENDBRANCH   1  18
TORSDOF 7
ENDMDL
MODEL 3
REMARK VINA RESULT:      -6.8      3.675      4.661
REMARK  7 active torsions:
REMARK  status: ('A' for Active; 'I' for Inactive)
REMARK    1  A    between atoms: C3_3  and  C4_4 
REMARK    2  A    between atoms: C8_9  and  C9_10 
REMARK    3  A    between atoms: C9_10  and  C10_11 
REMARK    4  A    between atoms: C10_11  and  O1_12 
REMARK    5  A    between atoms: C12_14  and  C13_15 
REMARK    6  A    between atoms: C13_15  and  C14_16 
REMARK    7  A    between atoms: C14_16  and  O2_17 
ROOT
HETATM    1  C4  UNL     1      22.627   2.503  50.390  1.00  0.00     0.084 A 
HETATM    2  C5  UNL     1      23.816   3.256  49.918  1.00  0.00     0.103 A 
HETATM    3  N1  UNL     1      24.893   2.892  50.548  1.00  0.00    -0.264 NA
HETATM    4  C6  UNL     1      24.618   1.880  51.506  1.00  0.00     0.064 A 
HETATM    5  C7  UNL     1      25.350   1.153  52.419  1.00  0.00     0.039 A 
HETATM    6  C8  UNL     1      24.835   0.179  53.279  1.00  0.00    -0.048 A 
HETATM    7  C12 UNL     1      23.493  -0.031  53.168  1.00  0.00    -0.049 A 
HETATM    8  C15 UNL     1      22.722   0.689  52.252  1.00  0.00     0.018 A 
HETATM    9  C16 UNL     1      23.263   1.639  51.421  1.00  0.00    -0.016 A 
ENDROOT
BRANCH   6  10
HETATM   10  C9  UNL     1      25.856  -0.496  54.078  1.00  0.00     0.065 C 
BRANCH  10  11
HETATM   11  C10 UNL     1      26.677   0.255  55.041  1.00  0.00     0.171 C 
BRANCH  11  12
HETATM   12  O1  UNL     1      27.977  -0.362  55.023  1.00  0.00    -0.396 OA
HETATM   13  C11 UNL     1      28.842   0.517  54.370  1.00  0.00     0.201 C 
ENDBRANCH  11  12
ENDBRANCH  10  11
ENDBRANCH   6  10
BRANCH   7  14
HETATM   14  C13 UNL     1      22.740  -0.920  54.039  1.00  0.00     0.066 C 
BRANCH  14  15
HETATM   15  C14 UNL     1      21.360  -0.501  54.406  1.00  0.00     0.189 C 
BRANCH  15  16
HETATM   16  O2  UNL     1      20.370  -1.356  54.037  1.00  0.00    -0.312 OA
HETATM   17 BR1  UNL     1      19.057  -0.618  52.991  1.00  0.00     0.099 Br
ENDBRANCH  15  16
ENDBRANCH  14  15
ENDBRANCH   7  14
BRANCH   1  18
HETATM   18  C3  UNL     1      22.118   1.658  49.302  1.00  0.00    -0.016 C 
HETATM   19  C2  UNL     1      20.910   1.172  48.994  1.00  0.00    -0.034 C 
HETATM   20  C1  UNL     1      19.671   1.406  49.776  1.00  0.00     0.036 C 
ENDBRANCH   1  18
TORSDOF 7
ENDMDL
MODEL 4
REMARK VINA RESULT:      -6.6      4.105      7.102
REMARK  7 active torsions:
REMARK  status: ('A' for Active; 'I' for Inactive)
REMARK    1  A    between atoms: C3_3  and  C4_4 
REMARK    2  A    between atoms: C8_9  and  C9_10 
REMARK    3  A    between atoms: C9_10  and  C10_11 
REMARK    4  A    between atoms: C10_11  and  O1_12 
REMARK    5  A    between atoms: C12_14  and  C13_15 
REMARK    6  A    between atoms: C13_15  and  C14_16 
REMARK    7  A    between atoms: C14_16  and  O2_17 
ROOT
HETATM    1  C4  UNL     1      26.074  -0.057  52.897  1.00  0.00     0.084 A 
HETATM    2  C5  UNL     1      26.466   0.923  51.853  1.00  0.00     0.103 A 
HETATM    3  N1  UNL     1      25.457   1.650  51.477  1.00  0.00    -0.264 NA
HETATM    4  C6  UNL     1      24.271   1.294  52.173  1.00  0.00     0.064 A 
HETATM    5  C7  UNL     1      22.960   1.715  52.179  1.00  0.00     0.039 A 
HETATM    6  C8  UNL     1      21.944   1.191  52.983  1.00  0.00    -0.048 A 
HETATM    7  C12 UNL     1      22.333   0.181  53.812  1.00  0.00    -0.049 A 
HETATM    8  C15 UNL     1      23.655  -0.269  53.831  1.00  0.00     0.018 A 
HETATM    9  C16 UNL     1      24.629   0.272  53.027  1.00  0.00    -0.016 A 
ENDROOT
BRANCH   6  10
HETATM   10  C9  UNL     1      20.668   1.889  52.844  1.00  0.00     0.065 C 
BRANCH  10  11
HETATM   11  C10 UNL     1      20.614   3.263  52.319  1.00  0.00     0.171 C 
BRANCH  11  12
HETATM   12  O1  UNL     1      19.219   3.564  52.132  1.00  0.00    -0.396 OA
HETATM   13  C11 UNL     1      18.609   2.410  51.642  1.00  0.00     0.201 C 
ENDBRANCH  11  12
ENDBRANCH  10  11
ENDBRANCH   6  10
BRANCH   7  14
HETATM   14  C13 UNL     1      21.416  -0.573  54.652  1.00  0.00     0.066 C 
BRANCH  14  15
HETATM   15  C14 UNL     1      20.580  -1.607  53.985  1.00  0.00     0.189 C 
BRANCH  15  16
HETATM   16  O2  UNL     1      19.402  -1.165  53.470  1.00  0.00    -0.312 OA
HETATM   17 BR1  UNL     1      17.992  -2.323  53.656  1.00  0.00     0.099 Br
ENDBRANCH  15  16
ENDBRANCH  14  15
ENDBRANCH   7  14
BRANCH   1  18
HETATM   18  C3  UNL     1      26.757   0.267  54.156  1.00  0.00    -0.016 C 
HETATM   19  C2  UNL     1      27.998   0.073  54.613  1.00  0.00    -0.034 C 
HETATM   20  C1  UNL     1      29.090  -0.594  53.862  1.00  0.00     0.036 C 
ENDBRANCH   1  18
TORSDOF 7
ENDMDL
MODEL 5
REMARK VINA RESULT:      -6.6      2.327      5.700
REMARK  7 active torsions:
REMARK  status: ('A' for Active; 'I' for Inactive)
REMARK    1  A    between atoms: C3_3  and  C4_4 
REMARK    2  A    between atoms: C8_9  and  C9_10 
REMARK    3  A    between atoms: C9_10  and  C10_11 
REMARK    4  A    between atoms: C10_11  and  O1_12 
REMARK    5  A    between atoms: C12_14  and  C13_15 
REMARK    6  A    between atoms: C13_15  and  C14_16 
REMARK    7  A    between atoms: C14_16  and  O2_17 
ROOT
HETATM    1  C4  UNL     1      25.770   0.017  53.928  1.00  0.00     0.084 A 
HETATM    2  C5  UNL     1      25.167  -0.896  54.931  1.00  0.00     0.103 A 
HETATM    3  N1  UNL     1      23.888  -1.030  54.747  1.00  0.00    -0.264 NA
HETATM    4  C6  UNL     1      23.439  -0.263  53.639  1.00  0.00     0.064 A 
HETATM    5  C7  UNL     1      22.233  -0.037  53.012  1.00  0.00     0.039 A 
HETATM    6  C8  UNL     1      22.040   0.788  51.900  1.00  0.00    -0.048 A 
HETATM    7  C12 UNL     1      23.167   1.398  51.437  1.00  0.00    -0.049 A 
HETATM    8  C15 UNL     1      24.405   1.189  52.049  1.00  0.00     0.018 A 
HETATM    9  C16 UNL     1      24.558   0.369  53.141  1.00  0.00    -0.016 A 
ENDROOT
BRANCH   6  10
HETATM   10  C9  UNL     1      20.671   0.771  51.389  1.00  0.00     0.065 C 
BRANCH  10  11
HETATM   11  C10 UNL     1      19.579   1.410  52.140  1.00  0.00     0.171 C 
BRANCH  11  12
HETATM   12  O1  UNL     1      20.103   2.663  52.619  1.00  0.00    -0.396 OA
HETATM   13  C11 UNL     1      19.697   3.650  51.722  1.00  0.00     0.201 C 
ENDBRANCH  11  12
ENDBRANCH  10  11
ENDBRANCH   6  10
BRANCH   7  14
HETATM   14  C13 UNL     1      23.172   2.376  50.360  1.00  0.00     0.066 C 
BRANCH  14  15
HETATM   15  C14 UNL     1      23.954   3.622  50.580  1.00  0.00     0.189 C 
BRANCH  15  16
HETATM   16  O2  UNL     1      24.725   4.022  49.536  1.00  0.00    -0.312 OA
HETATM   17 BR1  UNL     1      26.483   3.506  49.626  1.00  0.00     0.099 Br
ENDBRANCH  15  16
ENDBRANCH  14  15
ENDBRANCH   7  14
BRANCH   1  18
HETATM   18  C3  UNL     1      26.697  -0.737  53.074  1.00  0.00    -0.016 C 
HETATM   19  C2  UNL     1      28.020  -0.934  53.090  1.00  0.00    -0.034 C 
HETATM   20  C1  UNL     1      28.955  -0.366  54.092  1.00  0.00     0.036 C 
ENDBRANCH   1  18
TORSDOF 7
ENDMDL
MODEL 6
REMARK VINA RESULT:      -6.4      3.646      6.935
REMARK  7 active torsions:
REMARK  status: ('A' for Active; 'I' for Inactive)
REMARK    1  A    between atoms: C3_3  and  C4_4 
REMARK    2  A    between atoms: C8_9  and  C9_10 
REMARK    3  A    between atoms: C9_10  and  C10_11 
REMARK    4  A    between atoms: C10_11  and  O1_12 
REMARK    5  A    between atoms: C12_14  and  C13_15 
REMARK    6  A    between atoms: C13_15  and  C14_16 
REMARK    7  A    between atoms: C14_16  and  O2_17 
ROOT
HETATM    1  C4  UNL     1      26.615   1.070  52.102  1.00  0.00     0.084 A 
HETATM    2  C5  UNL     1      26.808   2.355  51.382  1.00  0.00     0.103 A 
HETATM    3  N1  UNL     1      25.674   2.940  51.138  1.00  0.00    -0.264 NA
HETATM    4  C6  UNL     1      24.580   2.180  51.631  1.00  0.00     0.064 A 
HETATM    5  C7  UNL     1      23.209   2.314  51.652  1.00  0.00     0.039 A 
HETATM    6  C8  UNL     1      22.314   1.400  52.216  1.00  0.00    -0.048 A 
HETATM    7  C12 UNL     1      22.895   0.302  52.777  1.00  0.00    -0.049 A 
HETATM    8  C15 UNL     1      24.282   0.137  52.773  1.00  0.00     0.018 A 
HETATM    9  C16 UNL     1      25.131   1.057  52.210  1.00  0.00    -0.016 A 
ENDROOT
BRANCH   6  10
HETATM   10  C9  UNL     1      20.922   1.842  52.174  1.00  0.00     0.065 C 
BRANCH  10  11
HETATM   11  C10 UNL     1      20.563   3.234  52.488  1.00  0.00     0.171 C 
BRANCH  11  12
HETATM   12  O1  UNL     1      19.186   3.389  52.096  1.00  0.00    -0.396 OA
HETATM   13  C11 UNL     1      18.728   2.136  51.691  1.00  0.00     0.201 C 
ENDBRANCH  11  12
ENDBRANCH  10  11
ENDBRANCH   6  10
BRANCH   7  14
HETATM   14  C13 UNL     1      22.145  -0.818  53.323  1.00  0.00     0.066 C 
BRANCH  14  15
HETATM   15  C14 UNL     1      21.897  -0.818  54.790  1.00  0.00     0.189 C 
BRANCH  15  16
HETATM   16  O2  UNL     1      22.587  -1.747  55.501  1.00  0.00    -0.312 OA
HETATM   17 BR1  UNL     1      24.308  -1.277  55.928  1.00  0.00     0.099 Br
ENDBRANCH  15  16
ENDBRANCH  14  15
ENDBRANCH   7  14
BRANCH   1  18
HETATM   18  C3  UNL     1      27.195   1.171  53.448  1.00  0.00    -0.016 C 
HETATM   19  C2  UNL     1      28.103   0.456  54.121  1.00  0.00    -0.034 C 
HETATM   20  C1  UNL     1      28.809  -0.738  53.596  1.00  0.00     0.036 C 
ENDBRANCH   1  18
TORSDOF 7
ENDMDL
MODEL 7
REMARK VINA RESULT:      -6.3      2.669      5.568
REMARK  7 active torsions:
REMARK  status: ('A' for Active; 'I' for Inactive)
REMARK    1  A    between atoms: C3_3  and  C4_4 
REMARK    2  A    between atoms: C8_9  and  C9_10 
REMARK    3  A    between atoms: C9_10  and  C10_11 
REMARK    4  A    between atoms: C10_11  and  O1_12 
REMARK    5  A    between atoms: C12_14  and  C13_15 
REMARK    6  A    between atoms: C13_15  and  C14_16 
REMARK    7  A    between atoms: C14_16  and  O2_17 
ROOT
HETATM    1  C4  UNL     1      25.324  -0.023  53.827  1.00  0.00     0.084 A 
HETATM    2  C5  UNL     1      24.162  -0.766  54.377  1.00  0.00     0.103 A 
HETATM    3  N1  UNL     1      23.071  -0.495  53.727  1.00  0.00    -0.264 NA
HETATM    4  C6  UNL     1      23.307   0.434  52.679  1.00  0.00     0.064 A 
HETATM    5  C7  UNL     1      22.546   1.050  51.710  1.00  0.00     0.039 A 
HETATM    6  C8  UNL     1      23.025   1.957  50.759  1.00  0.00    -0.048 A 
HETATM    7  C12 UNL     1      24.359   2.221  50.841  1.00  0.00    -0.049 A 
HETATM    8  C15 UNL     1      25.158   1.612  51.811  1.00  0.00     0.018 A 
HETATM    9  C16 UNL     1      24.653   0.724  52.729  1.00  0.00    -0.016 A 
ENDROOT
BRANCH   6  10
HETATM   10  C9  UNL     1      22.012   2.385  49.797  1.00  0.00     0.065 C 
BRANCH  10  11
HETATM   11  C10 UNL     1      21.618   1.513  48.678  1.00  0.00     0.171 C 
BRANCH  11  12
HETATM   12  O1  UNL     1      22.445   1.896  47.564  1.00  0.00    -0.396 OA
HETATM   13  C11 UNL     1      22.104   3.205  47.226  1.00  0.00     0.201 C 
ENDBRANCH  11  12
ENDBRANCH  10  11
ENDBRANCH   6  10
BRANCH   7  14
HETATM   14  C13 UNL     1      25.038   3.211  50.020  1.00  0.00     0.066 C 
BRANCH  14  15
HETATM   15  C14 UNL     1      26.484   2.991  49.750  1.00  0.00     0.189 C 
BRANCH  15  16
HETATM   16  O2  UNL     1      27.190   4.097  49.398  1.00  0.00    -0.312 OA
HETATM   17 BR1  UNL     1      26.177   5.591  49.069  1.00  0.00     0.099 Br
ENDBRANCH  15  16
ENDBRANCH  14  15
ENDBRANCH   7  14
BRANCH   1  18
HETATM   18  C3  UNL     1      26.283  -0.973  53.247  1.00  0.00    -0.016 C 
HETATM   19  C2  UNL     1      27.608  -0.956  53.064  1.00  0.00    -0.034 C 
HETATM   20  C1  UNL     1      28.509   0.156  53.452  1.00  0.00     0.036 C 
ENDBRANCH   1  18
TORSDOF 7
ENDMDL
MODEL 8
REMARK VINA RESULT:      -6.3      3.469      5.983
REMARK  7 active torsions:
REMARK  status: ('A' for Active; 'I' for Inactive)
REMARK    1  A    between atoms: C3_3  and  C4_4 
REMARK    2  A    between atoms: C8_9  and  C9_10 
REMARK    3  A    between atoms: C9_10  and  C10_11 
REMARK    4  A    between atoms: C10_11  and  O1_12 
REMARK    5  A    between atoms: C12_14  and  C13_15 
REMARK    6  A    between atoms: C13_15  and  C14_16 
REMARK    7  A    between atoms: C14_16  and  O2_17 
ROOT
HETATM    1  C4  UNL     1      26.348   2.778  51.774  1.00  0.00     0.084 A 
HETATM    2  C5  UNL     1      27.403   2.002  52.474  1.00  0.00     0.103 A 
HETATM    3  N1  UNL     1      26.914   0.949  53.057  1.00  0.00    -0.264 NA
HETATM    4  C6  UNL     1      25.511   0.848  52.856  1.00  0.00     0.064 A 
HETATM    5  C7  UNL     1      24.516  -0.029  53.229  1.00  0.00     0.039 A 
HETATM    6  C8  UNL     1      23.164   0.090  52.894  1.00  0.00    -0.048 A 
HETATM    7  C12 UNL     1      22.855   1.181  52.138  1.00  0.00    -0.049 A 
HETATM    8  C15 UNL     1      23.840   2.088  51.743  1.00  0.00     0.018 A 
HETATM    9  C16 UNL     1      25.161   1.939  52.089  1.00  0.00    -0.016 A 
ENDROOT
BRANCH   6  10
HETATM   10  C9  UNL     1      22.347  -1.034  53.350  1.00  0.00     0.065 C 
BRANCH  10  11
HETATM   11  C10 UNL     1      22.275  -1.382  54.778  1.00  0.00     0.171 C 
BRANCH  11  12
HETATM   12  O1  UNL     1      21.005  -2.034  54.966  1.00  0.00    -0.396 OA
HETATM   13  C11 UNL     1      20.144  -1.553  53.980  1.00  0.00     0.201 C 
ENDBRANCH  11  12
ENDBRANCH  10  11
ENDBRANCH   6  10
BRANCH   7  14
HETATM   14  C13 UNL     1      21.497   1.550  51.771  1.00  0.00     0.066 C 
BRANCH  14  15
HETATM   15  C14 UNL     1      20.602   2.014  52.865  1.00  0.00     0.189 C 
BRANCH  15  16
HETATM   16  O2  UNL     1      20.083   3.260  52.708  1.00  0.00    -0.312 OA
HETATM   17 BR1  UNL     1      20.573   4.115  51.161  1.00  0.00     0.099 Br
ENDBRANCH  15  16
ENDBRANCH  14  15
ENDBRANCH   7  14
BRANCH   1  18
HETATM   18  C3  UNL     1      26.592   2.743  50.326  1.00  0.00    -0.016 C 
HETATM   19  C2  UNL     1      26.436   3.632  49.339  1.00  0.00    -0.034 C 
HETATM   20  C1  UNL     1      25.921   5.013  49.507  1.00  0.00     0.036 C 
ENDBRANCH   1  18
TORSDOF 7
ENDMDL
MODEL 9
REMARK VINA RESULT:      -6.3      2.736      4.487
REMARK  7 active torsions:
REMARK  status: ('A' for Active; 'I' for Inactive)
REMARK    1  A    between atoms: C3_3  and  C4_4 
REMARK    2  A    between atoms: C8_9  and  C9_10 
REMARK    3  A    between atoms: C9_10  and  C10_11 
REMARK    4  A    between atoms: C10_11  and  O1_12 
REMARK    5  A    between atoms: C12_14  and  C13_15 
REMARK    6  A    between atoms: C13_15  and  C14_16 
REMARK    7  A    between atoms: C14_16  and  O2_17 
ROOT
HETATM    1  C4  UNL     1      21.579   0.887  53.432  1.00  0.00     0.084 A 
HETATM    2  C5  UNL     1      20.566   1.615  52.627  1.00  0.00     0.103 A 
HETATM    3  N1  UNL     1      21.112   2.249  51.633  1.00  0.00    -0.264 NA
HETATM    4  C6  UNL     1      22.520   2.062  51.606  1.00  0.00     0.064 A 
HETATM    5  C7  UNL     1      23.562   2.481  50.808  1.00  0.00     0.039 A 
HETATM    6  C8  UNL     1      24.907   2.150  50.993  1.00  0.00    -0.048 A 
HETATM    7  C12 UNL     1      25.158   1.347  52.065  1.00  0.00    -0.049 A 
HETATM    8  C15 UNL     1      24.124   0.904  52.892  1.00  0.00     0.018 A 
HETATM    9  C16 UNL     1      22.811   1.248  52.680  1.00  0.00    -0.016 A 
ENDROOT
BRANCH   6  10
HETATM   10  C9  UNL     1      25.785   2.662  49.942  1.00  0.00     0.065 C 
BRANCH  10  11
HETATM   11  C10 UNL     1      26.476   3.952  50.100  1.00  0.00     0.171 C 
BRANCH  11  12
HETATM   12  O1  UNL     1      27.399   4.048  48.999  1.00  0.00    -0.396 OA
HETATM   13  C11 UNL     1      27.438   5.386  48.609  1.00  0.00     0.201 C 
ENDBRANCH  11  12
ENDBRANCH  10  11
ENDBRANCH   6  10
BRANCH   7  14
HETATM   14  C13 UNL     1      26.495   0.971  52.497  1.00  0.00     0.066 C 
BRANCH  14  15
HETATM   15  C14 UNL     1      26.884  -0.455  52.334  1.00  0.00     0.189 C 
BRANCH  15  16
HETATM   16  O2  UNL     1      27.433  -1.042  53.430  1.00  0.00    -0.312 OA
HETATM   17 BR1  UNL     1      28.808  -0.107  54.203  1.00  0.00     0.099 Br
ENDBRANCH  15  16
ENDBRANCH  14  15
ENDBRANCH   7  14
BRANCH   1  18
HETATM   18  C3  UNL     1      21.351  -0.559  53.316  1.00  0.00    -0.016 C 
HETATM   19  C2  UNL     1      21.758  -1.620  54.021  1.00  0.00    -0.034 C 
HETATM   20  C1  UNL     1      22.636  -1.566  55.216  1.00  0.00     0.036 C 
ENDBRANCH   1  18
TORSDOF 7
ENDMDL
