MODEL 1
REMARK VINA RESULT:      -7.7      0.000      0.000
REMARK  7 active torsions:
REMARK  status: ('A' for Active; 'I' for Inactive)
REMARK    1  A    between atoms: C1_2  and  C2_3 
REMARK    2  A    between atoms: C3_4  and  N2_5 
REMARK    3  A    between atoms: N2_5  and  N3_6 
REMARK    4  A    between atoms: N3_6  and  C4_7 
REMARK    5  A    between atoms: C7_10  and  O1_11 
REMARK    6  A    between atoms: O1_11  and  C8_12 
REMARK    7  A    between atoms: C8_12  and  C9_13 
ROOT
HETATM    1  C4  UNL     1      25.674   0.755  53.932  1.00  0.00     0.049 A 
HETATM    2  C5  UNL     1      25.307   1.510  52.838  1.00  0.00     0.034 A 
HETATM    3  C6  UNL     1      24.078   1.270  52.257  1.00  0.00     0.041 A 
HETATM    4  C7  UNL     1      23.231   0.308  52.745  1.00  0.00     0.091 A 
HETATM    5  C15 UNL     1      23.560  -0.468  53.836  1.00  0.00     0.069 A 
HETATM    6 CL1  UNL     1      22.478  -1.696  54.460  1.00  0.00    -0.081 Cl
HETATM    7  C16 UNL     1      24.796  -0.214  54.407  1.00  0.00     0.057 A 
ENDROOT
BRANCH   1   8
HETATM    8  N3  UNL     1      26.912   0.861  54.667  1.00  0.00    -0.301 N 
HETATM    9  H6  UNL     1      26.484   0.674  55.623  1.00  0.00     0.187 HD
BRANCH   8  10
HETATM   10  N2  UNL     1      28.268   1.117  54.351  1.00  0.00    -0.311 N 
HETATM   11  H5  UNL     1      27.951   2.099  54.314  1.00  0.00     0.186 HD
BRANCH  10  12
HETATM   12  C3  UNL     1      28.685  -0.236  54.406  1.00  0.00     0.108 C 
HETATM   13  C2  UNL     1      28.870  -0.868  53.261  1.00  0.00     0.037 C 
BRANCH  13  14
HETATM   14  C1  UNL     1      29.298  -2.257  53.332  1.00  0.00     0.108 C 
HETATM   15  N1  UNL     1      28.579  -3.307  53.331  1.00  0.00    -0.312 NA
HETATM   16  H1  UNL     1      27.524  -3.211  53.271  1.00  0.00     0.186 HD
ENDBRANCH  13  14
ENDBRANCH  10  12
ENDBRANCH   8  10
ENDBRANCH   1   8
BRANCH   4  17
HETATM   17  O1  UNL     1      21.995   0.075  52.153  1.00  0.00    -0.345 OA
BRANCH  17  18
HETATM   18  C8  UNL     1      20.869   0.898  52.381  1.00  0.00     0.214 C 
BRANCH  18  19
HETATM   19  C9  UNL     1      19.612   0.132  52.434  1.00  0.00    -0.031 A 
HETATM   20  C10 UNL     1      18.734   0.464  51.412  1.00  0.00     0.009 A 
HETATM   21  C11 UNL     1      17.499  -0.172  51.324  1.00  0.00     0.004 A 
HETATM   22  C12 UNL     1      17.089  -1.149  52.230  1.00  0.00     0.042 A 
HETATM   23  C13 UNL     1      17.994  -1.453  53.237  1.00  0.00     0.117 A 
HETATM   24  F1  UNL     1      17.663  -2.393  54.153  1.00  0.00    -0.206 F 
HETATM   25  C14 UNL     1      19.213  -0.833  53.333  1.00  0.00     0.051 A 
ENDBRANCH  18  19
ENDBRANCH  17  18
ENDBRANCH   4  17
TORSDOF 7
ENDMDL
MODEL 2
REMARK VINA RESULT:      -7.5      3.595      4.205
REMARK  7 active torsions:
REMARK  status: ('A' for Active; 'I' for Inactive)
REMARK    1  A    between atoms: C1_2  and  C2_3 
REMARK    2  A    between atoms: C3_4  and  N2_5 
REMARK    3  A    between atoms: N2_5  and  N3_6 
REMARK    4  A    between atoms: N3_6  and  C4_7 
REMARK    5  A    between atoms: C7_10  and  O1_11 
REMARK    6  A    between atoms: O1_11  and  C8_12 
REMARK    7  A    between atoms: C8_12  and  C9_13 
ROOT
HETATM    1  C4  UNL     1      25.984   1.104  54.097  1.00  0.00     0.049 A 
HETATM    2  C5  UNL     1      25.627   2.353  53.633  1.00  0.00     0.034 A 
HETATM    3  C6  UNL     1      24.389   2.504  53.041  1.00  0.00     0.041 A 
HETATM    4  C7  UNL     1      23.524   1.448  52.910  1.00  0.00     0.091 A 
HETATM    5  C15 UNL     1      23.843   0.185  53.360  1.00  0.00     0.069 A 
HETATM    6 CL1  UNL     1      22.737  -1.164  53.194  1.00  0.00    -0.081 Cl
HETATM    7  C16 UNL     1      25.088   0.050  53.952  1.00  0.00     0.057 A 
ENDROOT
BRANCH   1   8
HETATM    8  N3  UNL     1      27.229   0.755  54.739  1.00  0.00    -0.301 N 
HETATM    9  H6  UNL     1      26.792   0.136  55.487  1.00  0.00     0.187 HD
BRANCH   8  10
HETATM   10  N2  UNL     1      28.598   1.056  54.545  1.00  0.00    -0.311 N 
HETATM   11  H5  UNL     1      28.269   2.033  54.607  1.00  0.00     0.186 HD
BRANCH  10  12
HETATM   12  C3  UNL     1      29.030  -0.290  54.461  1.00  0.00     0.108 C 
HETATM   13  C2  UNL     1      28.809  -0.936  53.330  1.00  0.00     0.037 C 
BRANCH  13  14
HETATM   14  C1  UNL     1      29.258  -2.319  53.258  1.00  0.00     0.108 C 
HETATM   15  N1  UNL     1      28.556  -3.373  53.137  1.00  0.00    -0.312 NA
HETATM   16  H1  UNL     1      27.500  -3.287  53.075  1.00  0.00     0.186 HD
ENDBRANCH  13  14
ENDBRANCH  10  12
ENDBRANCH   8  10
ENDBRANCH   1   8
BRANCH   4  17
HETATM   17  O1  UNL     1      22.280   1.612  52.312  1.00  0.00    -0.345 OA
BRANCH  17  18
HETATM   18  C8  UNL     1      21.862   2.832  51.734  1.00  0.00     0.214 C 
BRANCH  18  19
HETATM   19  C9  UNL     1      22.033   2.852  50.272  1.00  0.00    -0.031 A 
HETATM   20  C10 UNL     1      21.750   1.630  49.678  1.00  0.00     0.009 A 
HETATM   21  C11 UNL     1      21.865   1.486  48.298  1.00  0.00     0.004 A 
HETATM   22  C12 UNL     1      22.257   2.529  47.462  1.00  0.00     0.042 A 
HETATM   23  C13 UNL     1      22.530   3.735  48.093  1.00  0.00     0.117 A 
HETATM   24  F1  UNL     1      22.916   4.795  47.343  1.00  0.00    -0.206 F 
HETATM   25  C14 UNL     1      22.420   3.889  49.451  1.00  0.00     0.051 A 
ENDBRANCH  18  19
ENDBRANCH  17  18
ENDBRANCH   4  17
TORSDOF 7
ENDMDL
MODEL 3
REMARK VINA RESULT:      -7.5      4.674      8.776
REMARK  7 active torsions:
REMARK  status: ('A' for Active; 'I' for Inactive)
REMARK    1  A    between atoms: C1_2  and  C2_3 
REMARK    2  A    between atoms: C3_4  and  N2_5 
REMARK    3  A    between atoms: N2_5  and  N3_6 
REMARK    4  A    between atoms: N3_6  and  C4_7 
REMARK    5  A    between atoms: C7_10  and  O1_11 
REMARK    6  A    between atoms: O1_11  and  C8_12 
REMARK    7  A    between atoms: C8_12  and  C9_13 
ROOT
HETATM    1  C4  UNL     1      20.640  -0.623  53.828  1.00  0.00     0.049 A 
HETATM    2  C5  UNL     1      21.436  -1.463  54.579  1.00  0.00     0.034 A 
HETATM    3  C6  UNL     1      22.799  -1.249  54.579  1.00  0.00     0.041 A 
HETATM    4  C7  UNL     1      23.365  -0.231  53.856  1.00  0.00     0.091 A 
HETATM    5  C15 UNL     1      22.606   0.630  53.093  1.00  0.00     0.069 A 
HETATM    6 CL1  UNL     1      23.327   1.932  52.169  1.00  0.00    -0.081 Cl
HETATM    7  C16 UNL     1      21.239   0.403  53.103  1.00  0.00     0.057 A 
ENDROOT
BRANCH   1   8
HETATM    8  N3  UNL     1      19.204  -0.691  53.705  1.00  0.00    -0.301 N 
HETATM    9  H6  UNL     1      19.071   0.332  53.440  1.00  0.00     0.187 HD
BRANCH   8  10
HETATM   10  N2  UNL     1      18.212  -1.690  53.853  1.00  0.00    -0.311 N 
HETATM   11  H5  UNL     1      18.771  -1.954  54.681  1.00  0.00     0.186 HD
BRANCH  10  12
HETATM   12  C3  UNL     1      17.459  -1.315  52.714  1.00  0.00     0.108 C 
HETATM   13  C2  UNL     1      17.825  -0.222  52.069  1.00  0.00     0.037 C 
BRANCH  13  14
HETATM   14  C1  UNL     1      17.043   0.152  50.900  1.00  0.00     0.108 C 
HETATM   15  N1  UNL     1      17.201  -0.214  49.692  1.00  0.00    -0.312 NA
HETATM   16  H1  UNL     1      17.993  -0.880  49.453  1.00  0.00     0.186 HD
ENDBRANCH  13  14
ENDBRANCH  10  12
ENDBRANCH   8  10
ENDBRANCH   1   8
BRANCH   4  17
HETATM   17  O1  UNL     1      24.739  -0.024  53.863  1.00  0.00    -0.345 OA
BRANCH  17  18
HETATM   18  C8  UNL     1      25.623  -0.725  53.011  1.00  0.00     0.214 C 
BRANCH  18  19
HETATM   19  C9  UNL     1      27.038  -0.449  53.315  1.00  0.00    -0.031 A 
HETATM   20  C10 UNL     1      27.869  -1.526  53.041  1.00  0.00     0.009 A 
HETATM   21  C11 UNL     1      29.238  -1.423  53.274  1.00  0.00     0.004 A 
HETATM   22  C12 UNL     1      29.830  -0.268  53.780  1.00  0.00     0.042 A 
HETATM   23  C13 UNL     1      28.967   0.787  54.041  1.00  0.00     0.117 A 
HETATM   24  F1  UNL     1      29.473   1.942  54.534  1.00  0.00    -0.206 F 
HETATM   25  C14 UNL     1      27.618   0.698  53.814  1.00  0.00     0.051 A 
ENDBRANCH  18  19
ENDBRANCH  17  18
ENDBRANCH   4  17
TORSDOF 7
ENDMDL
MODEL 4
REMARK VINA RESULT:      -7.5      2.223      2.813
REMARK  7 active torsions:
REMARK  status: ('A' for Active; 'I' for Inactive)
REMARK    1  A    between atoms: C1_2  and  C2_3 
REMARK    2  A    between atoms: C3_4  and  N2_5 
REMARK    3  A    between atoms: N2_5  and  N3_6 
REMARK    4  A    between atoms: N3_6  and  C4_7 
REMARK    5  A    between atoms: C7_10  and  O1_11 
REMARK    6  A    between atoms: O1_11  and  C8_12 
REMARK    7  A    between atoms: C8_12  and  C9_13 
ROOT
HETATM    1  C4  UNL     1      27.407   1.971  53.245  1.00  0.00     0.049 A 
HETATM    2  C5  UNL     1      26.408   1.356  53.969  1.00  0.00     0.034 A 
HETATM    3  C6  UNL     1      25.154   1.252  53.402  1.00  0.00     0.041 A 
HETATM    4  C7  UNL     1      24.892   1.743  52.149  1.00  0.00     0.091 A 
HETATM    5  C15 UNL     1      25.862   2.364  51.392  1.00  0.00     0.069 A 
HETATM    6 CL1  UNL     1      25.528   2.991  49.790  1.00  0.00    -0.081 Cl
HETATM    7  C16 UNL     1      27.115   2.460  51.975  1.00  0.00     0.057 A 
ENDROOT
BRANCH   1   8
HETATM    8  N3  UNL     1      28.772   2.171  53.669  1.00  0.00    -0.301 N 
HETATM    9  H6  UNL     1      28.832   3.188  53.362  1.00  0.00     0.187 HD
BRANCH   8  10
HETATM   10  N2  UNL     1      29.776   1.384  54.284  1.00  0.00    -0.311 N 
HETATM   11  H5  UNL     1      29.884   2.212  54.893  1.00  0.00     0.186 HD
BRANCH  10  12
HETATM   12  C3  UNL     1      29.614   0.260  53.438  1.00  0.00     0.108 C 
HETATM   13  C2  UNL     1      29.398  -0.911  54.009  1.00  0.00     0.037 C 
BRANCH  13  14
HETATM   14  C1  UNL     1      29.234  -2.058  53.128  1.00  0.00     0.108 C 
HETATM   15  N1  UNL     1      28.734  -3.197  53.396  1.00  0.00    -0.312 NA
HETATM   16  H1  UNL     1      28.375  -3.386  54.377  1.00  0.00     0.186 HD
ENDBRANCH  13  14
ENDBRANCH  10  12
ENDBRANCH   8  10
ENDBRANCH   1   8
BRANCH   4  17
HETATM   17  O1  UNL     1      23.626   1.633  51.587  1.00  0.00    -0.345 OA
BRANCH  17  18
HETATM   18  C8  UNL     1      22.468   2.164  52.199  1.00  0.00     0.214 C 
BRANCH  18  19
HETATM   19  C9  UNL     1      21.533   1.116  52.644  1.00  0.00    -0.031 A 
HETATM   20  C10 UNL     1      20.278   1.230  52.062  1.00  0.00     0.009 A 
HETATM   21  C11 UNL     1      19.280   0.313  52.381  1.00  0.00     0.004 A 
HETATM   22  C12 UNL     1      19.481  -0.738  53.275  1.00  0.00     0.042 A 
HETATM   23  C13 UNL     1      20.748  -0.817  53.835  1.00  0.00     0.117 A 
HETATM   24  F1  UNL     1      21.015  -1.814  54.713  1.00  0.00    -0.206 F 
HETATM   25  C14 UNL     1      21.739   0.079  53.528  1.00  0.00     0.051 A 
ENDBRANCH  18  19
ENDBRANCH  17  18
ENDBRANCH   4  17
TORSDOF 7
ENDMDL
MODEL 5
REMARK VINA RESULT:      -7.4      3.271      4.150
REMARK  7 active torsions:
REMARK  status: ('A' for Active; 'I' for Inactive)
REMARK    1  A    between atoms: C1_2  and  C2_3 
REMARK    2  A    between atoms: C3_4  and  N2_5 
REMARK    3  A    between atoms: N2_5  and  N3_6 
REMARK    4  A    between atoms: N3_6  and  C4_7 
REMARK    5  A    between atoms: C7_10  and  O1_11 
REMARK    6  A    between atoms: O1_11  and  C8_12 
REMARK    7  A    between atoms: C8_12  and  C9_13 
ROOT
HETATM    1  C4  UNL     1      25.966   0.932  54.146  1.00  0.00     0.049 A 
HETATM    2  C5  UNL     1      25.165  -0.153  53.859  1.00  0.00     0.034 A 
HETATM    3  C6  UNL     1      23.972   0.067  53.201  1.00  0.00     0.041 A 
HETATM    4  C7  UNL     1      23.578   1.328  52.834  1.00  0.00     0.091 A 
HETATM    5  C15 UNL     1      24.349   2.439  53.102  1.00  0.00     0.069 A 
HETATM    6 CL1  UNL     1      23.847   4.050  52.632  1.00  0.00    -0.081 Cl
HETATM    7  C16 UNL     1      25.543   2.201  53.762  1.00  0.00     0.057 A 
ENDROOT
BRANCH   1   8
HETATM    8  N3  UNL     1      27.240   0.899  54.824  1.00  0.00    -0.301 N 
HETATM    9  H6  UNL     1      26.851   0.601  55.768  1.00  0.00     0.187 HD
BRANCH   8  10
HETATM   10  N2  UNL     1      28.589   1.149  54.474  1.00  0.00    -0.311 N 
HETATM   11  H5  UNL     1      28.284   2.136  54.484  1.00  0.00     0.186 HD
BRANCH  10  12
HETATM   12  C3  UNL     1      28.988  -0.210  54.464  1.00  0.00     0.108 C 
HETATM   13  C2  UNL     1      28.903  -0.866  53.321  1.00  0.00     0.037 C 
BRANCH  13  14
HETATM   14  C1  UNL     1      29.317  -2.261  53.325  1.00  0.00     0.108 C 
HETATM   15  N1  UNL     1      28.586  -3.303  53.292  1.00  0.00    -0.312 NA
HETATM   16  H1  UNL     1      27.531  -3.193  53.256  1.00  0.00     0.186 HD
ENDBRANCH  13  14
ENDBRANCH  10  12
ENDBRANCH   8  10
ENDBRANCH   1   8
BRANCH   4  17
HETATM   17  O1  UNL     1      22.375   1.538  52.171  1.00  0.00    -0.345 OA
BRANCH  17  18
HETATM   18  C8  UNL     1      21.981   0.787  51.041  1.00  0.00     0.214 C 
BRANCH  18  19
HETATM   19  C9  UNL     1      21.817   1.619  49.837  1.00  0.00    -0.031 A 
HETATM   20  C10 UNL     1      22.951   2.361  49.535  1.00  0.00     0.009 A 
HETATM   21  C11 UNL     1      22.955   3.200  48.424  1.00  0.00     0.004 A 
HETATM   22  C12 UNL     1      21.854   3.337  47.580  1.00  0.00     0.042 A 
HETATM   23  C13 UNL     1      20.741   2.579  47.916  1.00  0.00     0.117 A 
HETATM   24  F1  UNL     1      19.634   2.661  47.139  1.00  0.00    -0.206 F 
HETATM   25  C14 UNL     1      20.725   1.749  49.006  1.00  0.00     0.051 A 
ENDBRANCH  18  19
ENDBRANCH  17  18
ENDBRANCH   4  17
TORSDOF 7
ENDMDL
MODEL 6
REMARK VINA RESULT:      -7.4      4.540      8.623
REMARK  7 active torsions:
REMARK  status: ('A' for Active; 'I' for Inactive)
REMARK    1  A    between atoms: C1_2  and  C2_3 
REMARK    2  A    between atoms: C3_4  and  N2_5 
REMARK    3  A    between atoms: N2_5  and  N3_6 
REMARK    4  A    between atoms: N3_6  and  C4_7 
REMARK    5  A    between atoms: C7_10  and  O1_11 
REMARK    6  A    between atoms: O1_11  and  C8_12 
REMARK    7  A    between atoms: C8_12  and  C9_13 
ROOT
HETATM    1  C4  UNL     1      20.857  -0.352  53.512  1.00  0.00     0.049 A 
HETATM    2  C5  UNL     1      21.237   0.634  52.625  1.00  0.00     0.034 A 
HETATM    3  C6  UNL     1      22.565   1.008  52.589  1.00  0.00     0.041 A 
HETATM    4  C7  UNL     1      23.497   0.423  53.409  1.00  0.00     0.091 A 
HETATM    5  C15 UNL     1      23.158  -0.565  54.308  1.00  0.00     0.069 A 
HETATM    6 CL1  UNL     1      24.347  -1.313  55.355  1.00  0.00    -0.081 Cl
HETATM    7  C16 UNL     1      21.821  -0.929  54.332  1.00  0.00     0.057 A 
ENDROOT
BRANCH   1   8
HETATM    8  N3  UNL     1      19.522  -0.871  53.692  1.00  0.00    -0.301 N 
HETATM    9  H6  UNL     1      19.027   0.063  53.574  1.00  0.00     0.187 HD
BRANCH   8  10
HETATM   10  N2  UNL     1      18.946  -2.141  53.940  1.00  0.00    -0.311 N 
HETATM   11  H5  UNL     1      19.916  -2.401  54.181  1.00  0.00     0.186 HD
BRANCH  10  12
HETATM   12  C3  UNL     1      17.622  -1.765  53.604  1.00  0.00     0.108 C 
HETATM   13  C2  UNL     1      17.453  -0.993  52.546  1.00  0.00     0.037 C 
BRANCH  13  14
HETATM   14  C1  UNL     1      16.088  -0.615  52.212  1.00  0.00     0.108 C 
HETATM   15  N1  UNL     1      15.010  -0.936  52.807  1.00  0.00    -0.312 NA
HETATM   16  H1  UNL     1      15.059  -1.559  53.666  1.00  0.00     0.186 HD
ENDBRANCH  13  14
ENDBRANCH  10  12
ENDBRANCH   8  10
ENDBRANCH   1   8
BRANCH   4  17
HETATM   17  O1  UNL     1      24.831   0.807  53.364  1.00  0.00    -0.345 OA
BRANCH  17  18
HETATM   18  C8  UNL     1      25.690   0.470  52.294  1.00  0.00     0.214 C 
BRANCH  18  19
HETATM   19  C9  UNL     1      27.014   0.016  52.753  1.00  0.00    -0.031 A 
HETATM   20  C10 UNL     1      27.851   1.065  53.107  1.00  0.00     0.009 A 
HETATM   21  C11 UNL     1      29.140   0.801  53.562  1.00  0.00     0.004 A 
HETATM   22  C12 UNL     1      29.645  -0.493  53.684  1.00  0.00     0.042 A 
HETATM   23  C13 UNL     1      28.777  -1.514  53.321  1.00  0.00     0.117 A 
HETATM   24  F1  UNL     1      29.201  -2.797  53.414  1.00  0.00    -0.206 F 
HETATM   25  C14 UNL     1      27.506  -1.266  52.872  1.00  0.00     0.051 A 
ENDBRANCH  18  19
ENDBRANCH  17  18
ENDBRANCH   4  17
TORSDOF 7
ENDMDL
MODEL 7
REMARK VINA RESULT:      -7.3      1.419      1.823
REMARK  7 active torsions:
REMARK  status: ('A' for Active; 'I' for Inactive)
REMARK    1  A    between atoms: C1_2  and  C2_3 
REMARK    2  A    between atoms: C3_4  and  N2_5 
REMARK    3  A    between atoms: N2_5  and  N3_6 
REMARK    4  A    between atoms: N3_6  and  C4_7 
REMARK    5  A    between atoms: C7_10  and  O1_11 
REMARK    6  A    between atoms: O1_11  and  C8_12 
REMARK    7  A    between atoms: C8_12  and  C9_13 
ROOT
HETATM    1  C4  UNL     1      26.431   1.044  54.044  1.00  0.00     0.049 A 
HETATM    2  C5  UNL     1      25.844  -0.167  54.346  1.00  0.00     0.034 A 
HETATM    3  C6  UNL     1      24.559  -0.403  53.901  1.00  0.00     0.041 A 
HETATM    4  C7  UNL     1      23.869   0.533  53.174  1.00  0.00     0.091 A 
HETATM    5  C15 UNL     1      24.419   1.755  52.851  1.00  0.00     0.069 A 
HETATM    6 CL1  UNL     1      23.538   2.951  51.922  1.00  0.00    -0.081 Cl
HETATM    7  C16 UNL     1      25.709   1.976  53.304  1.00  0.00     0.057 A 
ENDROOT
BRANCH   1   8
HETATM    8  N3  UNL     1      27.758   1.469  54.420  1.00  0.00    -0.301 N 
HETATM    9  H6  UNL     1      27.460   1.978  55.306  1.00  0.00     0.187 HD
BRANCH   8  10
HETATM   10  N2  UNL     1      29.064   1.326  53.892  1.00  0.00    -0.311 N 
HETATM   11  H5  UNL     1      28.969   2.337  53.704  1.00  0.00     0.186 HD
BRANCH  10  12
HETATM   12  C3  UNL     1      29.174  -0.061  54.157  1.00  0.00     0.108 C 
HETATM   13  C2  UNL     1      29.176  -0.885  53.125  1.00  0.00     0.037 C 
BRANCH  13  14
HETATM   14  C1  UNL     1      29.290  -2.307  53.412  1.00  0.00     0.108 C 
HETATM   15  N1  UNL     1      28.548  -3.258  53.006  1.00  0.00    -0.312 NA
HETATM   16  H1  UNL     1      27.726  -3.038  52.373  1.00  0.00     0.186 HD
ENDBRANCH  13  14
ENDBRANCH  10  12
ENDBRANCH   8  10
ENDBRANCH   1   8
BRANCH   4  17
HETATM   17  O1  UNL     1      22.575   0.284  52.732  1.00  0.00    -0.345 OA
BRANCH  17  18
HETATM   18  C8  UNL     1      21.507  -0.002  53.611  1.00  0.00     0.214 C 
BRANCH  18  19
HETATM   19  C9  UNL     1      20.218  -0.134  52.910  1.00  0.00    -0.031 A 
HETATM   20  C10 UNL     1      20.174   0.581  51.721  1.00  0.00     0.009 A 
HETATM   21  C11 UNL     1      19.022   0.558  50.940  1.00  0.00     0.004 A 
HETATM   22  C12 UNL     1      17.884  -0.163  51.298  1.00  0.00     0.042 A 
HETATM   23  C13 UNL     1      17.968  -0.865  52.492  1.00  0.00     0.117 A 
HETATM   24  F1  UNL     1      16.899  -1.589  52.903  1.00  0.00    -0.206 F 
HETATM   25  C14 UNL     1      19.097  -0.850  53.269  1.00  0.00     0.051 A 
ENDBRANCH  18  19
ENDBRANCH  17  18
ENDBRANCH   4  17
TORSDOF 7
ENDMDL
MODEL 8
REMARK VINA RESULT:      -7.3      4.980      8.700
REMARK  7 active torsions:
REMARK  status: ('A' for Active; 'I' for Inactive)
REMARK    1  A    between atoms: C1_2  and  C2_3 
REMARK    2  A    between atoms: C3_4  and  N2_5 
REMARK    3  A    between atoms: N2_5  and  N3_6 
REMARK    4  A    between atoms: N3_6  and  C4_7 
REMARK    5  A    between atoms: C7_10  and  O1_11 
REMARK    6  A    between atoms: O1_11  and  C8_12 
REMARK    7  A    between atoms: C8_12  and  C9_13 
ROOT
HETATM    1  C4  UNL     1      21.015  -0.950  53.867  1.00  0.00     0.049 A 
HETATM    2  C5  UNL     1      22.257  -1.380  54.285  1.00  0.00     0.034 A 
HETATM    3  C6  UNL     1      23.356  -0.600  53.988  1.00  0.00     0.041 A 
HETATM    4  C7  UNL     1      23.233   0.578  53.296  1.00  0.00     0.091 A 
HETATM    5  C15 UNL     1      22.011   1.043  52.861  1.00  0.00     0.069 A 
HETATM    6 CL1  UNL     1      21.853   2.548  51.978  1.00  0.00    -0.081 Cl
HETATM    7  C16 UNL     1      20.918   0.249  53.167  1.00  0.00     0.057 A 
ENDROOT
BRANCH   1   8
HETATM    8  N3  UNL     1      19.758  -1.626  54.083  1.00  0.00    -0.301 N 
HETATM    9  H6  UNL     1      20.166  -2.433  54.644  1.00  0.00     0.187 HD
BRANCH   8  10
HETATM   10  N2  UNL     1      18.405  -1.403  53.732  1.00  0.00    -0.311 N 
HETATM   11  H5  UNL     1      18.722  -0.428  53.608  1.00  0.00     0.186 HD
BRANCH  10  12
HETATM   12  C3  UNL     1      17.988  -2.745  53.907  1.00  0.00     0.108 C 
HETATM   13  C2  UNL     1      16.939  -3.157  53.220  1.00  0.00     0.037 C 
BRANCH  13  14
HETATM   14  C1  UNL     1      16.522  -4.538  53.410  1.00  0.00     0.108 C 
HETATM   15  N1  UNL     1      15.457  -5.106  53.007  1.00  0.00    -0.312 NA
HETATM   16  H1  UNL     1      14.748  -4.542  52.454  1.00  0.00     0.186 HD
ENDBRANCH  13  14
ENDBRANCH  10  12
ENDBRANCH   8  10
ENDBRANCH   1   8
BRANCH   4  17
HETATM   17  O1  UNL     1      24.347   1.355  53.003  1.00  0.00    -0.345 OA
BRANCH  17  18
HETATM   18  C8  UNL     1      25.343   0.951  52.086  1.00  0.00     0.214 C 
BRANCH  18  19
HETATM   19  C9  UNL     1      26.679   0.873  52.701  1.00  0.00    -0.031 A 
HETATM   20  C10 UNL     1      27.182  -0.421  52.738  1.00  0.00     0.009 A 
HETATM   21  C11 UNL     1      28.437  -0.661  53.290  1.00  0.00     0.004 A 
HETATM   22  C12 UNL     1      29.234   0.352  53.819  1.00  0.00     0.042 A 
HETATM   23  C13 UNL     1      28.697   1.631  53.763  1.00  0.00     0.117 A 
HETATM   24  F1  UNL     1      29.416   2.666  54.258  1.00  0.00    -0.206 F 
HETATM   25  C14 UNL     1      27.463   1.880  53.221  1.00  0.00     0.051 A 
ENDBRANCH  18  19
ENDBRANCH  17  18
ENDBRANCH   4  17
TORSDOF 7
ENDMDL
MODEL 9
REMARK VINA RESULT:      -7.3      4.328      8.474
REMARK  7 active torsions:
REMARK  status: ('A' for Active; 'I' for Inactive)
REMARK    1  A    between atoms: C1_2  and  C2_3 
REMARK    2  A    between atoms: C3_4  and  N2_5 
REMARK    3  A    between atoms: N2_5  and  N3_6 
REMARK    4  A    between atoms: N3_6  and  C4_7 
REMARK    5  A    between atoms: C7_10  and  O1_11 
REMARK    6  A    between atoms: O1_11  and  C8_12 
REMARK    7  A    between atoms: C8_12  and  C9_13 
ROOT
HETATM    1  C4  UNL     1      21.631   1.271  52.375  1.00  0.00     0.049 A 
HETATM    2  C5  UNL     1      22.856   1.583  51.823  1.00  0.00     0.034 A 
HETATM    3  C6  UNL     1      23.981   0.966  52.331  1.00  0.00     0.041 A 
HETATM    4  C7  UNL     1      23.899   0.061  53.359  1.00  0.00     0.091 A 
HETATM    5  C15 UNL     1      22.695  -0.278  53.938  1.00  0.00     0.069 A 
HETATM    6 CL1  UNL     1      22.590  -1.433  55.250  1.00  0.00    -0.081 Cl
HETATM    7  C16 UNL     1      21.576   0.350  53.416  1.00  0.00     0.057 A 
ENDROOT
BRANCH   1   8
HETATM    8  N3  UNL     1      20.352   1.812  51.978  1.00  0.00    -0.301 N 
HETATM    9  H6  UNL     1      20.361   2.623  52.666  1.00  0.00     0.187 HD
BRANCH   8  10
HETATM   10  N2  UNL     1      19.352   1.479  51.032  1.00  0.00    -0.311 N 
HETATM   11  H5  UNL     1      19.977   1.975  50.376  1.00  0.00     0.186 HD
BRANCH  10  12
HETATM   12  C3  UNL     1      18.509   0.804  51.948  1.00  0.00     0.108 C 
HETATM   13  C2  UNL     1      18.108  -0.414  51.630  1.00  0.00     0.037 C 
BRANCH  13  14
HETATM   14  C1  UNL     1      17.242  -1.096  52.580  1.00  0.00     0.108 C 
HETATM   15  N1  UNL     1      17.411  -1.257  53.831  1.00  0.00    -0.312 NA
HETATM   16  H1  UNL     1      18.282  -0.859  54.290  1.00  0.00     0.186 HD
ENDBRANCH  13  14
ENDBRANCH  10  12
ENDBRANCH   8  10
ENDBRANCH   1   8
BRANCH   4  17
HETATM   17  O1  UNL     1      25.039  -0.554  53.863  1.00  0.00    -0.345 OA
BRANCH  17  18
HETATM   18  C8  UNL     1      26.050  -1.089  53.034  1.00  0.00     0.214 C 
BRANCH  18  19
HETATM   19  C9  UNL     1      27.363  -0.462  53.267  1.00  0.00    -0.031 A 
HETATM   20  C10 UNL     1      28.410  -1.372  53.232  1.00  0.00     0.009 A 
HETATM   21  C11 UNL     1      29.716  -0.934  53.435  1.00  0.00     0.004 A 
HETATM   22  C12 UNL     1      30.034   0.401  53.676  1.00  0.00     0.042 A 
HETATM   23  C13 UNL     1      28.960   1.280  53.703  1.00  0.00     0.117 A 
HETATM   24  F1  UNL     1      29.194   2.594  53.932  1.00  0.00    -0.206 F 
HETATM   25  C14 UNL     1      27.670   0.861  53.504  1.00  0.00     0.051 A 
ENDBRANCH  18  19
ENDBRANCH  17  18
ENDBRANCH   4  17
TORSDOF 7
ENDMDL
