MODEL 1
REMARK VINA RESULT:      -8.3      0.000      0.000
REMARK  6 active torsions:
REMARK  status: ('A' for Active; 'I' for Inactive)
REMARK    1  A    between atoms: C2_2  and  C3_3 
REMARK       I    between atoms: C3_3  and  N1_5 
REMARK    2  A    between atoms: N1_5  and  C4_6 
REMARK    3  A    between atoms: N2_12  and  C9_13 
REMARK    4  A    between atoms: C9_13  and  C10_14 
REMARK    5  A    between atoms: C10_14  and  C11_15 
REMARK    6  A    between atoms: C14_20  and  N5_21 
ROOT
HETATM    1  C10 UNL     1      23.560   1.232  53.120  1.00  0.00     0.064 C 
ENDROOT
BRANCH   1   2
HETATM    2  C9  UNL     1      24.833   0.458  52.730  1.00  0.00     0.128 C 
BRANCH   2   3
HETATM    3  N2  UNL     1      25.986   1.029  53.341  1.00  0.00    -0.379 N 
HETATM    4  C5  UNL     1      26.965   1.903  52.731  1.00  0.00     0.046 C 
HETATM    5  C4  UNL     1      26.519   2.515  51.632  1.00  0.00     0.118 C 
HETATM    6  C6  UNL     1      28.316   2.097  53.300  1.00  0.00     0.225 C 
HETATM    7  O2  UNL     1      28.542   1.388  54.437  1.00  0.00    -0.384 OA
HETATM    8  C7  UNL     1      27.753   0.317  54.708  1.00  0.00     0.187 C 
HETATM    9  C8  UNL     1      26.274   0.757  54.764  1.00  0.00     0.149 C 
BRANCH   5  10
HETATM   10  N1  UNL     1      26.807   3.421  50.588  1.00  0.00    -0.332 N 
HETATM   11  C3  UNL     1      26.000   4.477  50.105  1.00  0.00     0.241 C 
HETATM   12  O1  UNL     1      24.870   4.769  50.558  1.00  0.00    -0.269 OA
HETATM   13  H4  UNL     1      27.671   3.475  49.984  1.00  0.00     0.168 HD
BRANCH  11  14
HETATM   14  C2  UNL     1      26.328   5.384  49.023  1.00  0.00     0.048 C 
HETATM   15  C1  UNL     1      26.786   6.537  48.575  1.00  0.00     0.037 C 
ENDBRANCH  11  14
ENDBRANCH   5  10
ENDBRANCH   2   3
ENDBRANCH   1   2
BRANCH   1  16
HETATM   16  C11 UNL     1      22.550   0.263  53.509  1.00  0.00     0.007 A 
HETATM   17  C12 UNL     1      22.933  -0.814  54.263  1.00  0.00     0.129 A 
HETATM   18  N3  UNL     1      22.038  -1.718  54.673  1.00  0.00    -0.253 NA
HETATM   19  C13 UNL     1      20.758  -1.610  54.370  1.00  0.00     0.234 A 
HETATM   20  N4  UNL     1      20.413  -0.559  53.640  1.00  0.00    -0.224 NA
HETATM   21  C14 UNL     1      21.235   0.399  53.179  1.00  0.00     0.138 A 
BRANCH  21  22
HETATM   22  N5  UNL     1      20.623   1.404  52.344  1.00  0.00    -0.323 N 
HETATM   23  C15 UNL     1      20.079   0.852  51.083  1.00  0.00     0.157 C 
HETATM   24  C16 UNL     1      21.241   0.673  50.169  1.00  0.00     0.024 C 
HETATM   25  C17 UNL     1      21.789   1.870  49.976  1.00  0.00     0.072 C 
HETATM   26 CL1  UNL     1      23.174   2.395  49.024  1.00  0.00    -0.077 Cl
HETATM   27  S1  UNL     1      21.183   3.385  50.718  1.00  0.00    -0.060 SA
HETATM   28  C18 UNL     1      20.386   2.830  52.295  1.00  0.00     0.343 C 
HETATM   29  F1  UNL     1      19.005   3.015  52.160  1.00  0.00    -0.214 F 
ENDBRANCH  21  22
ENDBRANCH   1  16
TORSDOF 6
ENDMDL
MODEL 2
REMARK VINA RESULT:      -8.2      3.428      5.509
REMARK  6 active torsions:
REMARK  status: ('A' for Active; 'I' for Inactive)
REMARK    1  A    between atoms: C2_2  and  C3_3 
REMARK       I    between atoms: C3_3  and  N1_5 
REMARK    2  A    between atoms: N1_5  and  C4_6 
REMARK    3  A    between atoms: N2_12  and  C9_13 
REMARK    4  A    between atoms: C9_13  and  C10_14 
REMARK    5  A    between atoms: C10_14  and  C11_15 
REMARK    6  A    between atoms: C14_20  and  N5_21 
ROOT
HETATM    1  C10 UNL     1      23.330   0.457  52.501  1.00  0.00     0.064 C 
ENDROOT
BRANCH   1   2
HETATM    2  C9  UNL     1      23.232   1.961  52.812  1.00  0.00     0.128 C 
BRANCH   2   3
HETATM    3  N2  UNL     1      22.352   2.616  51.903  1.00  0.00    -0.379 N 
HETATM    4  C5  UNL     1      22.686   3.641  50.938  1.00  0.00     0.046 C 
HETATM    5  C4  UNL     1      23.984   3.678  50.629  1.00  0.00     0.118 C 
HETATM    6  C6  UNL     1      21.667   4.538  50.352  1.00  0.00     0.225 C 
HETATM    7  O2  UNL     1      20.405   4.304  50.798  1.00  0.00    -0.384 OA
HETATM    8  C7  UNL     1      20.238   3.627  51.962  1.00  0.00     0.187 C 
HETATM    9  C8  UNL     1      20.922   2.247  51.869  1.00  0.00     0.149 C 
BRANCH   5  10
HETATM   10  N1  UNL     1      24.997   4.294  49.861  1.00  0.00    -0.332 N 
HETATM   11  C3  UNL     1      26.323   3.850  49.653  1.00  0.00     0.241 C 
HETATM   12  O1  UNL     1      26.802   2.801  50.139  1.00  0.00    -0.269 OA
HETATM   13  H4  UNL     1      24.947   5.191  49.307  1.00  0.00     0.168 HD
BRANCH  11  14
HETATM   14  C2  UNL     1      27.338   4.516  48.861  1.00  0.00     0.048 C 
HETATM   15  C1  UNL     1      27.948   5.607  48.440  1.00  0.00     0.037 C 
ENDBRANCH  11  14
ENDBRANCH   5  10
ENDBRANCH   2   3
ENDBRANCH   1   2
BRANCH   1  16
HETATM   16  C11 UNL     1      23.663  -0.234  53.735  1.00  0.00     0.007 A 
HETATM   17  C12 UNL     1      22.656  -0.849  54.431  1.00  0.00     0.129 A 
HETATM   18  N3  UNL     1      22.913  -1.524  55.555  1.00  0.00    -0.253 NA
HETATM   19  C13 UNL     1      24.138  -1.625  56.036  1.00  0.00     0.234 A 
HETATM   20  N4  UNL     1      25.093  -1.022  55.345  1.00  0.00    -0.224 NA
HETATM   21  C14 UNL     1      24.937  -0.320  54.209  1.00  0.00     0.138 A 
BRANCH  21  22
HETATM   22  N5  UNL     1      26.129   0.301  53.684  1.00  0.00    -0.323 N 
HETATM   23  C15 UNL     1      26.387  -0.049  52.270  1.00  0.00     0.157 C 
HETATM   24  C16 UNL     1      26.993  -1.409  52.280  1.00  0.00     0.024 C 
HETATM   25  C17 UNL     1      28.125  -1.339  52.974  1.00  0.00     0.072 C 
HETATM   26 CL1  UNL     1      29.337  -2.551  53.384  1.00  0.00    -0.077 Cl
HETATM   27  S1  UNL     1      28.748   0.159  53.736  1.00  0.00    -0.060 SA
HETATM   28  C18 UNL     1      27.226   1.150  54.095  1.00  0.00     0.343 C 
HETATM   29  F1  UNL     1      27.231   2.260  53.242  1.00  0.00    -0.214 F 
ENDBRANCH  21  22
ENDBRANCH   1  16
TORSDOF 6
ENDMDL
MODEL 3
REMARK VINA RESULT:      -7.9      3.459      5.266
REMARK  6 active torsions:
REMARK  status: ('A' for Active; 'I' for Inactive)
REMARK    1  A    between atoms: C2_2  and  C3_3 
REMARK       I    between atoms: C3_3  and  N1_5 
REMARK    2  A    between atoms: N1_5  and  C4_6 
REMARK    3  A    between atoms: N2_12  and  C9_13 
REMARK    4  A    between atoms: C9_13  and  C10_14 
REMARK    5  A    between atoms: C10_14  and  C11_15 
REMARK    6  A    between atoms: C14_20  and  N5_21 
ROOT
HETATM    1  C10 UNL     1      24.527   1.907  51.878  1.00  0.00     0.064 C 
ENDROOT
BRANCH   1   2
HETATM    2  C9  UNL     1      23.761   2.313  50.605  1.00  0.00     0.128 C 
BRANCH   2   3
HETATM    3  N2  UNL     1      23.601   3.726  50.533  1.00  0.00    -0.379 N 
HETATM    4  C5  UNL     1      24.634   4.721  50.342  1.00  0.00     0.046 C 
HETATM    5  C4  UNL     1      25.753   4.229  49.807  1.00  0.00     0.118 C 
HETATM    6  C6  UNL     1      24.439   6.143  50.696  1.00  0.00     0.225 C 
HETATM    7  O2  UNL     1      23.210   6.420  51.207  1.00  0.00    -0.384 OA
HETATM    8  C7  UNL     1      22.471   5.404  51.719  1.00  0.00     0.187 C 
HETATM    9  C8  UNL     1      22.253   4.320  50.642  1.00  0.00     0.149 C 
BRANCH   5  10
HETATM   10  N1  UNL     1      27.060   4.503  49.346  1.00  0.00    -0.332 N 
HETATM   11  C3  UNL     1      27.494   5.594  48.558  1.00  0.00     0.241 C 
HETATM   12  O1  UNL     1      26.747   6.509  48.145  1.00  0.00    -0.269 OA
HETATM   13  H4  UNL     1      27.943   3.948  49.506  1.00  0.00     0.168 HD
BRANCH  11  14
HETATM   14  C2  UNL     1      28.846   5.837  48.098  1.00  0.00     0.048 C 
HETATM   15  C1  UNL     1      30.136   5.559  48.090  1.00  0.00     0.037 C 
ENDBRANCH  11  14
ENDBRANCH   5  10
ENDBRANCH   2   3
ENDBRANCH   1   2
BRANCH   1  16
HETATM   16  C11 UNL     1      23.659   1.051  52.668  1.00  0.00     0.007 A 
HETATM   17  C12 UNL     1      22.344   1.408  52.812  1.00  0.00     0.129 A 
HETATM   18  N3  UNL     1      21.497   0.639  53.502  1.00  0.00    -0.253 NA
HETATM   19  C13 UNL     1      21.889  -0.486  54.069  1.00  0.00     0.234 A 
HETATM   20  N4  UNL     1      23.165  -0.809  53.915  1.00  0.00    -0.224 NA
HETATM   21  C14 UNL     1      24.092  -0.105  53.244  1.00  0.00     0.138 A 
BRANCH  21  22
HETATM   22  N5  UNL     1      25.433  -0.636  53.282  1.00  0.00    -0.323 N 
HETATM   23  C15 UNL     1      26.009  -0.653  54.645  1.00  0.00     0.157 C 
HETATM   24  C16 UNL     1      26.456   0.739  54.926  1.00  0.00     0.024 C 
HETATM   25  C17 UNL     1      27.375   1.058  54.018  1.00  0.00     0.072 C 
HETATM   26 CL1  UNL     1      28.317   2.522  53.753  1.00  0.00    -0.077 Cl
HETATM   27  S1  UNL     1      27.925  -0.044  52.715  1.00  0.00    -0.060 SA
HETATM   28  C18 UNL     1      26.466  -1.140  52.403  1.00  0.00     0.343 C 
HETATM   29  F1  UNL     1      26.798  -2.424  52.849  1.00  0.00    -0.214 F 
ENDBRANCH  21  22
ENDBRANCH   1  16
TORSDOF 6
ENDMDL
MODEL 4
REMARK VINA RESULT:      -7.8      2.789      5.604
REMARK  6 active torsions:
REMARK  status: ('A' for Active; 'I' for Inactive)
REMARK    1  A    between atoms: C2_2  and  C3_3 
REMARK       I    between atoms: C3_3  and  N1_5 
REMARK    2  A    between atoms: N1_5  and  C4_6 
REMARK    3  A    between atoms: N2_12  and  C9_13 
REMARK    4  A    between atoms: C9_13  and  C10_14 
REMARK    5  A    between atoms: C10_14  and  C11_15 
REMARK    6  A    between atoms: C14_20  and  N5_21 
ROOT
HETATM    1  C10 UNL     1      22.770   2.210  51.723  1.00  0.00     0.064 C 
ENDROOT
BRANCH   1   2
HETATM    2  C9  UNL     1      22.746   0.671  51.751  1.00  0.00     0.128 C 
BRANCH   2   3
HETATM    3  N2  UNL     1      22.642   0.185  53.085  1.00  0.00    -0.379 N 
HETATM    4  C5  UNL     1      23.643  -0.538  53.840  1.00  0.00     0.046 C 
HETATM    5  C4  UNL     1      24.881  -0.381  53.366  1.00  0.00     0.118 C 
HETATM    6  C6  UNL     1      23.305  -1.350  55.028  1.00  0.00     0.225 C 
HETATM    7  O2  UNL     1      21.982  -1.346  55.340  1.00  0.00    -0.384 OA
HETATM    8  C7  UNL     1      21.086  -0.995  54.383  1.00  0.00     0.187 C 
HETATM    9  C8  UNL     1      21.407   0.421  53.860  1.00  0.00     0.149 C 
BRANCH   5  10
HETATM   10  N1  UNL     1      26.250  -0.696  53.517  1.00  0.00    -0.332 N 
HETATM   11  C3  UNL     1      27.264   0.092  54.109  1.00  0.00     0.241 C 
HETATM   12  O1  UNL     1      27.079   1.225  54.608  1.00  0.00    -0.269 OA
HETATM   13  H4  UNL     1      26.760  -1.569  53.216  1.00  0.00     0.168 HD
BRANCH  11  14
HETATM   14  C2  UNL     1      28.663  -0.264  54.238  1.00  0.00     0.048 C 
HETATM   15  C1  UNL     1      29.756  -0.851  53.789  1.00  0.00     0.037 C 
ENDBRANCH  11  14
ENDBRANCH   5  10
ENDBRANCH   2   3
ENDBRANCH   1   2
BRANCH   1  16
HETATM   16  C11 UNL     1      24.036   2.627  51.145  1.00  0.00     0.007 A 
HETATM   17  C12 UNL     1      25.142   2.660  51.953  1.00  0.00     0.129 A 
HETATM   18  N3  UNL     1      26.338   3.006  51.465  1.00  0.00    -0.253 NA
HETATM   19  C13 UNL     1      26.499   3.327  50.195  1.00  0.00     0.234 A 
HETATM   20  N4  UNL     1      25.414   3.287  49.435  1.00  0.00    -0.224 NA
HETATM   21  C14 UNL     1      24.173   2.954  49.830  1.00  0.00     0.138 A 
BRANCH  21  22
HETATM   22  N5  UNL     1      23.144   3.055  48.823  1.00  0.00    -0.323 N 
HETATM   23  C15 UNL     1      22.926   4.444  48.359  1.00  0.00     0.157 C 
HETATM   24  C16 UNL     1      22.095   5.107  49.402  1.00  0.00     0.024 C 
HETATM   25  C17 UNL     1      20.947   4.439  49.486  1.00  0.00     0.072 C 
HETATM   26 CL1  UNL     1      19.520   4.665  50.494  1.00  0.00    -0.077 Cl
HETATM   27  S1  UNL     1      20.543   3.005  48.491  1.00  0.00    -0.060 SA
HETATM   28  C18 UNL     1      22.185   2.238  48.113  1.00  0.00     0.343 C 
HETATM   29  F1  UNL     1      22.429   2.409  46.746  1.00  0.00    -0.214 F 
ENDBRANCH  21  22
ENDBRANCH   1  16
TORSDOF 6
ENDMDL
MODEL 5
REMARK VINA RESULT:      -7.6      3.060      5.881
REMARK  6 active torsions:
REMARK  status: ('A' for Active; 'I' for Inactive)
REMARK    1  A    between atoms: C2_2  and  C3_3 
REMARK       I    between atoms: C3_3  and  N1_5 
REMARK    2  A    between atoms: N1_5  and  C4_6 
REMARK    3  A    between atoms: N2_12  and  C9_13 
REMARK    4  A    between atoms: C9_13  and  C10_14 
REMARK    5  A    between atoms: C10_14  and  C11_15 
REMARK    6  A    between atoms: C14_20  and  N5_21 
ROOT
HETATM    1  C10 UNL     1      22.350   1.943  51.637  1.00  0.00     0.064 C 
ENDROOT
BRANCH   1   2
HETATM    2  C9  UNL     1      22.756   0.464  51.773  1.00  0.00     0.128 C 
BRANCH   2   3
HETATM    3  N2  UNL     1      22.804   0.070  53.141  1.00  0.00    -0.379 N 
HETATM    4  C5  UNL     1      23.911  -0.543  53.842  1.00  0.00     0.046 C 
HETATM    5  C4  UNL     1      25.089  -0.357  53.243  1.00  0.00     0.118 C 
HETATM    6  C6  UNL     1      23.731  -1.285  55.109  1.00  0.00     0.225 C 
HETATM    7  O2  UNL     1      22.445  -1.328  55.544  1.00  0.00    -0.384 OA
HETATM    8  C7  UNL     1      21.445  -1.094  54.656  1.00  0.00     0.187 C 
HETATM    9  C8  UNL     1      21.633   0.296  54.012  1.00  0.00     0.149 C 
BRANCH   5  10
HETATM   10  N1  UNL     1      26.482  -0.588  53.283  1.00  0.00    -0.332 N 
HETATM   11  C3  UNL     1      27.437  -0.003  54.145  1.00  0.00     0.241 C 
HETATM   12  O1  UNL     1      27.167   0.836  55.035  1.00  0.00    -0.269 OA
HETATM   13  H4  UNL     1      27.057  -1.235  52.680  1.00  0.00     0.168 HD
BRANCH  11  14
HETATM   14  C2  UNL     1      28.863  -0.261  54.150  1.00  0.00     0.048 C 
HETATM   15  C1  UNL     1      29.926  -0.904  53.705  1.00  0.00     0.037 C 
ENDBRANCH  11  14
ENDBRANCH   5  10
ENDBRANCH   2   3
ENDBRANCH   1   2
BRANCH   1  16
HETATM   16  C11 UNL     1      22.220   2.242  50.221  1.00  0.00     0.007 A 
HETATM   17  C12 UNL     1      21.101   1.808  49.562  1.00  0.00     0.129 A 
HETATM   18  N3  UNL     1      20.918   2.084  48.267  1.00  0.00    -0.253 NA
HETATM   19  C13 UNL     1      21.801   2.780  47.577  1.00  0.00     0.234 A 
HETATM   20  N4  UNL     1      22.875   3.189  48.238  1.00  0.00    -0.224 NA
HETATM   21  C14 UNL     1      23.150   2.962  49.533  1.00  0.00     0.138 A 
BRANCH  21  22
HETATM   22  N5  UNL     1      24.423   3.456  50.002  1.00  0.00    -0.323 N 
HETATM   23  C15 UNL     1      24.295   4.646  50.872  1.00  0.00     0.157 C 
HETATM   24  C16 UNL     1      24.079   5.806  49.964  1.00  0.00     0.024 C 
HETATM   25  C17 UNL     1      25.143   5.899  49.171  1.00  0.00     0.072 C 
HETATM   26 CL1  UNL     1      25.559   7.021  47.878  1.00  0.00    -0.077 Cl
HETATM   27  S1  UNL     1      26.549   4.789  49.239  1.00  0.00    -0.060 SA
HETATM   28  C18 UNL     1      25.841   3.200  49.874  1.00  0.00     0.343 C 
HETATM   29  F1  UNL     1      26.342   2.999  51.165  1.00  0.00    -0.214 F 
ENDBRANCH  21  22
ENDBRANCH   1  16
TORSDOF 6
ENDMDL
MODEL 6
REMARK VINA RESULT:      -7.6      2.657      5.418
REMARK  6 active torsions:
REMARK  status: ('A' for Active; 'I' for Inactive)
REMARK    1  A    between atoms: C2_2  and  C3_3 
REMARK       I    between atoms: C3_3  and  N1_5 
REMARK    2  A    between atoms: N1_5  and  C4_6 
REMARK    3  A    between atoms: N2_12  and  C9_13 
REMARK    4  A    between atoms: C9_13  and  C10_14 
REMARK    5  A    between atoms: C10_14  and  C11_15 
REMARK    6  A    between atoms: C14_20  and  N5_21 
ROOT
HETATM    1  C10 UNL     1      22.881   2.266  52.179  1.00  0.00     0.064 C 
ENDROOT
BRANCH   1   2
HETATM    2  C9  UNL     1      22.944   0.731  52.086  1.00  0.00     0.128 C 
BRANCH   2   3
HETATM    3  N2  UNL     1      22.701   0.130  53.354  1.00  0.00    -0.379 N 
HETATM    4  C5  UNL     1      23.622  -0.655  54.148  1.00  0.00     0.046 C 
HETATM    5  C4  UNL     1      24.902  -0.458  53.827  1.00  0.00     0.118 C 
HETATM    6  C6  UNL     1      23.164  -1.568  55.218  1.00  0.00     0.225 C 
HETATM    7  O2  UNL     1      21.816  -1.591  55.383  1.00  0.00    -0.384 OA
HETATM    8  C7  UNL     1      21.025  -1.158  54.369  1.00  0.00     0.187 C 
HETATM    9  C8  UNL     1      21.387   0.299  54.008  1.00  0.00     0.149 C 
BRANCH   5  10
HETATM   10  N1  UNL     1      26.250  -0.786  54.096  1.00  0.00    -0.332 N 
HETATM   11  C3  UNL     1      27.378  -0.572  53.272  1.00  0.00     0.241 C 
HETATM   12  O1  UNL     1      27.338  -0.036  52.142  1.00  0.00    -0.269 OA
HETATM   13  H4  UNL     1      26.654  -1.245  54.956  1.00  0.00     0.168 HD
BRANCH  11  14
HETATM   14  C2  UNL     1      28.748  -0.930  53.582  1.00  0.00     0.048 C 
HETATM   15  C1  UNL     1      30.042  -0.673  53.580  1.00  0.00     0.037 C 
ENDBRANCH  11  14
ENDBRANCH   5  10
ENDBRANCH   2   3
ENDBRANCH   1   2
BRANCH   1  16
HETATM   16  C11 UNL     1      23.853   2.811  51.248  1.00  0.00     0.007 A 
HETATM   17  C12 UNL     1      25.184   2.671  51.537  1.00  0.00     0.129 A 
HETATM   18  N3  UNL     1      26.120   3.127  50.698  1.00  0.00    -0.253 NA
HETATM   19  C13 UNL     1      25.801   3.726  49.566  1.00  0.00     0.234 A 
HETATM   20  N4  UNL     1      24.507   3.849  49.310  1.00  0.00    -0.224 NA
HETATM   21  C14 UNL     1      23.494   3.427  50.087  1.00  0.00     0.138 A 
BRANCH  21  22
HETATM   22  N5  UNL     1      22.167   3.744  49.617  1.00  0.00    -0.323 N 
HETATM   23  C15 UNL     1      21.435   2.559  49.116  1.00  0.00     0.157 C 
HETATM   24  C16 UNL     1      21.954   2.296  47.745  1.00  0.00     0.024 C 
HETATM   25  C17 UNL     1      21.697   3.371  47.005  1.00  0.00     0.072 C 
HETATM   26 CL1  UNL     1      22.026   3.749  45.316  1.00  0.00    -0.077 Cl
HETATM   27  S1  UNL     1      20.872   4.840  47.616  1.00  0.00    -0.060 SA
HETATM   28  C18 UNL     1      21.286   4.874  49.421  1.00  0.00     0.343 C 
HETATM   29  F1  UNL     1      20.110   4.609  50.131  1.00  0.00    -0.214 F 
ENDBRANCH  21  22
ENDBRANCH   1  16
TORSDOF 6
ENDMDL
MODEL 7
REMARK VINA RESULT:      -7.6      2.755      5.235
REMARK  6 active torsions:
REMARK  status: ('A' for Active; 'I' for Inactive)
REMARK    1  A    between atoms: C2_2  and  C3_3 
REMARK       I    between atoms: C3_3  and  N1_5 
REMARK    2  A    between atoms: N1_5  and  C4_6 
REMARK    3  A    between atoms: N2_12  and  C9_13 
REMARK    4  A    between atoms: C9_13  and  C10_14 
REMARK    5  A    between atoms: C10_14  and  C11_15 
REMARK    6  A    between atoms: C14_20  and  N5_21 
ROOT
HETATM    1  C10 UNL     1      22.353   2.097  51.808  1.00  0.00     0.064 C 
ENDROOT
BRANCH   1   2
HETATM    2  C9  UNL     1      22.718   0.602  51.860  1.00  0.00     0.128 C 
BRANCH   2   3
HETATM    3  N2  UNL     1      22.746   0.128  53.203  1.00  0.00    -0.379 N 
HETATM    4  C5  UNL     1      23.839  -0.537  53.879  1.00  0.00     0.046 C 
HETATM    5  C4  UNL     1      25.025  -0.329  53.305  1.00  0.00     0.118 C 
HETATM    6  C6  UNL     1      23.637  -1.349  55.098  1.00  0.00     0.225 C 
HETATM    7  O2  UNL     1      22.345  -1.404  55.517  1.00  0.00    -0.384 OA
HETATM    8  C7  UNL     1      21.358  -1.107  54.633  1.00  0.00     0.187 C 
HETATM    9  C8  UNL     1      21.568   0.317  54.073  1.00  0.00     0.149 C 
BRANCH   5  10
HETATM   10  N1  UNL     1      26.415  -0.578  53.345  1.00  0.00    -0.332 N 
HETATM   11  C3  UNL     1      27.382   0.022  54.185  1.00  0.00     0.241 C 
HETATM   12  O1  UNL     1      27.128   0.891  55.048  1.00  0.00    -0.269 OA
HETATM   13  H4  UNL     1      26.979  -1.252  52.761  1.00  0.00     0.168 HD
BRANCH  11  14
HETATM   14  C2  UNL     1      28.805  -0.256  54.191  1.00  0.00     0.048 C 
HETATM   15  C1  UNL     1      29.884  -0.791  53.653  1.00  0.00     0.037 C 
ENDBRANCH  11  14
ENDBRANCH   5  10
ENDBRANCH   2   3
ENDBRANCH   1   2
BRANCH   1  16
HETATM   16  C11 UNL     1      21.257   2.257  50.868  1.00  0.00     0.007 A 
HETATM   17  C12 UNL     1      20.487   1.163  50.570  1.00  0.00     0.129 A 
HETATM   18  N3  UNL     1      19.447   1.264  49.736  1.00  0.00    -0.253 NA
HETATM   19  C13 UNL     1      19.123   2.411  49.171  1.00  0.00     0.234 A 
HETATM   20  N4  UNL     1      19.883   3.453  49.475  1.00  0.00    -0.224 NA
HETATM   21  C14 UNL     1      20.946   3.454  50.297  1.00  0.00     0.138 A 
BRANCH  21  22
HETATM   22  N5  UNL     1      21.652   4.707  50.410  1.00  0.00    -0.323 N 
HETATM   23  C15 UNL     1      22.054   5.263  49.099  1.00  0.00     0.157 C 
HETATM   24  C16 UNL     1      23.271   4.513  48.682  1.00  0.00     0.024 C 
HETATM   25  C17 UNL     1      24.207   4.723  49.604  1.00  0.00     0.072 C 
HETATM   26 CL1  UNL     1      25.868   4.154  49.751  1.00  0.00    -0.077 Cl
HETATM   27  S1  UNL     1      23.974   5.739  51.062  1.00  0.00    -0.060 SA
HETATM   28  C18 UNL     1      22.159   5.624  51.408  1.00  0.00     0.343 C 
HETATM   29  F1  UNL     1      21.596   6.877  51.142  1.00  0.00    -0.214 F 
ENDBRANCH  21  22
ENDBRANCH   1  16
TORSDOF 6
ENDMDL
MODEL 8
REMARK VINA RESULT:      -7.6      3.622      5.592
REMARK  6 active torsions:
REMARK  status: ('A' for Active; 'I' for Inactive)
REMARK    1  A    between atoms: C2_2  and  C3_3 
REMARK       I    between atoms: C3_3  and  N1_5 
REMARK    2  A    between atoms: N1_5  and  C4_6 
REMARK    3  A    between atoms: N2_12  and  C9_13 
REMARK    4  A    between atoms: C9_13  and  C10_14 
REMARK    5  A    between atoms: C10_14  and  C11_15 
REMARK    6  A    between atoms: C14_20  and  N5_21 
ROOT
HETATM    1  C10 UNL     1      24.546   1.736  51.543  1.00  0.00     0.064 C 
ENDROOT
BRANCH   1   2
HETATM    2  C9  UNL     1      24.092   3.207  51.520  1.00  0.00     0.128 C 
BRANCH   2   3
HETATM    3  N2  UNL     1      23.833   3.642  50.188  1.00  0.00    -0.379 N 
HETATM    4  C5  UNL     1      24.286   4.862  49.556  1.00  0.00     0.046 C 
HETATM    5  C4  UNL     1      25.342   5.413  50.159  1.00  0.00     0.118 C 
HETATM    6  C6  UNL     1      23.636   5.417  48.349  1.00  0.00     0.225 C 
HETATM    7  O2  UNL     1      22.591   4.675  47.896  1.00  0.00    -0.384 OA
HETATM    8  C7  UNL     1      21.992   3.802  48.746  1.00  0.00     0.187 C 
HETATM    9  C8  UNL     1      23.032   2.795  49.281  1.00  0.00     0.149 C 
BRANCH   5  10
HETATM   10  N1  UNL     1      26.281   6.468  50.162  1.00  0.00    -0.332 N 
HETATM   11  C3  UNL     1      26.026   7.859  50.193  1.00  0.00     0.241 C 
HETATM   12  O1  UNL     1      24.883   8.368  50.227  1.00  0.00    -0.269 OA
HETATM   13  H4  UNL     1      27.334   6.411  50.143  1.00  0.00     0.168 HD
BRANCH  11  14
HETATM   14  C2  UNL     1      27.019   8.914  50.188  1.00  0.00     0.048 C 
HETATM   15  C1  UNL     1      27.903   9.671  49.566  1.00  0.00     0.037 C 
ENDBRANCH  11  14
ENDBRANCH   5  10
ENDBRANCH   2   3
ENDBRANCH   1   2
BRANCH   1  16
HETATM   16  C11 UNL     1      23.697   1.021  52.480  1.00  0.00     0.007 A 
HETATM   17  C12 UNL     1      22.393   1.420  52.616  1.00  0.00     0.129 A 
HETATM   18  N3  UNL     1      21.562   0.777  53.441  1.00  0.00    -0.253 NA
HETATM   19  C13 UNL     1      21.959  -0.261  54.153  1.00  0.00     0.234 A 
HETATM   20  N4  UNL     1      23.224  -0.626  54.003  1.00  0.00    -0.224 NA
HETATM   21  C14 UNL     1      24.135  -0.046  53.204  1.00  0.00     0.138 A 
BRANCH  21  22
HETATM   22  N5  UNL     1      25.470  -0.591  53.272  1.00  0.00    -0.323 N 
HETATM   23  C15 UNL     1      26.031  -0.572  54.642  1.00  0.00     0.157 C 
HETATM   24  C16 UNL     1      26.492   0.822  54.886  1.00  0.00     0.024 C 
HETATM   25  C17 UNL     1      27.424   1.102  53.978  1.00  0.00     0.072 C 
HETATM   26 CL1  UNL     1      28.386   2.547  53.679  1.00  0.00    -0.077 Cl
HETATM   27  S1  UNL     1      27.974  -0.044  52.715  1.00  0.00    -0.060 SA
HETATM   28  C18 UNL     1      26.506  -1.133  52.420  1.00  0.00     0.343 C 
HETATM   29  F1  UNL     1      26.817  -2.407  52.908  1.00  0.00    -0.214 F 
ENDBRANCH  21  22
ENDBRANCH   1  16
TORSDOF 6
ENDMDL
MODEL 9
REMARK VINA RESULT:      -7.4      3.320      5.751
REMARK  6 active torsions:
REMARK  status: ('A' for Active; 'I' for Inactive)
REMARK    1  A    between atoms: C2_2  and  C3_3 
REMARK       I    between atoms: C3_3  and  N1_5 
REMARK    2  A    between atoms: N1_5  and  C4_6 
REMARK    3  A    between atoms: N2_12  and  C9_13 
REMARK    4  A    between atoms: C9_13  and  C10_14 
REMARK    5  A    between atoms: C10_14  and  C11_15 
REMARK    6  A    between atoms: C14_20  and  N5_21 
ROOT
HETATM    1  C10 UNL     1      21.970   1.930  51.695  1.00  0.00     0.064 C 
ENDROOT
BRANCH   1   2
HETATM    2  C9  UNL     1      22.281   0.424  51.758  1.00  0.00     0.128 C 
BRANCH   2   3
HETATM    3  N2  UNL     1      22.381  -0.022  53.107  1.00  0.00    -0.379 N 
HETATM    4  C5  UNL     1      23.584  -0.358  53.838  1.00  0.00     0.046 C 
HETATM    5  C4  UNL     1      24.690   0.170  53.311  1.00  0.00     0.118 C 
HETATM    6  C6  UNL     1      23.561  -1.193  55.058  1.00  0.00     0.225 C 
HETATM    7  O2  UNL     1      22.318  -1.602  55.422  1.00  0.00    -0.384 OA
HETATM    8  C7  UNL     1      21.327  -1.591  54.495  1.00  0.00     0.187 C 
HETATM    9  C8  UNL     1      21.159  -0.166  53.925  1.00  0.00     0.149 C 
BRANCH   5  10
HETATM   10  N1  UNL     1      26.092   0.316  53.412  1.00  0.00    -0.332 N 
HETATM   11  C3  UNL     1      27.078  -0.696  53.356  1.00  0.00     0.241 C 
HETATM   12  O1  UNL     1      26.834  -1.913  53.196  1.00  0.00    -0.269 OA
HETATM   13  H4  UNL     1      26.652   1.200  53.548  1.00  0.00     0.168 HD
BRANCH  11  14
HETATM   14  C2  UNL     1      28.510  -0.507  53.472  1.00  0.00     0.048 C 
HETATM   15  C1  UNL     1      29.745  -0.973  53.475  1.00  0.00     0.037 C 
ENDBRANCH  11  14
ENDBRANCH   5  10
ENDBRANCH   2   3
ENDBRANCH   1   2
BRANCH   1  16
HETATM   16  C11 UNL     1      22.110   2.358  50.313  1.00  0.00     0.007 A 
HETATM   17  C12 UNL     1      21.893   1.440  49.321  1.00  0.00     0.129 A 
HETATM   18  N3  UNL     1      21.978   1.789  48.033  1.00  0.00    -0.253 NA
HETATM   19  C13 UNL     1      22.272   3.023  47.669  1.00  0.00     0.234 A 
HETATM   20  N4  UNL     1      22.478   3.892  48.649  1.00  0.00    -0.224 NA
HETATM   21  C14 UNL     1      22.417   3.639  49.967  1.00  0.00     0.138 A 
BRANCH  21  22
HETATM   22  N5  UNL     1      22.752   4.743  50.835  1.00  0.00    -0.323 N 
HETATM   23  C15 UNL     1      21.559   5.419  51.392  1.00  0.00     0.157 C 
HETATM   24  C16 UNL     1      21.041   6.307  50.315  1.00  0.00     0.024 C 
HETATM   25  C17 UNL     1      21.999   7.182  50.019  1.00  0.00     0.072 C 
HETATM   26 CL1  UNL     1      22.074   8.504  48.858  1.00  0.00    -0.077 Cl
HETATM   27  S1  UNL     1      23.604   7.224  50.816  1.00  0.00    -0.060 SA
HETATM   28  C18 UNL     1      23.898   5.470  51.335  1.00  0.00     0.343 C 
HETATM   29  F1  UNL     1      23.838   5.426  52.732  1.00  0.00    -0.214 F 
ENDBRANCH  21  22
ENDBRANCH   1  16
TORSDOF 6
ENDMDL
