MODEL 1
REMARK VINA RESULT:      -6.9      0.000      0.000
REMARK  8 active torsions:
REMARK  status: ('A' for Active; 'I' for Inactive)
REMARK    1  A    between atoms: C3_3  and  N1_4 
REMARK    2  A    between atoms: N1_4  and  C4_5 
REMARK    3  A    between atoms: C7_10  and  C8_11 
REMARK    4  A    between atoms: C8_11  and  O1_12 
REMARK    5  A    between atoms: C15_20  and  O3_21 
REMARK    6  A    between atoms: O3_21  and  C16_22 
REMARK    7  A    between atoms: C16_22  and  C17_23 
REMARK    8  A    between atoms: C17_23  and  O4_24 
ROOT
HETATM    1  C1  UNL     1      28.738   5.444  48.255  1.00  0.00     0.014 C 
HETATM    2  C2  UNL     1      27.586   5.542  48.539  1.00  0.00    -0.098 C 
HETATM    3  C3  UNL     1      26.171   5.640  48.900  1.00  0.00     0.213 C 
ENDROOT
BRANCH   3   4
HETATM    4  N1  UNL     1      26.001   5.035  50.206  1.00  0.00    -0.380 N 
HETATM    5  H4  UNL     1      26.573   5.168  51.074  1.00  0.00     0.160 HD
BRANCH   4   6
HETATM    6  C4  UNL     1      24.947   4.131  50.420  1.00  0.00     0.053 C 
HETATM    7  C5  UNL     1      24.235   3.698  49.371  1.00  0.00     0.112 C 
HETATM    8  N2  UNL     1      23.069   3.270  49.610  1.00  0.00    -0.238 NA
HETATM    9  C6  UNL     1      22.930   2.054  50.330  1.00  0.00     0.230 C 
HETATM   10  N3  UNL     1      22.751   0.985  51.108  1.00  0.00    -0.249 NA
HETATM   11  C7  UNL     1      22.199   1.203  52.478  1.00  0.00     0.270 C 
HETATM   12  O2  UNL     1      23.377   1.603  53.241  1.00  0.00    -0.346 OA
HETATM   13  C10 UNL     1      24.092   2.575  52.422  1.00  0.00     0.110 A 
HETATM   14  C11 UNL     1      23.181   3.526  52.649  1.00  0.00     0.066 A 
HETATM   15  C15 UNL     1      24.936   1.542  52.279  1.00  0.00     0.067 A 
HETATM   16  C14 UNL     1      25.383   2.564  51.490  1.00  0.00     0.102 A 
HETATM   17  C13 UNL     1      24.494   3.564  51.680  1.00  0.00     0.059 A 
HETATM   18  C12 UNL     1      23.605   4.560  51.872  1.00  0.00    -0.024 A 
BRANCH  11  19
HETATM   19  C8  UNL     1      21.458   0.064  52.936  1.00  0.00     0.222 C 
BRANCH  19  20
HETATM   20  O1  UNL     1      22.121  -1.040  53.403  1.00  0.00    -0.392 OA
HETATM   21  C9  UNL     1      22.129  -1.266  54.738  1.00  0.00     0.201 C 
ENDBRANCH  19  20
ENDBRANCH  11  19
BRANCH  15  22
HETATM   22  O3  UNL     1      25.249   0.279  52.628  1.00  0.00    -0.354 OA
BRANCH  22  23
HETATM   23  C16 UNL     1      26.312  -0.222  53.310  1.00  0.00     0.201 C 
BRANCH  23  24
HETATM   24  C17 UNL     1      26.614   0.563  54.550  1.00  0.00     0.193 C 
BRANCH  24  25
HETATM   25  O4  UNL     1      27.963   0.835  54.749  1.00  0.00    -0.394 OA
HETATM   26  C18 UNL     1      28.524   1.650  53.786  1.00  0.00     0.201 C 
ENDBRANCH  24  25
ENDBRANCH  23  24
ENDBRANCH  22  23
ENDBRANCH  15  22
ENDBRANCH   4   6
ENDBRANCH   3   4
TORSDOF 8
ENDMDL
MODEL 2
REMARK VINA RESULT:      -6.5      2.224      5.655
REMARK  8 active torsions:
REMARK  status: ('A' for Active; 'I' for Inactive)
REMARK    1  A    between atoms: C3_3  and  N1_4 
REMARK    2  A    between atoms: N1_4  and  C4_5 
REMARK    3  A    between atoms: C7_10  and  C8_11 
REMARK    4  A    between atoms: C8_11  and  O1_12 
REMARK    5  A    between atoms: C15_20  and  O3_21 
REMARK    6  A    between atoms: O3_21  and  C16_22 
REMARK    7  A    between atoms: C16_22  and  C17_23 
REMARK    8  A    between atoms: C17_23  and  O4_24 
ROOT
HETATM    1  C1  UNL     1      22.927  -1.470  55.328  1.00  0.00     0.014 C 
HETATM    2  C2  UNL     1      21.977  -1.189  54.668  1.00  0.00    -0.098 C 
HETATM    3  C3  UNL     1      20.823  -0.828  53.844  1.00  0.00     0.213 C 
ENDROOT
BRANCH   3   4
HETATM    4  N1  UNL     1      21.308  -0.499  52.518  1.00  0.00    -0.380 N 
HETATM    5  H4  UNL     1      21.478  -1.133  51.702  1.00  0.00     0.160 HD
BRANCH   4   6
HETATM    6  C4  UNL     1      21.617   0.836  52.205  1.00  0.00     0.053 C 
HETATM    7  C5  UNL     1      20.961   1.822  52.831  1.00  0.00     0.112 C 
HETATM    8  N2  UNL     1      20.923   2.943  52.247  1.00  0.00    -0.238 NA
HETATM    9  C6  UNL     1      22.127   3.686  52.131  1.00  0.00     0.230 C 
HETATM   10  N3  UNL     1      23.254   4.359  51.890  1.00  0.00    -0.249 NA
HETATM   11  C7  UNL     1      23.740   4.423  50.480  1.00  0.00     0.270 C 
HETATM   12  O2  UNL     1      24.428   3.147  50.317  1.00  0.00    -0.346 OA
HETATM   13  C10 UNL     1      23.559   2.130  50.895  1.00  0.00     0.110 A 
HETATM   14  C11 UNL     1      22.696   2.202  49.877  1.00  0.00     0.066 A 
HETATM   15  C15 UNL     1      24.501   2.145  51.850  1.00  0.00     0.067 A 
HETATM   16  C14 UNL     1      23.507   1.298  52.252  1.00  0.00     0.102 A 
HETATM   17  C13 UNL     1      22.599   1.329  51.252  1.00  0.00     0.059 A 
HETATM   18  C12 UNL     1      21.693   1.362  50.253  1.00  0.00    -0.024 A 
BRANCH  11  19
HETATM   19  C8  UNL     1      24.486   5.624  50.233  1.00  0.00     0.222 C 
BRANCH  19  20
HETATM   20  O1  UNL     1      24.457   6.645  51.144  1.00  0.00    -0.392 OA
HETATM   21  C9  UNL     1      23.978   7.847  50.745  1.00  0.00     0.201 C 
ENDBRANCH  19  20
ENDBRANCH  11  19
BRANCH  15  22
HETATM   22  O3  UNL     1      25.689   2.631  52.261  1.00  0.00    -0.354 OA
BRANCH  22  23
HETATM   23  C16 UNL     1      26.949   2.141  52.127  1.00  0.00     0.201 C 
BRANCH  23  24
HETATM   24  C17 UNL     1      27.532   1.707  53.437  1.00  0.00     0.193 C 
BRANCH  24  25
HETATM   25  O4  UNL     1      26.606   1.566  54.464  1.00  0.00    -0.394 OA
HETATM   26  C18 UNL     1      26.485   0.277  54.946  1.00  0.00     0.201 C 
ENDBRANCH  24  25
ENDBRANCH  23  24
ENDBRANCH  22  23
ENDBRANCH  15  22
ENDBRANCH   4   6
ENDBRANCH   3   4
TORSDOF 8
ENDMDL
MODEL 3
REMARK VINA RESULT:      -6.5      2.587      5.210
REMARK  8 active torsions:
REMARK  status: ('A' for Active; 'I' for Inactive)
REMARK    1  A    between atoms: C3_3  and  N1_4 
REMARK    2  A    between atoms: N1_4  and  C4_5 
REMARK    3  A    between atoms: C7_10  and  C8_11 
REMARK    4  A    between atoms: C8_11  and  O1_12 
REMARK    5  A    between atoms: C15_20  and  O3_21 
REMARK    6  A    between atoms: O3_21  and  C16_22 
REMARK    7  A    between atoms: C16_22  and  C17_23 
REMARK    8  A    between atoms: C17_23  and  O4_24 
ROOT
HETATM    1  C1  UNL     1      29.845  -0.959  53.666  1.00  0.00     0.014 C 
HETATM    2  C2  UNL     1      28.722  -1.107  53.301  1.00  0.00    -0.098 C 
HETATM    3  C3  UNL     1      27.332  -1.280  52.875  1.00  0.00     0.213 C 
ENDROOT
BRANCH   3   4
HETATM    4  N1  UNL     1      26.535  -0.264  53.533  1.00  0.00    -0.380 N 
HETATM    5  H4  UNL     1      26.272  -0.185  54.544  1.00  0.00     0.160 HD
BRANCH   4   6
HETATM    6  C4  UNL     1      26.003   0.796  52.780  1.00  0.00     0.053 C 
HETATM    7  C5  UNL     1      26.590   1.135  51.624  1.00  0.00     0.112 C 
HETATM    8  N2  UNL     1      26.393   2.313  51.208  1.00  0.00    -0.238 NA
HETATM    9  C6  UNL     1      25.091   2.663  50.761  1.00  0.00     0.230 C 
HETATM   10  N3  UNL     1      23.860   3.070  50.450  1.00  0.00    -0.249 NA
HETATM   11  C7  UNL     1      23.187   4.029  51.375  1.00  0.00     0.270 C 
HETATM   12  O2  UNL     1      22.669   3.157  52.424  1.00  0.00    -0.346 OA
HETATM   13  C10 UNL     1      23.742   2.228  52.759  1.00  0.00     0.110 A 
HETATM   14  C11 UNL     1      24.444   3.171  53.394  1.00  0.00     0.066 A 
HETATM   15  C15 UNL     1      22.942   1.373  52.104  1.00  0.00     0.067 A 
HETATM   16  C14 UNL     1      24.089   0.708  52.434  1.00  0.00     0.102 A 
HETATM   17  C13 UNL     1      24.844   1.620  53.085  1.00  0.00     0.059 A 
HETATM   18  C12 UNL     1      25.596   2.532  53.735  1.00  0.00    -0.024 A 
BRANCH  11  19
HETATM   19  C8  UNL     1      22.253   4.868  50.679  1.00  0.00     0.222 C 
BRANCH  19  20
HETATM   20  O1  UNL     1      21.306   4.306  49.866  1.00  0.00    -0.392 OA
HETATM   21  C9  UNL     1      20.047   4.174  50.345  1.00  0.00     0.201 C 
ENDBRANCH  19  20
ENDBRANCH  11  19
BRANCH  15  22
HETATM   22  O3  UNL     1      21.763   1.176  51.483  1.00  0.00    -0.354 OA
BRANCH  22  23
HETATM   23  C16 UNL     1      20.755   0.300  51.736  1.00  0.00     0.201 C 
BRANCH  23  24
HETATM   24  C17 UNL     1      20.294   0.358  53.160  1.00  0.00     0.193 C 
BRANCH  24  25
HETATM   25  O4  UNL     1      20.440  -0.832  53.864  1.00  0.00    -0.394 OA
HETATM   26  C18 UNL     1      21.536  -0.863  54.703  1.00  0.00     0.201 C 
ENDBRANCH  24  25
ENDBRANCH  23  24
ENDBRANCH  22  23
ENDBRANCH  15  22
ENDBRANCH   4   6
ENDBRANCH   3   4
TORSDOF 8
ENDMDL
MODEL 4
REMARK VINA RESULT:      -6.4      2.706      4.475
REMARK  8 active torsions:
REMARK  status: ('A' for Active; 'I' for Inactive)
REMARK    1  A    between atoms: C3_3  and  N1_4 
REMARK    2  A    between atoms: N1_4  and  C4_5 
REMARK    3  A    between atoms: C7_10  and  C8_11 
REMARK    4  A    between atoms: C8_11  and  O1_12 
REMARK    5  A    between atoms: C15_20  and  O3_21 
REMARK    6  A    between atoms: O3_21  and  C16_22 
REMARK    7  A    between atoms: C16_22  and  C17_23 
REMARK    8  A    between atoms: C17_23  and  O4_24 
ROOT
HETATM    1  C1  UNL     1      26.158  -0.488  52.698  1.00  0.00     0.014 C 
HETATM    2  C2  UNL     1      26.373   0.564  52.184  1.00  0.00    -0.098 C 
HETATM    3  C3  UNL     1      26.614   1.864  51.556  1.00  0.00     0.213 C 
ENDROOT
BRANCH   3   4
HETATM    4  N1  UNL     1      25.745   2.833  52.193  1.00  0.00    -0.380 N 
HETATM    5  H4  UNL     1      25.901   3.381  53.072  1.00  0.00     0.160 HD
BRANCH   4   6
HETATM    6  C4  UNL     1      24.501   3.136  51.613  1.00  0.00     0.053 C 
HETATM    7  C5  UNL     1      24.382   3.122  50.278  1.00  0.00     0.112 C 
HETATM    8  N2  UNL     1      23.438   3.802  49.782  1.00  0.00    -0.238 NA
HETATM    9  C6  UNL     1      22.104   3.370  50.003  1.00  0.00     0.230 C 
HETATM   10  N3  UNL     1      20.836   3.071  50.289  1.00  0.00    -0.249 NA
HETATM   11  C7  UNL     1      20.090   3.990  51.200  1.00  0.00     0.270 C 
HETATM   12  O2  UNL     1      20.526   3.557  52.523  1.00  0.00    -0.346 OA
HETATM   13  C10 UNL     1      21.971   3.385  52.449  1.00  0.00     0.110 A 
HETATM   14  C11 UNL     1      22.188   4.703  52.417  1.00  0.00     0.066 A 
HETATM   15  C15 UNL     1      21.623   2.090  52.497  1.00  0.00     0.067 A 
HETATM   16  C14 UNL     1      22.977   2.156  52.325  1.00  0.00     0.102 A 
HETATM   17  C13 UNL     1      23.257   3.478  52.285  1.00  0.00     0.059 A 
HETATM   18  C12 UNL     1      23.535   4.797  52.246  1.00  0.00    -0.024 A 
BRANCH  11  19
HETATM   19  C8  UNL     1      18.683   3.983  50.920  1.00  0.00     0.222 C 
BRANCH  19  20
HETATM   20  O1  UNL     1      17.789   3.715  51.923  1.00  0.00    -0.392 OA
HETATM   21  C9  UNL     1      16.851   2.764  51.709  1.00  0.00     0.201 C 
ENDBRANCH  19  20
ENDBRANCH  11  19
BRANCH  15  22
HETATM   22  O3  UNL     1      20.631   1.188  52.627  1.00  0.00    -0.354 OA
BRANCH  22  23
HETATM   23  C16 UNL     1      20.628  -0.070  53.141  1.00  0.00     0.201 C 
BRANCH  23  24
HETATM   24  C17 UNL     1      20.984  -0.091  54.596  1.00  0.00     0.193 C 
BRANCH  24  25
HETATM   25  O4  UNL     1      21.501  -1.300  55.048  1.00  0.00    -0.394 OA
HETATM   26  C18 UNL     1      22.871  -1.300  55.221  1.00  0.00     0.201 C 
ENDBRANCH  24  25
ENDBRANCH  23  24
ENDBRANCH  22  23
ENDBRANCH  15  22
ENDBRANCH   4   6
ENDBRANCH   3   4
TORSDOF 8
ENDMDL
MODEL 5
REMARK VINA RESULT:      -6.0      2.849      5.381
REMARK  8 active torsions:
REMARK  status: ('A' for Active; 'I' for Inactive)
REMARK    1  A    between atoms: C3_3  and  N1_4 
REMARK    2  A    between atoms: N1_4  and  C4_5 
REMARK    3  A    between atoms: C7_10  and  C8_11 
REMARK    4  A    between atoms: C8_11  and  O1_12 
REMARK    5  A    between atoms: C15_20  and  O3_21 
REMARK    6  A    between atoms: O3_21  and  C16_22 
REMARK    7  A    between atoms: C16_22  and  C17_23 
REMARK    8  A    between atoms: C17_23  and  O4_24 
ROOT
HETATM    1  C1  UNL     1      29.826  -1.777  53.475  1.00  0.00     0.014 C 
HETATM    2  C2  UNL     1      29.267  -0.726  53.469  1.00  0.00    -0.098 C 
HETATM    3  C3  UNL     1      28.572   0.562  53.438  1.00  0.00     0.213 C 
ENDROOT
BRANCH   3   4
HETATM    4  N1  UNL     1      27.425   0.427  52.561  1.00  0.00    -0.380 N 
HETATM    5  H4  UNL     1      27.295  -0.208  51.738  1.00  0.00     0.160 HD
BRANCH   4   6
HETATM    6  C4  UNL     1      26.290   1.227  52.777  1.00  0.00     0.053 C 
HETATM    7  C5  UNL     1      26.353   2.223  53.671  1.00  0.00     0.112 C 
HETATM    8  N2  UNL     1      25.257   2.619  54.162  1.00  0.00    -0.238 NA
HETATM    9  C6  UNL     1      24.346   3.305  53.316  1.00  0.00     0.230 C 
HETATM   10  N3  UNL     1      23.411   3.842  52.531  1.00  0.00    -0.249 NA
HETATM   11  C7  UNL     1      22.189   3.032  52.246  1.00  0.00     0.270 C 
HETATM   12  O2  UNL     1      22.631   2.148  51.172  1.00  0.00    -0.346 OA
HETATM   13  C10 UNL     1      23.942   1.644  51.563  1.00  0.00     0.110 A 
HETATM   14  C11 UNL     1      23.422   0.840  52.494  1.00  0.00     0.066 A 
HETATM   15  C15 UNL     1      24.337   2.483  50.594  1.00  0.00     0.067 A 
HETATM   16  C14 UNL     1      25.455   1.957  51.177  1.00  0.00     0.102 A 
HETATM   17  C13 UNL     1      24.988   1.127  52.136  1.00  0.00     0.059 A 
HETATM   18  C12 UNL     1      24.520   0.300  53.093  1.00  0.00    -0.024 A 
BRANCH  11  19
HETATM   19  C8  UNL     1      21.048   3.866  52.001  1.00  0.00     0.222 C 
BRANCH  19  20
HETATM   20  O1  UNL     1      19.795   3.424  52.335  1.00  0.00    -0.392 OA
HETATM   21  C9  UNL     1      18.787   3.630  51.456  1.00  0.00     0.201 C 
ENDBRANCH  19  20
ENDBRANCH  11  19
BRANCH  15  22
HETATM   22  O3  UNL     1      23.973   3.339  49.618  1.00  0.00    -0.354 OA
BRANCH  22  23
HETATM   23  C16 UNL     1      24.591   4.442  49.121  1.00  0.00     0.201 C 
BRANCH  23  24
HETATM   24  C17 UNL     1      23.653   5.601  48.975  1.00  0.00     0.193 C 
BRANCH  24  25
HETATM   25  O4  UNL     1      24.016   6.733  49.695  1.00  0.00    -0.394 OA
HETATM   26  C18 UNL     1      23.215   6.988  50.791  1.00  0.00     0.201 C 
ENDBRANCH  24  25
ENDBRANCH  23  24
ENDBRANCH  22  23
ENDBRANCH  15  22
ENDBRANCH   4   6
ENDBRANCH   3   4
TORSDOF 8
ENDMDL
MODEL 6
REMARK VINA RESULT:      -6.0      8.561     10.968
REMARK  8 active torsions:
REMARK  status: ('A' for Active; 'I' for Inactive)
REMARK    1  A    between atoms: C3_3  and  N1_4 
REMARK    2  A    between atoms: N1_4  and  C4_5 
REMARK    3  A    between atoms: C7_10  and  C8_11 
REMARK    4  A    between atoms: C8_11  and  O1_12 
REMARK    5  A    between atoms: C15_20  and  O3_21 
REMARK    6  A    between atoms: O3_21  and  C16_22 
REMARK    7  A    between atoms: C16_22  and  C17_23 
REMARK    8  A    between atoms: C17_23  and  O4_24 
ROOT
HETATM    1  C1  UNL     1      35.161   3.761  45.290  1.00  0.00     0.014 C 
HETATM    2  C2  UNL     1      34.475   3.489  46.224  1.00  0.00    -0.098 C 
HETATM    3  C3  UNL     1      33.618   3.176  47.369  1.00  0.00     0.213 C 
ENDROOT
BRANCH   3   4
HETATM    4  N1  UNL     1      32.310   3.748  47.115  1.00  0.00    -0.380 N 
HETATM    5  H4  UNL     1      31.560   3.416  46.465  1.00  0.00     0.160 HD
BRANCH   4   6
HETATM    6  C4  UNL     1      31.919   4.913  47.798  1.00  0.00     0.053 C 
HETATM    7  C5  UNL     1      32.464   5.184  48.992  1.00  0.00     0.112 C 
HETATM    8  N2  UNL     1      31.807   5.946  49.758  1.00  0.00    -0.238 NA
HETATM    9  C6  UNL     1      31.672   7.313  49.400  1.00  0.00     0.230 C 
HETATM   10  N3  UNL     1      31.416   8.572  49.041  1.00  0.00    -0.249 NA
HETATM   11  C7  UNL     1      30.017   8.915  48.647  1.00  0.00     0.270 C 
HETATM   12  O2  UNL     1      29.955   8.471  47.258  1.00  0.00    -0.346 OA
HETATM   13  C10 UNL     1      30.575   7.153  47.216  1.00  0.00     0.110 A 
HETATM   14  C11 UNL     1      29.534   6.575  47.821  1.00  0.00     0.066 A 
HETATM   15  C15 UNL     1      31.550   7.847  46.609  1.00  0.00     0.067 A 
HETATM   16  C14 UNL     1      31.982   6.559  46.762  1.00  0.00     0.102 A 
HETATM   17  C13 UNL     1      30.960   5.921  47.374  1.00  0.00     0.059 A 
HETATM   18  C12 UNL     1      29.940   5.286  47.985  1.00  0.00    -0.024 A 
BRANCH  11  19
HETATM   19  C8  UNL     1      29.711  10.288  48.927  1.00  0.00     0.222 C 
BRANCH  19  20
HETATM   20  O1  UNL     1      30.689  11.123  49.400  1.00  0.00    -0.392 OA
HETATM   21  C9  UNL     1      30.839  12.333  48.812  1.00  0.00     0.201 C 
ENDBRANCH  19  20
ENDBRANCH  11  19
BRANCH  15  22
HETATM   22  O3  UNL     1      31.958   9.033  46.117  1.00  0.00    -0.354 OA
BRANCH  22  23
HETATM   23  C16 UNL     1      33.201   9.502  45.830  1.00  0.00     0.201 C 
BRANCH  23  24
HETATM   24  C17 UNL     1      33.897  10.047  47.039  1.00  0.00     0.193 C 
BRANCH  24  25
HETATM   25  O4  UNL     1      35.150   9.497  47.283  1.00  0.00    -0.394 OA
HETATM   26  C18 UNL     1      35.136   8.413  48.138  1.00  0.00     0.201 C 
ENDBRANCH  24  25
ENDBRANCH  23  24
ENDBRANCH  22  23
ENDBRANCH  15  22
ENDBRANCH   4   6
ENDBRANCH   3   4
TORSDOF 8
ENDMDL
MODEL 7
REMARK VINA RESULT:      -5.8      2.029      4.363
REMARK  8 active torsions:
REMARK  status: ('A' for Active; 'I' for Inactive)
REMARK    1  A    between atoms: C3_3  and  N1_4 
REMARK    2  A    between atoms: N1_4  and  C4_5 
REMARK    3  A    between atoms: C7_10  and  C8_11 
REMARK    4  A    between atoms: C8_11  and  O1_12 
REMARK    5  A    between atoms: C15_20  and  O3_21 
REMARK    6  A    between atoms: O3_21  and  C16_22 
REMARK    7  A    between atoms: C16_22  and  C17_23 
REMARK    8  A    between atoms: C17_23  and  O4_24 
ROOT
HETATM    1  C1  UNL     1      22.202   5.541  46.630  1.00  0.00     0.014 C 
HETATM    2  C2  UNL     1      21.594   5.271  47.617  1.00  0.00    -0.098 C 
HETATM    3  C3  UNL     1      20.849   4.916  48.825  1.00  0.00     0.213 C 
ENDROOT
BRANCH   3   4
HETATM    4  N1  UNL     1      21.384   3.665  49.326  1.00  0.00    -0.380 N 
HETATM    5  H4  UNL     1      21.127   2.684  49.060  1.00  0.00     0.160 HD
BRANCH   4   6
HETATM    6  C4  UNL     1      22.389   3.684  50.308  1.00  0.00     0.053 C 
HETATM    7  C5  UNL     1      22.285   4.540  51.333  1.00  0.00     0.112 C 
HETATM    8  N2  UNL     1      23.356   4.852  51.928  1.00  0.00    -0.238 NA
HETATM    9  C6  UNL     1      24.016   3.858  52.698  1.00  0.00     0.230 C 
HETATM   10  N3  UNL     1      24.731   2.926  53.330  1.00  0.00    -0.249 NA
HETATM   11  C7  UNL     1      26.019   2.496  52.709  1.00  0.00     0.270 C 
HETATM   12  O2  UNL     1      25.587   1.531  51.703  1.00  0.00    -0.346 OA
HETATM   13  C10 UNL     1      24.445   2.126  51.020  1.00  0.00     0.110 A 
HETATM   14  C11 UNL     1      25.214   3.001  50.367  1.00  0.00     0.066 A 
HETATM   15  C15 UNL     1      23.786   1.195  51.727  1.00  0.00     0.067 A 
HETATM   16  C14 UNL     1      22.862   1.954  51.065  1.00  0.00     0.102 A 
HETATM   17  C13 UNL     1      23.589   2.864  50.379  1.00  0.00     0.059 A 
HETATM   18  C12 UNL     1      24.315   3.772  49.696  1.00  0.00    -0.024 A 
BRANCH  11  19
HETATM   19  C8  UNL     1      26.962   2.057  53.698  1.00  0.00     0.222 C 
BRANCH  19  20
HETATM   20  O1  UNL     1      26.519   1.426  54.830  1.00  0.00    -0.392 OA
HETATM   21  C9  UNL     1      26.555   0.073  54.864  1.00  0.00     0.201 C 
ENDBRANCH  19  20
ENDBRANCH  11  19
BRANCH  15  22
HETATM   22  O3  UNL     1      23.865   0.147  52.569  1.00  0.00    -0.354 OA
BRANCH  22  23
HETATM   23  C16 UNL     1      23.069  -0.230  53.604  1.00  0.00     0.201 C 
BRANCH  23  24
HETATM   24  C17 UNL     1      21.911  -1.069  53.154  1.00  0.00     0.193 C 
BRANCH  24  25
HETATM   25  O4  UNL     1      20.686  -0.702  53.698  1.00  0.00    -0.394 OA
HETATM   26  C18 UNL     1      20.754   0.349  54.591  1.00  0.00     0.201 C 
ENDBRANCH  24  25
ENDBRANCH  23  24
ENDBRANCH  22  23
ENDBRANCH  15  22
ENDBRANCH   4   6
ENDBRANCH   3   4
TORSDOF 8
ENDMDL
MODEL 8
REMARK VINA RESULT:      -5.6      8.103     10.373
REMARK  8 active torsions:
REMARK  status: ('A' for Active; 'I' for Inactive)
REMARK    1  A    between atoms: C3_3  and  N1_4 
REMARK    2  A    between atoms: N1_4  and  C4_5 
REMARK    3  A    between atoms: C7_10  and  C8_11 
REMARK    4  A    between atoms: C8_11  and  O1_12 
REMARK    5  A    between atoms: C15_20  and  O3_21 
REMARK    6  A    between atoms: O3_21  and  C16_22 
REMARK    7  A    between atoms: C16_22  and  C17_23 
REMARK    8  A    between atoms: C17_23  and  O4_24 
ROOT
HETATM    1  C1  UNL     1      32.689   1.764  47.197  1.00  0.00     0.014 C 
HETATM    2  C2  UNL     1      33.211   2.830  47.100  1.00  0.00    -0.098 C 
HETATM    3  C3  UNL     1      33.836   4.146  46.960  1.00  0.00     0.213 C 
ENDROOT
BRANCH   3   4
HETATM    4  N1  UNL     1      32.834   5.064  46.458  1.00  0.00    -0.380 N 
HETATM    5  H4  UNL     1      32.513   5.216  45.472  1.00  0.00     0.160 HD
BRANCH   4   6
HETATM    6  C4  UNL     1      32.152   5.904  47.355  1.00  0.00     0.053 C 
HETATM    7  C5  UNL     1      32.770   6.303  48.475  1.00  0.00     0.112 C 
HETATM    8  N2  UNL     1      32.032   6.661  49.437  1.00  0.00    -0.238 NA
HETATM    9  C6  UNL     1      31.286   7.862  49.306  1.00  0.00     0.230 C 
HETATM   10  N3  UNL     1      30.475   8.914  49.178  1.00  0.00    -0.249 NA
HETATM   11  C7  UNL     1      29.009   8.655  49.061  1.00  0.00     0.270 C 
HETATM   12  O2  UNL     1      28.852   8.319  47.650  1.00  0.00    -0.346 OA
HETATM   13  C10 UNL     1      29.930   7.395  47.320  1.00  0.00     0.110 A 
HETATM   14  C11 UNL     1      29.358   6.392  47.991  1.00  0.00     0.066 A 
HETATM   15  C15 UNL     1      30.395   8.476  46.676  1.00  0.00     0.067 A 
HETATM   16  C14 UNL     1      31.332   7.487  46.571  1.00  0.00     0.102 A 
HETATM   17  C13 UNL     1      30.803   6.436  47.237  1.00  0.00     0.059 A 
HETATM   18  C12 UNL     1      30.274   5.389  47.901  1.00  0.00    -0.024 A 
BRANCH  11  19
HETATM   19  C8  UNL     1      28.237   9.747  49.581  1.00  0.00     0.222 C 
BRANCH  19  20
HETATM   20  O1  UNL     1      27.215   9.503  50.459  1.00  0.00    -0.392 OA
HETATM   21  C9  UNL     1      25.973   9.307  49.957  1.00  0.00     0.201 C 
ENDBRANCH  19  20
ENDBRANCH  11  19
BRANCH  15  22
HETATM   22  O3  UNL     1      30.179   9.753  46.304  1.00  0.00    -0.354 OA
BRANCH  22  23
HETATM   23  C16 UNL     1      31.045  10.739  45.950  1.00  0.00     0.201 C 
BRANCH  23  24
HETATM   24  C17 UNL     1      32.048  11.027  47.024  1.00  0.00     0.193 C 
BRANCH  24  25
HETATM   25  O4  UNL     1      33.374  10.939  46.616  1.00  0.00    -0.394 OA
HETATM   26  C18 UNL     1      34.048   9.842  47.115  1.00  0.00     0.201 C 
ENDBRANCH  24  25
ENDBRANCH  23  24
ENDBRANCH  22  23
ENDBRANCH  15  22
ENDBRANCH   4   6
ENDBRANCH   3   4
TORSDOF 8
ENDMDL
MODEL 9
REMARK VINA RESULT:      -5.4      2.409      4.750
REMARK  8 active torsions:
REMARK  status: ('A' for Active; 'I' for Inactive)
REMARK    1  A    between atoms: C3_3  and  N1_4 
REMARK    2  A    between atoms: N1_4  and  C4_5 
REMARK    3  A    between atoms: C7_10  and  C8_11 
REMARK    4  A    between atoms: C8_11  and  O1_12 
REMARK    5  A    between atoms: C15_20  and  O3_21 
REMARK    6  A    between atoms: O3_21  and  C16_22 
REMARK    7  A    between atoms: C16_22  and  C17_23 
REMARK    8  A    between atoms: C17_23  and  O4_24 
ROOT
HETATM    1  C1  UNL     1      28.188   8.046  46.539  1.00  0.00     0.014 C 
HETATM    2  C2  UNL     1      27.085   8.343  46.877  1.00  0.00    -0.098 C 
HETATM    3  C3  UNL     1      25.721   8.688  47.278  1.00  0.00     0.213 C 
ENDROOT
BRANCH   3   4
HETATM    4  N1  UNL     1      24.949   7.462  47.334  1.00  0.00    -0.380 N 
HETATM    5  H4  UNL     1      24.443   6.965  46.563  1.00  0.00     0.160 HD
BRANCH   4   6
HETATM    6  C4  UNL     1      24.814   6.783  48.558  1.00  0.00     0.053 C 
HETATM    7  C5  UNL     1      24.501   7.480  49.659  1.00  0.00     0.112 C 
HETATM    8  N2  UNL     1      24.814   6.961  50.769  1.00  0.00    -0.238 NA
HETATM    9  C6  UNL     1      24.121   5.796  51.191  1.00  0.00     0.230 C 
HETATM   10  N3  UNL     1      23.584   4.635  51.568  1.00  0.00    -0.249 NA
HETATM   11  C7  UNL     1      24.456   3.423  51.547  1.00  0.00     0.270 C 
HETATM   12  O2  UNL     1      24.420   3.023  50.144  1.00  0.00    -0.346 OA
HETATM   13  C10 UNL     1      24.597   4.240  49.361  1.00  0.00     0.110 A 
HETATM   14  C11 UNL     1      25.893   4.326  49.673  1.00  0.00     0.066 A 
HETATM   15  C15 UNL     1      23.294   4.038  49.115  1.00  0.00     0.067 A 
HETATM   16  C14 UNL     1      23.654   5.220  48.531  1.00  0.00     0.102 A 
HETATM   17  C13 UNL     1      24.968   5.361  48.816  1.00  0.00     0.059 A 
HETATM   18  C12 UNL     1      26.279   5.499  49.101  1.00  0.00    -0.024 A 
BRANCH  11  19
HETATM   19  C8  UNL     1      24.047   2.461  52.529  1.00  0.00     0.222 C 
BRANCH  19  20
HETATM   20  O1  UNL     1      24.976   1.636  53.105  1.00  0.00    -0.392 OA
HETATM   21  C9  UNL     1      26.040   2.202  53.723  1.00  0.00     0.201 C 
ENDBRANCH  19  20
ENDBRANCH  11  19
BRANCH  15  22
HETATM   22  O3  UNL     1      22.222   3.239  49.277  1.00  0.00    -0.354 OA
BRANCH  22  23
HETATM   23  C16 UNL     1      21.578   2.419  48.405  1.00  0.00     0.201 C 
BRANCH  23  24
HETATM   24  C17 UNL     1      21.443   1.023  48.931  1.00  0.00     0.193 C 
BRANCH  24  25
HETATM   25  O4  UNL     1      21.798   0.870  50.266  1.00  0.00    -0.394 OA
HETATM   26  C18 UNL     1      20.740   0.574  51.103  1.00  0.00     0.201 C 
ENDBRANCH  24  25
ENDBRANCH  23  24
ENDBRANCH  22  23
ENDBRANCH  15  22
ENDBRANCH   4   6
ENDBRANCH   3   4
TORSDOF 8
ENDMDL
