MODEL 1
REMARK VINA RESULT:      -7.5      0.000      0.000
REMARK  5 active torsions:
REMARK  status: ('A' for Active; 'I' for Inactive)
REMARK    1  A    between atoms: C2_2  and  C3_3 
REMARK    2  A    between atoms: C6_6  and  C7_7 
REMARK    3  A    between atoms: C15_16  and  N2_17 
REMARK    4  A    between atoms: N2_17  and  C16_18 
REMARK    5  A    between atoms: C16_18  and  N3_19 
ROOT
HETATM    1  C3  UNL     1      23.002   2.937  52.415  1.00  0.00     0.005 C 
HETATM    2  C4  UNL     1      24.239   3.180  52.005  1.00  0.00    -0.031 C 
HETATM    3  C5  UNL     1      25.282   2.447  52.724  1.00  0.00     0.100 C 
HETATM    4  C6  UNL     1      26.467   2.104  51.937  1.00  0.00     0.043 C 
HETATM    5  N1  UNL     1      26.856   2.465  50.785  1.00  0.00    -0.289 NA
HETATM    6  C13 UNL     1      26.435   3.299  49.719  1.00  0.00     0.178 C 
HETATM    7  C14 UNL     1      25.278   4.162  49.965  1.00  0.00     0.019 C 
HETATM    8  C15 UNL     1      24.347   4.136  50.909  1.00  0.00     0.019 C 
ENDROOT
BRANCH   8   9
HETATM    9  N2  UNL     1      23.328   5.141  50.870  1.00  0.00    -0.236 NA
HETATM   10  H15 UNL     1      22.709   5.955  50.840  1.00  0.00     0.136 HD
BRANCH   9  11
HETATM   11  C16 UNL     1      24.205   6.285  50.844  1.00  0.00     0.148 C 
HETATM   12  S1  UNL     1      25.204   7.496  50.402  1.00  0.00    -0.047 SA
BRANCH  11  13
HETATM   13  N3  UNL     1      24.384   6.817  52.165  1.00  0.00    -0.381 N 
HETATM   14  H16 UNL     1      24.760   6.869  53.152  1.00  0.00     0.158 HD
HETATM   15  H17 UNL     1      24.324   7.424  53.035  1.00  0.00     0.158 HD
ENDBRANCH  11  13
ENDBRANCH   9  11
ENDBRANCH   8   9
BRANCH   1  16
HETATM   16  C2  UNL     1      21.760   3.498  51.912  1.00  0.00    -0.026 C 
HETATM   17  C1  UNL     1      20.516   3.289  52.313  1.00  0.00     0.031 C 
ENDBRANCH   1  16
BRANCH   4  18
HETATM   18  C7  UNL     1      27.375   1.173  52.599  1.00  0.00    -0.012 A 
HETATM   19  C8  UNL     1      27.204  -0.195  52.561  1.00  0.00     0.013 A 
HETATM   20  C9  UNL     1      28.038  -1.109  53.173  1.00  0.00     0.001 A 
HETATM   21  C10 UNL     1      29.129  -0.640  53.878  1.00  0.00     0.000 A 
HETATM   22  C11 UNL     1      29.355   0.719  53.954  1.00  0.00     0.001 A 
HETATM   23  C12 UNL     1      28.483   1.580  53.320  1.00  0.00     0.013 A 
ENDBRANCH   4  18
TORSDOF 5
ENDMDL
MODEL 2
REMARK VINA RESULT:      -7.4      3.392      6.131
REMARK  5 active torsions:
REMARK  status: ('A' for Active; 'I' for Inactive)
REMARK    1  A    between atoms: C2_2  and  C3_3 
REMARK    2  A    between atoms: C6_6  and  C7_7 
REMARK    3  A    between atoms: C15_16  and  N2_17 
REMARK    4  A    between atoms: N2_17  and  C16_18 
REMARK    5  A    between atoms: C16_18  and  N3_19 
ROOT
HETATM    1  C3  UNL     1      25.366   2.787  50.928  1.00  0.00     0.005 C 
HETATM    2  C4  UNL     1      25.260   1.930  51.934  1.00  0.00    -0.031 C 
HETATM    3  C5  UNL     1      23.888   1.634  52.349  1.00  0.00     0.100 C 
HETATM    4  C6  UNL     1      23.666   0.285  52.872  1.00  0.00     0.043 C 
HETATM    5  N1  UNL     1      24.468  -0.641  53.204  1.00  0.00    -0.289 NA
HETATM    6  C13 UNL     1      25.861  -0.888  53.258  1.00  0.00     0.178 C 
HETATM    7  C14 UNL     1      26.751   0.247  53.004  1.00  0.00     0.019 C 
HETATM    8  C15 UNL     1      26.527   1.432  52.455  1.00  0.00     0.019 C 
ENDROOT
BRANCH   8   9
HETATM    9  N2  UNL     1      27.631   2.338  52.348  1.00  0.00    -0.236 NA
HETATM   10  H15 UNL     1      28.491   2.892  52.357  1.00  0.00     0.136 HD
BRANCH   9  11
HETATM   11  C16 UNL     1      28.552   1.596  53.173  1.00  0.00     0.148 C 
HETATM   12  S1  UNL     1      29.457   0.435  53.874  1.00  0.00    -0.047 SA
BRANCH  11  13
HETATM   13  N3  UNL     1      29.208   2.465  54.109  1.00  0.00    -0.381 N 
HETATM   14  H16 UNL     1      29.300   3.259  54.801  1.00  0.00     0.158 HD
HETATM   15  H17 UNL     1      29.931   2.931  54.732  1.00  0.00     0.158 HD
ENDBRANCH  11  13
ENDBRANCH   9  11
ENDBRANCH   8   9
BRANCH   1  16
HETATM   16  C2  UNL     1      26.574   3.282  50.291  1.00  0.00    -0.026 C 
HETATM   17  C1  UNL     1      26.711   4.140  49.293  1.00  0.00     0.031 C 
ENDBRANCH   1  16
BRANCH   4  18
HETATM   18  C7  UNL     1      22.260  -0.064  53.048  1.00  0.00    -0.012 A 
HETATM   19  C8  UNL     1      21.247   0.510  52.308  1.00  0.00     0.013 A 
HETATM   20  C9  UNL     1      19.907   0.208  52.443  1.00  0.00     0.001 A 
HETATM   21  C10 UNL     1      19.533  -0.734  53.380  1.00  0.00     0.000 A 
HETATM   22  C11 UNL     1      20.499  -1.344  54.153  1.00  0.00     0.001 A 
HETATM   23  C12 UNL     1      21.822  -0.998  53.969  1.00  0.00     0.013 A 
ENDBRANCH   4  18
TORSDOF 5
ENDMDL
MODEL 3
REMARK VINA RESULT:      -7.2      2.175      3.622
REMARK  5 active torsions:
REMARK  status: ('A' for Active; 'I' for Inactive)
REMARK    1  A    between atoms: C2_2  and  C3_3 
REMARK    2  A    between atoms: C6_6  and  C7_7 
REMARK    3  A    between atoms: C15_16  and  N2_17 
REMARK    4  A    between atoms: N2_17  and  C16_18 
REMARK    5  A    between atoms: C16_18  and  N3_19 
ROOT
HETATM    1  C3  UNL     1      26.496   3.981  49.651  1.00  0.00     0.005 C 
HETATM    2  C4  UNL     1      25.939   3.224  50.584  1.00  0.00    -0.031 C 
HETATM    3  C5  UNL     1      26.730   2.061  50.988  1.00  0.00     0.100 C 
HETATM    4  C6  UNL     1      26.572   1.645  52.383  1.00  0.00     0.043 C 
HETATM    5  N1  UNL     1      25.747   1.988  53.283  1.00  0.00    -0.289 NA
HETATM    6  C13 UNL     1      24.641   2.857  53.455  1.00  0.00     0.178 C 
HETATM    7  C14 UNL     1      24.114   3.511  52.255  1.00  0.00     0.019 C 
HETATM    8  C15 UNL     1      24.633   3.679  51.047  1.00  0.00     0.019 C 
ENDROOT
BRANCH   8   9
HETATM    9  N2  UNL     1      23.848   4.378  50.074  1.00  0.00    -0.236 NA
HETATM   10  H15 UNL     1      23.215   4.753  49.363  1.00  0.00     0.136 HD
BRANCH   9  11
HETATM   11  C16 UNL     1      22.983   3.280  49.720  1.00  0.00     0.148 C 
HETATM   12  S1  UNL     1      21.952   2.017  49.736  1.00  0.00    -0.047 SA
BRANCH  11  13
HETATM   13  N3  UNL     1      22.947   3.102  48.296  1.00  0.00    -0.381 N 
HETATM   14  H16 UNL     1      22.946   3.388  47.278  1.00  0.00     0.158 HD
HETATM   15  H17 UNL     1      22.906   2.676  47.323  1.00  0.00     0.158 HD
ENDBRANCH  11  13
ENDBRANCH   9  11
ENDBRANCH   8   9
BRANCH   1  16
HETATM   16  C2  UNL     1      25.972   5.192  49.041  1.00  0.00    -0.026 C 
HETATM   17  C1  UNL     1      26.617   6.252  48.583  1.00  0.00     0.031 C 
ENDBRANCH   1  16
BRANCH   4  18
HETATM   18  C7  UNL     1      27.542   0.649  52.823  1.00  0.00    -0.012 A 
HETATM   19  C8  UNL     1      28.748   0.982  53.404  1.00  0.00     0.013 A 
HETATM   20  C9  UNL     1      29.692   0.071  53.833  1.00  0.00     0.001 A 
HETATM   21  C10 UNL     1      29.430  -1.276  53.680  1.00  0.00     0.000 A 
HETATM   22  C11 UNL     1      28.240  -1.674  53.105  1.00  0.00     0.001 A 
HETATM   23  C12 UNL     1      27.338  -0.714  52.697  1.00  0.00     0.013 A 
ENDBRANCH   4  18
TORSDOF 5
ENDMDL
MODEL 4
REMARK VINA RESULT:      -7.0      2.864      3.726
REMARK  5 active torsions:
REMARK  status: ('A' for Active; 'I' for Inactive)
REMARK    1  A    between atoms: C2_2  and  C3_3 
REMARK    2  A    between atoms: C6_6  and  C7_7 
REMARK    3  A    between atoms: C15_16  and  N2_17 
REMARK    4  A    between atoms: N2_17  and  C16_18 
REMARK    5  A    between atoms: C16_18  and  N3_19 
ROOT
HETATM    1  C3  UNL     1      24.497   3.382  52.376  1.00  0.00     0.005 C 
HETATM    2  C4  UNL     1      24.318   2.069  52.346  1.00  0.00    -0.031 C 
HETATM    3  C5  UNL     1      25.548   1.281  52.263  1.00  0.00     0.100 C 
HETATM    4  C6  UNL     1      25.503  -0.027  52.919  1.00  0.00     0.043 C 
HETATM    5  N1  UNL     1      24.545  -0.700  53.408  1.00  0.00    -0.289 NA
HETATM    6  C13 UNL     1      23.143  -0.603  53.587  1.00  0.00     0.178 C 
HETATM    7  C14 UNL     1      22.462   0.513  52.926  1.00  0.00     0.019 C 
HETATM    8  C15 UNL     1      22.926   1.637  52.400  1.00  0.00     0.019 C 
ENDROOT
BRANCH   8   9
HETATM    9  N2  UNL     1      21.981   2.542  51.817  1.00  0.00    -0.236 NA
HETATM   10  H15 UNL     1      21.304   3.097  51.288  1.00  0.00     0.136 HD
BRANCH   9  11
HETATM   11  C16 UNL     1      21.777   1.819  50.586  1.00  0.00     0.148 C 
HETATM   12  S1  UNL     1      21.323   0.749  49.443  1.00  0.00    -0.047 SA
BRANCH  11  13
HETATM   13  N3  UNL     1      22.450   2.472  49.498  1.00  0.00    -0.381 N 
HETATM   14  H16 UNL     1      23.241   2.960  48.995  1.00  0.00     0.158 HD
HETATM   15  H17 UNL     1      22.682   2.900  48.554  1.00  0.00     0.158 HD
ENDBRANCH  11  13
ENDBRANCH   9  11
ENDBRANCH   8   9
BRANCH   1  16
HETATM   16  C2  UNL     1      23.491   4.428  52.455  1.00  0.00    -0.026 C 
HETATM   17  C1  UNL     1      23.457   5.612  51.866  1.00  0.00     0.031 C 
ENDBRANCH   1  16
BRANCH   4  18
HETATM   18  C7  UNL     1      26.801  -0.683  53.033  1.00  0.00    -0.012 A 
HETATM   19  C8  UNL     1      27.007  -2.003  52.690  1.00  0.00     0.013 A 
HETATM   20  C9  UNL     1      28.217  -2.660  52.783  1.00  0.00     0.001 A 
HETATM   21  C10 UNL     1      29.314  -1.963  53.250  1.00  0.00     0.000 A 
HETATM   22  C11 UNL     1      29.173  -0.638  53.610  1.00  0.00     0.001 A 
HETATM   23  C12 UNL     1      27.936  -0.039  53.494  1.00  0.00     0.013 A 
ENDBRANCH   4  18
TORSDOF 5
ENDMDL
MODEL 5
REMARK VINA RESULT:      -6.9      1.476      1.881
REMARK  5 active torsions:
REMARK  status: ('A' for Active; 'I' for Inactive)
REMARK    1  A    between atoms: C2_2  and  C3_3 
REMARK    2  A    between atoms: C6_6  and  C7_7 
REMARK    3  A    between atoms: C15_16  and  N2_17 
REMARK    4  A    between atoms: N2_17  and  C16_18 
REMARK    5  A    between atoms: C16_18  and  N3_19 
ROOT
HETATM    1  C3  UNL     1      22.976   0.924  52.103  1.00  0.00     0.005 C 
HETATM    2  C4  UNL     1      24.097   1.620  51.983  1.00  0.00    -0.031 C 
HETATM    3  C5  UNL     1      25.242   1.075  52.713  1.00  0.00     0.100 C 
HETATM    4  C6  UNL     1      26.550   1.313  52.101  1.00  0.00     0.043 C 
HETATM    5  N1  UNL     1      26.916   2.054  51.138  1.00  0.00    -0.289 NA
HETATM    6  C13 UNL     1      26.356   2.966  50.210  1.00  0.00     0.178 C 
HETATM    7  C14 UNL     1      24.958   3.352  50.414  1.00  0.00     0.019 C 
HETATM    8  C15 UNL     1      23.995   2.810  51.147  1.00  0.00     0.019 C 
ENDROOT
BRANCH   8   9
HETATM    9  N2  UNL     1      22.710   3.441  51.132  1.00  0.00    -0.236 NA
HETATM   10  H15 UNL     1      21.863   4.014  51.149  1.00  0.00     0.136 HD
BRANCH   9  11
HETATM   11  C16 UNL     1      23.165   4.782  51.401  1.00  0.00     0.148 C 
HETATM   12  S1  UNL     1      23.936   6.219  51.381  1.00  0.00    -0.047 SA
BRANCH  11  13
HETATM   13  N3  UNL     1      22.441   5.353  52.501  1.00  0.00    -0.381 N 
HETATM   14  H16 UNL     1      21.656   5.865  52.990  1.00  0.00     0.158 HD
HETATM   15  H17 UNL     1      22.143   5.663  53.473  1.00  0.00     0.158 HD
ENDBRANCH  11  13
ENDBRANCH   9  11
ENDBRANCH   8   9
BRANCH   1  16
HETATM   16  C2  UNL     1      21.678   1.197  51.511  1.00  0.00    -0.026 C 
HETATM   17  C1  UNL     1      21.021   0.533  50.573  1.00  0.00     0.031 C 
ENDBRANCH   1  16
BRANCH   4  18
HETATM   18  C7  UNL     1      27.641   0.559  52.710  1.00  0.00    -0.012 A 
HETATM   19  C8  UNL     1      28.755   1.161  53.256  1.00  0.00     0.013 A 
HETATM   20  C9  UNL     1      29.807   0.485  53.840  1.00  0.00     0.001 A 
HETATM   21  C10 UNL     1      29.760  -0.894  53.892  1.00  0.00     0.000 A 
HETATM   22  C11 UNL     1      28.672  -1.556  53.362  1.00  0.00     0.001 A 
HETATM   23  C12 UNL     1      27.653  -0.822  52.792  1.00  0.00     0.013 A 
ENDBRANCH   4  18
TORSDOF 5
ENDMDL
MODEL 6
REMARK VINA RESULT:      -6.9      6.724      8.096
REMARK  5 active torsions:
REMARK  status: ('A' for Active; 'I' for Inactive)
REMARK    1  A    between atoms: C2_2  and  C3_3 
REMARK    2  A    between atoms: C6_6  and  C7_7 
REMARK    3  A    between atoms: C15_16  and  N2_17 
REMARK    4  A    between atoms: N2_17  and  C16_18 
REMARK    5  A    between atoms: C16_18  and  N3_19 
ROOT
HETATM    1  C3  UNL     1      28.724   5.492  48.326  1.00  0.00     0.005 C 
HETATM    2  C4  UNL     1      29.731   6.189  47.821  1.00  0.00    -0.031 C 
HETATM    3  C5  UNL     1      31.012   5.482  47.785  1.00  0.00     0.100 C 
HETATM    4  C6  UNL     1      31.899   5.844  46.678  1.00  0.00     0.043 C 
HETATM    5  N1  UNL     1      31.855   6.783  45.826  1.00  0.00    -0.289 NA
HETATM    6  C13 UNL     1      31.037   7.888  45.483  1.00  0.00     0.178 C 
HETATM    7  C14 UNL     1      29.953   8.227  46.407  1.00  0.00     0.019 C 
HETATM    8  C15 UNL     1      29.389   7.539  47.390  1.00  0.00     0.019 C 
ENDROOT
BRANCH   8   9
HETATM    9  N2  UNL     1      28.330   8.166  48.122  1.00  0.00    -0.236 NA
HETATM   10  H15 UNL     1      27.677   8.692  48.709  1.00  0.00     0.136 HD
BRANCH   9  11
HETATM   11  C16 UNL     1      29.153   9.059  48.900  1.00  0.00     0.148 C 
HETATM   12  S1  UNL     1      30.331  10.048  49.440  1.00  0.00    -0.047 SA
BRANCH  11  13
HETATM   13  N3  UNL     1      28.542   9.336  50.169  1.00  0.00    -0.381 N 
HETATM   14  H16 UNL     1      28.125   9.925  50.941  1.00  0.00     0.158 HD
HETATM   15  H17 UNL     1      28.109   9.236  51.134  1.00  0.00     0.158 HD
ENDBRANCH  11  13
ENDBRANCH   9  11
ENDBRANCH   8   9
BRANCH   1  16
HETATM   16  C2  UNL     1      27.341   5.903  48.501  1.00  0.00    -0.026 C 
HETATM   17  C1  UNL     1      26.320   5.235  49.011  1.00  0.00     0.031 C 
ENDBRANCH   1  16
BRANCH   4  18
HETATM   18  C7  UNL     1      33.052   4.963  46.523  1.00  0.00    -0.012 A 
HETATM   19  C8  UNL     1      33.759   4.854  45.344  1.00  0.00     0.013 A 
HETATM   20  C9  UNL     1      34.853   4.033  45.157  1.00  0.00     0.001 A 
HETATM   21  C10 UNL     1      35.286   3.258  46.213  1.00  0.00     0.000 A 
HETATM   22  C11 UNL     1      34.620   3.321  47.420  1.00  0.00     0.001 A 
HETATM   23  C12 UNL     1      33.534   4.162  47.543  1.00  0.00     0.013 A 
ENDBRANCH   4  18
TORSDOF 5
ENDMDL
MODEL 7
REMARK VINA RESULT:      -6.9      2.409      4.156
REMARK  5 active torsions:
REMARK  status: ('A' for Active; 'I' for Inactive)
REMARK    1  A    between atoms: C2_2  and  C3_3 
REMARK    2  A    between atoms: C6_6  and  C7_7 
REMARK    3  A    between atoms: C15_16  and  N2_17 
REMARK    4  A    between atoms: N2_17  and  C16_18 
REMARK    5  A    between atoms: C16_18  and  N3_19 
ROOT
HETATM    1  C3  UNL     1      27.095   4.757  48.970  1.00  0.00     0.005 C 
HETATM    2  C4  UNL     1      25.988   4.379  49.593  1.00  0.00    -0.031 C 
HETATM    3  C5  UNL     1      26.004   3.007  50.102  1.00  0.00     0.100 C 
HETATM    4  C6  UNL     1      25.228   2.779  51.322  1.00  0.00     0.043 C 
HETATM    5  N1  UNL     1      24.392   3.502  51.945  1.00  0.00    -0.289 NA
HETATM    6  C13 UNL     1      23.793   4.782  51.847  1.00  0.00     0.178 C 
HETATM    7  C14 UNL     1      24.037   5.541  50.618  1.00  0.00     0.019 C 
HETATM    8  C15 UNL     1      24.944   5.395  49.662  1.00  0.00     0.019 C 
ENDROOT
BRANCH   8   9
HETATM    9  N2  UNL     1      24.917   6.321  48.570  1.00  0.00    -0.236 NA
HETATM   10  H15 UNL     1      24.773   6.919  47.752  1.00  0.00     0.136 HD
BRANCH   9  11
HETATM   11  C16 UNL     1      23.679   5.871  47.983  1.00  0.00     0.148 C 
HETATM   12  S1  UNL     1      22.376   5.006  47.522  1.00  0.00    -0.047 SA
BRANCH  11  13
HETATM   13  N3  UNL     1      23.080   6.915  47.200  1.00  0.00    -0.381 N 
HETATM   14  H16 UNL     1      22.304   7.520  46.815  1.00  0.00     0.158 HD
HETATM   15  H17 UNL     1      22.928   7.732  46.538  1.00  0.00     0.158 HD
ENDBRANCH  11  13
ENDBRANCH   9  11
ENDBRANCH   8   9
BRANCH   1  16
HETATM   16  C2  UNL     1      27.391   6.040  48.357  1.00  0.00    -0.026 C 
HETATM   17  C1  UNL     1      28.548   6.533  47.947  1.00  0.00     0.031 C 
ENDBRANCH   1  16
BRANCH   4  18
HETATM   18  C7  UNL     1      25.455   1.478  51.940  1.00  0.00    -0.012 A 
HETATM   19  C8  UNL     1      24.510   0.841  52.717  1.00  0.00     0.013 A 
HETATM   20  C9  UNL     1      24.686  -0.389  53.318  1.00  0.00     0.001 A 
HETATM   21  C10 UNL     1      25.887  -1.046  53.142  1.00  0.00     0.000 A 
HETATM   22  C11 UNL     1      26.875  -0.461  52.377  1.00  0.00     0.001 A 
HETATM   23  C12 UNL     1      26.637   0.770  51.802  1.00  0.00     0.013 A 
ENDBRANCH   4  18
TORSDOF 5
ENDMDL
MODEL 8
REMARK VINA RESULT:      -6.8      3.126      6.079
REMARK  5 active torsions:
REMARK  status: ('A' for Active; 'I' for Inactive)
REMARK    1  A    between atoms: C2_2  and  C3_3 
REMARK    2  A    between atoms: C6_6  and  C7_7 
REMARK    3  A    between atoms: C15_16  and  N2_17 
REMARK    4  A    between atoms: N2_17  and  C16_18 
REMARK    5  A    between atoms: C16_18  and  N3_19 
ROOT
HETATM    1  C3  UNL     1      26.616   0.292  51.897  1.00  0.00     0.005 C 
HETATM    2  C4  UNL     1      25.787   1.322  51.810  1.00  0.00    -0.031 C 
HETATM    3  C5  UNL     1      26.363   2.528  51.215  1.00  0.00     0.100 C 
HETATM    4  C6  UNL     1      25.428   3.368  50.464  1.00  0.00     0.043 C 
HETATM    5  N1  UNL     1      24.163   3.351  50.364  1.00  0.00    -0.289 NA
HETATM    6  C13 UNL     1      23.054   2.615  50.850  1.00  0.00     0.178 C 
HETATM    7  C14 UNL     1      23.317   1.631  51.903  1.00  0.00     0.019 C 
HETATM    8  C15 UNL     1      24.445   1.075  52.324  1.00  0.00     0.019 C 
ENDROOT
BRANCH   8   9
HETATM    9  N2  UNL     1      24.363   0.129  53.395  1.00  0.00    -0.236 NA
HETATM   10  H15 UNL     1      24.161  -0.536  54.146  1.00  0.00     0.136 HD
BRANCH   9  11
HETATM   11  C16 UNL     1      22.924   0.059  53.464  1.00  0.00     0.148 C 
HETATM   12  S1  UNL     1      21.337   0.386  53.646  1.00  0.00    -0.047 SA
BRANCH  11  13
HETATM   13  N3  UNL     1      22.465  -1.262  53.142  1.00  0.00    -0.381 N 
HETATM   14  H16 UNL     1      22.142  -2.252  53.324  1.00  0.00     0.158 HD
HETATM   15  H17 UNL     1      22.146  -2.130  52.619  1.00  0.00     0.158 HD
ENDBRANCH  11  13
ENDBRANCH   9  11
ENDBRANCH   8   9
BRANCH   1  16
HETATM   16  C2  UNL     1      26.355  -1.033  52.433  1.00  0.00    -0.026 C 
HETATM   17  C1  UNL     1      27.178  -2.056  52.593  1.00  0.00     0.031 C 
ENDBRANCH   1  16
BRANCH   4  18
HETATM   18  C7  UNL     1      26.066   4.422  49.683  1.00  0.00    -0.012 A 
HETATM   19  C8  UNL     1      27.325   4.293  49.136  1.00  0.00     0.013 A 
HETATM   20  C9  UNL     1      27.963   5.266  48.393  1.00  0.00     0.001 A 
HETATM   21  C10 UNL     1      27.310   6.461  48.169  1.00  0.00     0.000 A 
HETATM   22  C11 UNL     1      26.047   6.653  48.690  1.00  0.00     0.001 A 
HETATM   23  C12 UNL     1      25.464   5.641  49.425  1.00  0.00     0.013 A 
ENDBRANCH   4  18
TORSDOF 5
ENDMDL
MODEL 9
REMARK VINA RESULT:      -6.5      3.542      4.512
REMARK  5 active torsions:
REMARK  status: ('A' for Active; 'I' for Inactive)
REMARK    1  A    between atoms: C2_2  and  C3_3 
REMARK    2  A    between atoms: C6_6  and  C7_7 
REMARK    3  A    between atoms: C15_16  and  N2_17 
REMARK    4  A    between atoms: N2_17  and  C16_18 
REMARK    5  A    between atoms: C16_18  and  N3_19 
ROOT
HETATM    1  C3  UNL     1      22.479   5.546  51.498  1.00  0.00     0.005 C 
HETATM    2  C4  UNL     1      22.850   4.338  51.100  1.00  0.00    -0.031 C 
HETATM    3  C5  UNL     1      22.798   3.305  52.136  1.00  0.00     0.100 C 
HETATM    4  C6  UNL     1      22.488   1.954  51.663  1.00  0.00     0.043 C 
HETATM    5  N1  UNL     1      22.422   1.457  50.498  1.00  0.00    -0.289 NA
HETATM    6  C13 UNL     1      22.585   1.853  49.147  1.00  0.00     0.178 C 
HETATM    7  C14 UNL     1      23.125   3.192  48.906  1.00  0.00     0.019 C 
HETATM    8  C15 UNL     1      23.247   4.246  49.700  1.00  0.00     0.019 C 
ENDROOT
BRANCH   8   9
HETATM    9  N2  UNL     1      23.828   5.434  49.150  1.00  0.00    -0.236 NA
HETATM   10  H15 UNL     1      24.372   6.220  48.785  1.00  0.00     0.136 HD
BRANCH   9  11
HETATM   11  C16 UNL     1      25.209   5.055  49.325  1.00  0.00     0.148 C 
HETATM   12  S1  UNL     1      26.653   4.298  49.290  1.00  0.00    -0.047 SA
BRANCH  11  13
HETATM   13  N3  UNL     1      25.906   6.032  50.113  1.00  0.00    -0.381 N 
HETATM   14  H16 UNL     1      26.449   6.411  50.937  1.00  0.00     0.158 HD
HETATM   15  H17 UNL     1      26.351   6.933  50.458  1.00  0.00     0.158 HD
ENDBRANCH  11  13
ENDBRANCH   9  11
ENDBRANCH   8   9
BRANCH   1  16
HETATM   16  C2  UNL     1      22.421   6.772  50.721  1.00  0.00    -0.026 C 
HETATM   17  C1  UNL     1      21.445   7.659  50.616  1.00  0.00     0.031 C 
ENDBRANCH   1  16
BRANCH   4  18
HETATM   18  C7  UNL     1      22.203   0.999  52.728  1.00  0.00    -0.012 A 
HETATM   19  C8  UNL     1      23.125   0.074  53.173  1.00  0.00     0.013 A 
HETATM   20  C9  UNL     1      22.894  -0.845  54.176  1.00  0.00     0.001 A 
HETATM   21  C10 UNL     1      21.659  -0.856  54.792  1.00  0.00     0.000 A 
HETATM   22  C11 UNL     1      20.693   0.044  54.392  1.00  0.00     0.001 A 
HETATM   23  C12 UNL     1      20.986   0.938  53.383  1.00  0.00     0.013 A 
ENDBRANCH   4  18
TORSDOF 5
ENDMDL
