MODEL 1
REMARK VINA RESULT:      -8.6      0.000      0.000
REMARK  0 active torsions:
REMARK  status: ('A' for Active; 'I' for Inactive)
ROOT
HETATM    1 CL1  UNL     1      21.479  -0.054  51.880  1.00  0.00    -0.084 Cl
HETATM    2  C1  UNL     1      22.410   1.352  51.993  1.00  0.00     0.041 A 
HETATM    3  C2  UNL     1      23.786   1.667  51.920  1.00  0.00     0.049 A 
HETATM    4  C3  UNL     1      24.114   3.002  52.068  1.00  0.00     0.016 A 
HETATM    5  C4  UNL     1      23.341   4.163  52.288  1.00  0.00     0.086 A 
HETATM    6  C5  UNL     1      21.896   3.990  52.381  1.00  0.00     0.072 A 
HETATM    7  C6  UNL     1      22.072   2.647  52.191  1.00  0.00    -0.014 A 
HETATM    8  C7  UNL     1      22.389   3.615  50.939  1.00  0.00     0.124 A 
HETATM    9  N1  UNL     1      22.959   2.750  50.112  1.00  0.00    -0.161 NA
HETATM   10  C8  UNL     1      23.452   3.025  48.859  1.00  0.00     0.193 A 
HETATM   11  N2  UNL     1      24.099   3.070  49.910  1.00  0.00    -0.273 N 
HETATM   12  C9  UNL     1      25.373   3.345  50.412  1.00  0.00     0.254 C 
HETATM   13  N3  UNL     1      25.329   3.695  51.833  1.00  0.00    -0.365 N 
HETATM   14  C10 UNL     1      25.984   4.474  49.576  1.00  0.00     0.076 C 
HETATM   15  C11 UNL     1      27.160   4.518  48.881  1.00  0.00     0.008 C 
HETATM   16  C12 UNL     1      27.115   5.834  48.334  1.00  0.00     0.056 C 
HETATM   17  C13 UNL     1      27.984   6.947  48.488  1.00  0.00    -0.027 C 
HETATM   18  C14 UNL     1      27.849   8.135  49.204  1.00  0.00    -0.030 C 
HETATM   19  C15 UNL     1      26.674   8.642  50.125  1.00  0.00     0.028 C 
HETATM   20  C16 UNL     1      25.901   7.437  50.070  1.00  0.00     0.026 C 
HETATM   21  C17 UNL     1      24.803   6.718  50.644  1.00  0.00     0.157 C 
HETATM   22  N4  UNL     1      24.885   5.480  49.741  1.00  0.00    -0.246 N 
HETATM   23  O1  UNL     1      23.728   5.257  48.984  1.00  0.00    -0.199 OA
HETATM   24  S1  UNL     1      22.354   5.204  50.039  1.00  0.00     0.051 SA
HETATM   25  H6  UNL     1      25.913   4.230  52.502  1.00  0.00     0.162 HD
ENDROOT
TORSDOF 0
ENDMDL
MODEL 2
REMARK VINA RESULT:      -8.0      2.829      6.534
REMARK  0 active torsions:
REMARK  status: ('A' for Active; 'I' for Inactive)
ROOT
HETATM    1 CL1  UNL     1      26.294   6.131  49.228  1.00  0.00    -0.084 Cl
HETATM    2  C1  UNL     1      25.064   4.973  49.281  1.00  0.00     0.041 A 
HETATM    3  C2  UNL     1      24.955   3.624  49.686  1.00  0.00     0.049 A 
HETATM    4  C3  UNL     1      23.706   3.046  49.554  1.00  0.00     0.016 A 
HETATM    5  C4  UNL     1      22.467   3.531  49.079  1.00  0.00     0.086 A 
HETATM    6  C5  UNL     1      22.428   4.918  48.629  1.00  0.00     0.072 A 
HETATM    7  C6  UNL     1      23.757   5.025  48.931  1.00  0.00    -0.014 A 
HETATM    8  C7  UNL     1      22.732   4.863  50.167  1.00  0.00     0.124 A 
HETATM    9  N1  UNL     1      23.590   4.669  51.159  1.00  0.00    -0.161 NA
HETATM   10  C8  UNL     1      23.273   4.457  52.480  1.00  0.00     0.193 A 
HETATM   11  N2  UNL     1      23.428   3.576  51.629  1.00  0.00    -0.273 N 
HETATM   12  C9  UNL     1      23.399   2.189  51.456  1.00  0.00     0.254 C 
HETATM   13  N3  UNL     1      23.186   1.825  50.055  1.00  0.00    -0.365 N 
HETATM   14  C10 UNL     1      22.300   1.617  52.357  1.00  0.00     0.076 C 
HETATM   15  C11 UNL     1      22.369   0.657  53.327  1.00  0.00     0.008 C 
HETATM   16  C12 UNL     1      21.014   0.608  53.771  1.00  0.00     0.056 C 
HETATM   17  C13 UNL     1      20.066  -0.450  53.783  1.00  0.00    -0.027 C 
HETATM   18  C14 UNL     1      18.946  -0.699  52.992  1.00  0.00    -0.030 C 
HETATM   19  C15 UNL     1      18.359   0.111  51.773  1.00  0.00     0.028 C 
HETATM   20  C16 UNL     1      19.422   1.068  51.696  1.00  0.00     0.026 C 
HETATM   21  C17 UNL     1      20.017   2.099  50.899  1.00  0.00     0.157 C 
HETATM   22  N4  UNL     1      21.160   2.453  51.860  1.00  0.00    -0.246 N 
HETATM   23  O1  UNL     1      21.131   3.781  52.306  1.00  0.00    -0.199 OA
HETATM   24  S1  UNL     1      21.076   4.844  50.939  1.00  0.00     0.051 SA
HETATM   25  H6  UNL     1      22.813   1.012  49.529  1.00  0.00     0.162 HD
ENDROOT
TORSDOF 0
ENDMDL
MODEL 3
REMARK VINA RESULT:      -8.0      1.823      3.046
REMARK  0 active torsions:
REMARK  status: ('A' for Active; 'I' for Inactive)
ROOT
HETATM    1 CL1  UNL     1      20.135  -0.456  53.266  1.00  0.00    -0.084 Cl
HETATM    2  C1  UNL     1      21.333   0.280  52.327  1.00  0.00     0.041 A 
HETATM    3  C2  UNL     1      21.405   0.845  51.034  1.00  0.00     0.049 A 
HETATM    4  C3  UNL     1      22.633   1.358  50.660  1.00  0.00     0.016 A 
HETATM    5  C4  UNL     1      23.882   1.437  51.316  1.00  0.00     0.086 A 
HETATM    6  C5  UNL     1      23.956   0.894  52.667  1.00  0.00     0.072 A 
HETATM    7  C6  UNL     1      22.635   0.551  52.573  1.00  0.00    -0.014 A 
HETATM    8  C7  UNL     1      22.984   2.126  52.638  1.00  0.00     0.124 A 
HETATM    9  N1  UNL     1      21.796   2.641  52.355  1.00  0.00    -0.161 NA
HETATM   10  C8  UNL     1      21.490   3.978  52.262  1.00  0.00     0.193 A 
HETATM   11  N2  UNL     1      21.854   3.258  51.327  1.00  0.00    -0.273 N 
HETATM   12  C9  UNL     1      22.127   3.281  49.957  1.00  0.00     0.254 C 
HETATM   13  N3  UNL     1      23.007   2.178  49.565  1.00  0.00    -0.365 N 
HETATM   14  C10 UNL     1      22.746   4.639  49.614  1.00  0.00     0.076 C 
HETATM   15  C11 UNL     1      22.355   5.580  48.703  1.00  0.00     0.008 C 
HETATM   16  C12 UNL     1      23.345   6.588  48.896  1.00  0.00     0.056 C 
HETATM   17  C13 UNL     1      24.301   7.149  48.007  1.00  0.00    -0.027 C 
HETATM   18  C14 UNL     1      25.681   6.981  47.904  1.00  0.00    -0.030 C 
HETATM   19  C15 UNL     1      26.662   6.071  48.739  1.00  0.00     0.028 C 
HETATM   20  C16 UNL     1      25.647   5.413  49.507  1.00  0.00     0.026 C 
HETATM   21  C17 UNL     1      25.367   4.318  50.388  1.00  0.00     0.157 C 
HETATM   22  N4  UNL     1      23.876   4.614  50.599  1.00  0.00    -0.246 N 
HETATM   23  O1  UNL     1      23.534   4.866  51.934  1.00  0.00    -0.199 OA
HETATM   24  S1  UNL     1      24.085   3.556  52.925  1.00  0.00     0.051 SA
HETATM   25  H6  UNL     1      23.677   1.975  48.799  1.00  0.00     0.162 HD
ENDROOT
TORSDOF 0
ENDMDL
MODEL 4
REMARK VINA RESULT:      -7.8      2.956      5.098
REMARK  0 active torsions:
REMARK  status: ('A' for Active; 'I' for Inactive)
ROOT
HETATM    1 CL1  UNL     1      21.370   7.626  47.662  1.00  0.00    -0.084 Cl
HETATM    2  C1  UNL     1      21.677   6.091  48.297  1.00  0.00     0.041 A 
HETATM    3  C2  UNL     1      22.628   5.070  48.071  1.00  0.00     0.049 A 
HETATM    4  C3  UNL     1      22.503   3.937  48.853  1.00  0.00     0.016 A 
HETATM    5  C4  UNL     1      21.592   3.563  49.866  1.00  0.00     0.086 A 
HETATM    6  C5  UNL     1      20.553   4.526  50.211  1.00  0.00     0.072 A 
HETATM    7  C6  UNL     1      21.060   5.372  49.263  1.00  0.00    -0.014 A 
HETATM    8  C7  UNL     1      21.964   5.109  50.574  1.00  0.00     0.124 A 
HETATM    9  N1  UNL     1      23.096   5.686  50.198  1.00  0.00    -0.161 NA
HETATM   10  C8  UNL     1      24.254   5.764  50.935  1.00  0.00     0.193 A 
HETATM   11  N2  UNL     1      23.971   4.866  50.135  1.00  0.00    -0.273 N 
HETATM   12  C9  UNL     1      24.462   3.677  49.590  1.00  0.00     0.254 C 
HETATM   13  N3  UNL     1      23.383   2.843  49.057  1.00  0.00    -0.365 N 
HETATM   14  C10 UNL     1      25.252   2.942  50.677  1.00  0.00     0.076 C 
HETATM   15  C11 UNL     1      26.545   2.499  50.677  1.00  0.00     0.008 C 
HETATM   16  C12 UNL     1      26.644   1.918  51.976  1.00  0.00     0.056 C 
HETATM   17  C13 UNL     1      26.934   0.592  52.394  1.00  0.00    -0.027 C 
HETATM   18  C14 UNL     1      26.121  -0.415  52.913  1.00  0.00    -0.030 C 
HETATM   19  C15 UNL     1      24.568  -0.429  53.190  1.00  0.00     0.028 C 
HETATM   20  C16 UNL     1      24.295   0.854  52.613  1.00  0.00     0.026 C 
HETATM   21  C17 UNL     1      23.267   1.740  52.155  1.00  0.00     0.157 C 
HETATM   22  N4  UNL     1      24.182   2.895  51.725  1.00  0.00    -0.246 N 
HETATM   23  O1  UNL     1      23.939   4.091  52.411  1.00  0.00    -0.199 OA
HETATM   24  S1  UNL     1      22.262   4.503  52.272  1.00  0.00     0.051 SA
HETATM   25  H6  UNL     1      23.227   1.837  48.859  1.00  0.00     0.162 HD
ENDROOT
TORSDOF 0
ENDMDL
MODEL 5
REMARK VINA RESULT:      -7.7      3.004      6.173
REMARK  0 active torsions:
REMARK  status: ('A' for Active; 'I' for Inactive)
ROOT
HETATM    1 CL1  UNL     1      22.027   8.537  48.737  1.00  0.00    -0.084 Cl
HETATM    2  C1  UNL     1      22.571   7.308  49.762  1.00  0.00     0.041 A 
HETATM    3  C2  UNL     1      22.127   6.722  50.969  1.00  0.00     0.049 A 
HETATM    4  C3  UNL     1      22.909   5.700  51.475  1.00  0.00     0.016 A 
HETATM    5  C4  UNL     1      24.105   5.095  51.030  1.00  0.00     0.086 A 
HETATM    6  C5  UNL     1      24.679   5.597  49.787  1.00  0.00     0.072 A 
HETATM    7  C6  UNL     1      23.648   6.491  49.704  1.00  0.00    -0.014 A 
HETATM    8  C7  UNL     1      23.287   4.931  49.502  1.00  0.00     0.124 A 
HETATM    9  N1  UNL     1      21.963   4.992  49.519  1.00  0.00    -0.161 NA
HETATM   10  C8  UNL     1      21.097   3.932  49.394  1.00  0.00     0.193 A 
HETATM   11  N2  UNL     1      21.539   4.377  50.458  1.00  0.00    -0.273 N 
HETATM   12  C9  UNL     1      21.491   4.183  51.841  1.00  0.00     0.254 C 
HETATM   13  N3  UNL     1      22.660   4.759  52.507  1.00  0.00    -0.365 N 
HETATM   14  C10 UNL     1      21.378   2.680  52.111  1.00  0.00     0.076 C 
HETATM   15  C11 UNL     1      20.442   1.981  52.820  1.00  0.00     0.008 C 
HETATM   16  C12 UNL     1      20.916   0.644  52.671  1.00  0.00     0.056 C 
HETATM   17  C13 UNL     1      21.332  -0.319  53.629  1.00  0.00    -0.027 C 
HETATM   18  C14 UNL     1      22.596  -0.791  53.979  1.00  0.00    -0.030 C 
HETATM   19  C15 UNL     1      24.021  -0.387  53.436  1.00  0.00     0.028 C 
HETATM   20  C16 UNL     1      23.570   0.685  52.599  1.00  0.00     0.026 C 
HETATM   21  C17 UNL     1      23.976   1.821  51.826  1.00  0.00     0.157 C 
HETATM   22  N4  UNL     1      22.581   2.233  51.337  1.00  0.00    -0.246 N 
HETATM   23  O1  UNL     1      22.443   2.210  49.943  1.00  0.00    -0.199 OA
HETATM   24  S1  UNL     1      23.694   3.171  49.227  1.00  0.00     0.051 SA
HETATM   25  H6  UNL     1      23.181   4.612  53.392  1.00  0.00     0.162 HD
ENDROOT
TORSDOF 0
ENDMDL
MODEL 6
REMARK VINA RESULT:      -7.7      4.818      6.653
REMARK  0 active torsions:
REMARK  status: ('A' for Active; 'I' for Inactive)
ROOT
HETATM    1 CL1  UNL     1      16.885   4.730  48.987  1.00  0.00    -0.084 Cl
HETATM    2  C1  UNL     1      18.320   4.350  49.795  1.00  0.00     0.041 A 
HETATM    3  C2  UNL     1      18.696   4.101  51.134  1.00  0.00     0.049 A 
HETATM    4  C3  UNL     1      20.032   3.813  51.348  1.00  0.00     0.016 A 
HETATM    5  C4  UNL     1      21.145   3.715  50.485  1.00  0.00     0.086 A 
HETATM    6  C5  UNL     1      20.905   3.944  49.065  1.00  0.00     0.072 A 
HETATM    7  C6  UNL     1      19.585   4.163  49.352  1.00  0.00    -0.014 A 
HETATM    8  C7  UNL     1      20.138   2.658  49.537  1.00  0.00     0.124 A 
HETATM    9  N1  UNL     1      19.103   2.102  50.151  1.00  0.00    -0.161 NA
HETATM   10  C8  UNL     1      19.011   0.797  50.572  1.00  0.00     0.193 A 
HETATM   11  N2  UNL     1      19.426   1.743  51.250  1.00  0.00    -0.273 N 
HETATM   12  C9  UNL     1      19.935   2.057  52.512  1.00  0.00     0.254 C 
HETATM   13  N3  UNL     1      20.703   3.303  52.489  1.00  0.00    -0.365 N 
HETATM   14  C10 UNL     1      20.791   0.880  52.991  1.00  0.00     0.076 C 
HETATM   15  C11 UNL     1      20.702   0.134  54.132  1.00  0.00     0.008 C 
HETATM   16  C12 UNL     1      21.777  -0.785  53.953  1.00  0.00     0.056 C 
HETATM   17  C13 UNL     1      22.943  -1.032  54.726  1.00  0.00    -0.027 C 
HETATM   18  C14 UNL     1      24.282  -0.707  54.513  1.00  0.00    -0.030 C 
HETATM   19  C15 UNL     1      24.962   0.086  53.331  1.00  0.00     0.028 C 
HETATM   20  C16 UNL     1      23.746   0.448  52.666  1.00  0.00     0.026 C 
HETATM   21  C17 UNL     1      23.164   1.282  51.657  1.00  0.00     0.157 C 
HETATM   22  N4  UNL     1      21.716   0.797  51.815  1.00  0.00    -0.246 N 
HETATM   23  O1  UNL     1      21.187   0.217  50.655  1.00  0.00    -0.199 OA
HETATM   24  S1  UNL     1      21.363   1.319  49.330  1.00  0.00     0.051 SA
HETATM   25  H6  UNL     1      21.461   3.739  53.047  1.00  0.00     0.162 HD
ENDROOT
TORSDOF 0
ENDMDL
MODEL 7
REMARK VINA RESULT:      -7.5      2.265      3.431
REMARK  0 active torsions:
REMARK  status: ('A' for Active; 'I' for Inactive)
ROOT
HETATM    1 CL1  UNL     1      17.740   1.659  50.041  1.00  0.00    -0.084 Cl
HETATM    2  C1  UNL     1      19.351   1.846  49.567  1.00  0.00     0.041 A 
HETATM    3  C2  UNL     1      20.038   2.570  48.567  1.00  0.00     0.049 A 
HETATM    4  C3  UNL     1      21.413   2.427  48.546  1.00  0.00     0.016 A 
HETATM    5  C4  UNL     1      22.314   1.681  49.339  1.00  0.00     0.086 A 
HETATM    6  C5  UNL     1      21.744   0.886  50.419  1.00  0.00     0.072 A 
HETATM    7  C6  UNL     1      20.502   1.324  50.051  1.00  0.00    -0.014 A 
HETATM    8  C7  UNL     1      21.505   2.412  50.695  1.00  0.00     0.124 A 
HETATM    9  N1  UNL     1      20.825   3.525  50.462  1.00  0.00    -0.161 NA
HETATM   10  C8  UNL     1      21.212   4.802  50.796  1.00  0.00     0.193 A 
HETATM   11  N2  UNL     1      21.449   4.237  49.723  1.00  0.00    -0.273 N 
HETATM   12  C9  UNL     1      22.076   4.428  48.489  1.00  0.00     0.254 C 
HETATM   13  N3  UNL     1      22.415   3.154  47.854  1.00  0.00    -0.365 N 
HETATM   14  C10 UNL     1      23.321   5.292  48.713  1.00  0.00     0.076 C 
HETATM   15  C11 UNL     1      23.684   6.478  48.140  1.00  0.00     0.008 C 
HETATM   16  C12 UNL     1      24.928   6.735  48.787  1.00  0.00     0.056 C 
HETATM   17  C13 UNL     1      26.242   6.895  48.270  1.00  0.00    -0.027 C 
HETATM   18  C14 UNL     1      27.353   6.054  48.288  1.00  0.00    -0.030 C 
HETATM   19  C15 UNL     1      27.521   4.600  48.874  1.00  0.00     0.028 C 
HETATM   20  C16 UNL     1      26.147   4.419  49.238  1.00  0.00     0.026 C 
HETATM   21  C17 UNL     1      25.157   3.468  49.648  1.00  0.00     0.157 C 
HETATM   22  N4  UNL     1      23.980   4.448  49.761  1.00  0.00    -0.246 N 
HETATM   23  O1  UNL     1      23.434   4.525  51.048  1.00  0.00    -0.199 OA
HETATM   24  S1  UNL     1      23.011   2.934  51.589  1.00  0.00     0.051 SA
HETATM   25  H6  UNL     1      23.101   2.812  47.154  1.00  0.00     0.162 HD
ENDROOT
TORSDOF 0
ENDMDL
MODEL 8
REMARK VINA RESULT:      -7.5      4.121      6.770
REMARK  0 active torsions:
REMARK  status: ('A' for Active; 'I' for Inactive)
ROOT
HETATM    1 CL1  UNL     1      22.061   5.434  46.228  1.00  0.00    -0.084 Cl
HETATM    2  C1  UNL     1      21.558   4.107  47.145  1.00  0.00     0.041 A 
HETATM    3  C2  UNL     1      22.157   2.924  47.633  1.00  0.00     0.049 A 
HETATM    4  C3  UNL     1      21.342   2.089  48.374  1.00  0.00     0.016 A 
HETATM    5  C4  UNL     1      19.985   2.164  48.761  1.00  0.00     0.086 A 
HETATM    6  C5  UNL     1      19.238   3.339  48.330  1.00  0.00     0.072 A 
HETATM    7  C6  UNL     1      20.367   3.795  47.706  1.00  0.00    -0.014 A 
HETATM    8  C7  UNL     1      20.380   3.764  49.319  1.00  0.00     0.124 A 
HETATM    9  N1  UNL     1      21.660   4.023  49.548  1.00  0.00    -0.161 NA
HETATM   10  C8  UNL     1      22.264   4.114  50.780  1.00  0.00     0.193 A 
HETATM   11  N2  UNL     1      22.173   3.087  50.099  1.00  0.00    -0.273 N 
HETATM   12  C9  UNL     1      22.506   1.730  50.096  1.00  0.00     0.254 C 
HETATM   13  N3  UNL     1      21.649   0.967  49.187  1.00  0.00    -0.365 N 
HETATM   14  C10 UNL     1      22.403   1.209  51.532  1.00  0.00     0.076 C 
HETATM   15  C11 UNL     1      23.335   0.580  52.309  1.00  0.00     0.008 C 
HETATM   16  C12 UNL     1      22.604   0.375  53.516  1.00  0.00     0.056 C 
HETATM   17  C13 UNL     1      22.254  -0.811  54.215  1.00  0.00    -0.027 C 
HETATM   18  C14 UNL     1      21.043  -1.488  54.343  1.00  0.00    -0.030 C 
HETATM   19  C15 UNL     1      19.629  -1.173  53.719  1.00  0.00     0.028 C 
HETATM   20  C16 UNL     1      20.059  -0.075  52.905  1.00  0.00     0.026 C 
HETATM   21  C17 UNL     1      19.698   0.803  51.832  1.00  0.00     0.157 C 
HETATM   22  N4  UNL     1      20.992   1.629  51.812  1.00  0.00    -0.246 N 
HETATM   23  O1  UNL     1      20.794   2.992  52.066  1.00  0.00    -0.199 OA
HETATM   24  S1  UNL     1      19.607   3.614  50.968  1.00  0.00     0.051 SA
HETATM   25  H6  UNL     1      21.331  -0.016  49.087  1.00  0.00     0.162 HD
ENDROOT
TORSDOF 0
ENDMDL
MODEL 9
REMARK VINA RESULT:      -7.4      7.743      9.287
REMARK  0 active torsions:
REMARK  status: ('A' for Active; 'I' for Inactive)
ROOT
HETATM    1 CL1  UNL     1      26.939  12.607  48.063  1.00  0.00    -0.084 Cl
HETATM    2  C1  UNL     1      28.227  11.624  48.541  1.00  0.00     0.041 A 
HETATM    3  C2  UNL     1      28.366  10.331  49.096  1.00  0.00     0.049 A 
HETATM    4  C3  UNL     1      29.660   9.906  49.332  1.00  0.00     0.016 A 
HETATM    5  C4  UNL     1      30.922  10.509  49.135  1.00  0.00     0.086 A 
HETATM    6  C5  UNL     1      30.933  11.850  48.562  1.00  0.00     0.072 A 
HETATM    7  C6  UNL     1      29.566  11.813  48.520  1.00  0.00    -0.014 A 
HETATM    8  C7  UNL     1      30.360  10.827  47.519  1.00  0.00     0.124 A 
HETATM    9  N1  UNL     1      29.356  10.085  47.075  1.00  0.00    -0.161 NA
HETATM   10  C8  UNL     1      29.444   9.048  46.177  1.00  0.00     0.193 A 
HETATM   11  N2  UNL     1      29.515   8.942  47.406  1.00  0.00    -0.273 N 
HETATM   12  C9  UNL     1      29.684   8.002  48.425  1.00  0.00     0.254 C 
HETATM   13  N3  UNL     1      30.175   8.624  49.656  1.00  0.00    -0.365 N 
HETATM   14  C10 UNL     1      30.644   6.919  47.924  1.00  0.00     0.076 C 
HETATM   15  C11 UNL     1      30.477   5.564  47.843  1.00  0.00     0.008 C 
HETATM   16  C12 UNL     1      31.728   5.159  47.292  1.00  0.00     0.056 C 
HETATM   17  C13 UNL     1      32.739   4.294  47.789  1.00  0.00    -0.027 C 
HETATM   18  C14 UNL     1      34.000   4.553  48.324  1.00  0.00    -0.030 C 
HETATM   19  C15 UNL     1      34.732   5.924  48.588  1.00  0.00     0.028 C 
HETATM   20  C16 UNL     1      33.629   6.762  48.225  1.00  0.00     0.026 C 
HETATM   21  C17 UNL     1      33.108   8.097  48.258  1.00  0.00     0.157 C 
HETATM   22  N4  UNL     1      31.785   7.808  47.534  1.00  0.00    -0.246 N 
HETATM   23  O1  UNL     1      31.629   8.522  46.340  1.00  0.00    -0.199 OA
HETATM   24  S1  UNL     1      31.846  10.213  46.650  1.00  0.00     0.051 SA
HETATM   25  H6  UNL     1      30.701   8.328  50.500  1.00  0.00     0.162 HD
ENDROOT
TORSDOF 0
ENDMDL
