MODEL 1
REMARK VINA RESULT:      -7.3      0.000      0.000
REMARK  8 active torsions:
REMARK  status: ('A' for Active; 'I' for Inactive)
REMARK    1  A    between atoms: N1_2  and  C2_3 
REMARK    2  A    between atoms: C2_3  and  O1_4 
REMARK    3  A    between atoms: O1_4  and  C3_5 
REMARK    4  A    between atoms: C3_5  and  C4_6 
REMARK    5  A    between atoms: C4_6  and  C5_7 
REMARK    6  A    between atoms: C5_7  and  N2_8 
REMARK    7  A    between atoms: N2_8  and  C6_9 
REMARK    8  A    between atoms: C14_20  and  O2_22 
ROOT
HETATM    1  N2  UNL     1      23.477   0.747  52.189  1.00  0.00    -0.370 N 
HETATM    2  H9  UNL     1      24.043   0.364  51.420  1.00  0.00     0.161 HD
ENDROOT
BRANCH   1   3
HETATM    3  C5  UNL     1      23.545   2.182  52.422  1.00  0.00     0.150 C 
BRANCH   3   4
HETATM    4  C4  UNL     1      24.949   2.643  52.558  1.00  0.00     0.017 C 
BRANCH   4   5
HETATM    5  C3  UNL     1      25.686   2.191  53.587  1.00  0.00     0.142 C 
BRANCH   5   6
HETATM    6  O1  UNL     1      26.550   1.718  54.595  1.00  0.00    -0.304 OA
BRANCH   6   7
HETATM    7  C2  UNL     1      27.017   0.411  54.454  1.00  0.00     0.171 C 
HETATM    8  C14 UNL     1      28.341   0.529  54.522  1.00  0.00     0.092 C 
HETATM    9  C15 UNL     1      29.306   1.645  54.697  1.00  0.00     0.081 C 
BRANCH   7  10
HETATM   10  N1  UNL     1      26.219  -0.771  54.277  1.00  0.00    -0.373 N 
HETATM   11  C1  UNL     1      26.273  -1.312  52.924  1.00  0.00     0.148 C 
HETATM   12  H4  UNL     1      25.655  -1.196  55.050  1.00  0.00     0.161 HD
ENDBRANCH   7  10
BRANCH   8  13
HETATM   13  O2  UNL     1      28.946  -0.713  54.394  1.00  0.00    -0.356 OA
HETATM   14  C16 UNL     1      29.922  -1.001  53.416  1.00  0.00     0.209 C 
ENDBRANCH   8  13
ENDBRANCH   6   7
ENDBRANCH   5   6
ENDBRANCH   4   5
ENDBRANCH   3   4
ENDBRANCH   1   3
BRANCH   1  15
HETATM   15  C6  UNL     1      22.629  -0.013  53.045  1.00  0.00     0.137 A 
HETATM   16  N3  UNL     1      23.103  -0.612  54.150  1.00  0.00    -0.224 NA
HETATM   17  C7  UNL     1      22.341  -1.339  54.987  1.00  0.00     0.235 A 
HETATM   18  N4  UNL     1      21.026  -1.515  54.764  1.00  0.00    -0.241 NA
HETATM   19  C8  UNL     1      20.472  -0.945  53.674  1.00  0.00     0.072 A 
HETATM   20  C9  UNL     1      19.124  -1.116  53.430  1.00  0.00     0.034 A 
HETATM   21  C13 UNL     1      21.281  -0.209  52.840  1.00  0.00     0.040 A 
HETATM   22  C10 UNL     1      18.539  -0.540  52.318  1.00  0.00     0.026 A 
HETATM   23  C11 UNL     1      19.340   0.205  51.467  1.00  0.00     0.035 A 
HETATM   24 CL1  UNL     1      18.520   0.903  50.077  1.00  0.00    -0.084 Cl
HETATM   25  C12 UNL     1      20.682   0.346  51.755  1.00  0.00     0.041 A 
ENDBRANCH   1  15
TORSDOF 8
ENDMDL
MODEL 2
REMARK VINA RESULT:      -6.8      5.253      7.135
REMARK  8 active torsions:
REMARK  status: ('A' for Active; 'I' for Inactive)
REMARK    1  A    between atoms: N1_2  and  C2_3 
REMARK    2  A    between atoms: C2_3  and  O1_4 
REMARK    3  A    between atoms: O1_4  and  C3_5 
REMARK    4  A    between atoms: C3_5  and  C4_6 
REMARK    5  A    between atoms: C4_6  and  C5_7 
REMARK    6  A    between atoms: C5_7  and  N2_8 
REMARK    7  A    between atoms: N2_8  and  C6_9 
REMARK    8  A    between atoms: C14_20  and  O2_22 
ROOT
HETATM    1  N2  UNL     1      26.677   2.332  50.828  1.00  0.00    -0.370 N 
HETATM    2  H9  UNL     1      26.852   1.808  49.961  1.00  0.00     0.161 HD
ENDROOT
BRANCH   1   3
HETATM    3  C5  UNL     1      25.867   3.537  50.732  1.00  0.00     0.150 C 
BRANCH   3   4
HETATM    4  C4  UNL     1      25.947   4.137  49.377  1.00  0.00     0.017 C 
BRANCH   4   5
HETATM    5  C3  UNL     1      27.150   4.487  48.891  1.00  0.00     0.142 C 
BRANCH   5   6
HETATM    6  O1  UNL     1      28.456   4.762  48.438  1.00  0.00    -0.304 OA
BRANCH   6   7
HETATM    7  C2  UNL     1      28.900   6.077  48.575  1.00  0.00     0.171 C 
HETATM    8  C14 UNL     1      30.183   6.026  48.222  1.00  0.00     0.092 C 
HETATM    9  C15 UNL     1      31.123   4.971  47.765  1.00  0.00     0.081 C 
BRANCH   7  10
HETATM   10  N1  UNL     1      28.121   7.206  49.005  1.00  0.00    -0.373 N 
HETATM   11  C1  UNL     1      27.294   7.778  47.949  1.00  0.00     0.148 C 
HETATM   12  H4  UNL     1      28.150   7.575  49.984  1.00  0.00     0.161 HD
ENDBRANCH   7  10
BRANCH   8  13
HETATM   13  O2  UNL     1      30.761   7.284  48.313  1.00  0.00    -0.356 OA
HETATM   14  C16 UNL     1      31.764   7.608  49.251  1.00  0.00     0.209 C 
ENDBRANCH   8  13
ENDBRANCH   6   7
ENDBRANCH   5   6
ENDBRANCH   4   5
ENDBRANCH   3   4
ENDBRANCH   1   3
BRANCH   1  15
HETATM   15  C6  UNL     1      27.161   1.975  52.119  1.00  0.00     0.137 A 
HETATM   16  N3  UNL     1      28.336   2.437  52.581  1.00  0.00    -0.224 NA
HETATM   17  C7  UNL     1      28.833   2.127  53.792  1.00  0.00     0.235 A 
HETATM   18  N4  UNL     1      28.170   1.315  54.635  1.00  0.00    -0.241 NA
HETATM   19  C8  UNL     1      26.982   0.808  54.246  1.00  0.00     0.072 A 
HETATM   20  C9  UNL     1      26.289  -0.027  55.100  1.00  0.00     0.034 A 
HETATM   21  C13 UNL     1      26.504   1.146  53.002  1.00  0.00     0.040 A 
HETATM   22  C10 UNL     1      25.071  -0.557  54.719  1.00  0.00     0.026 A 
HETATM   23  C11 UNL     1      24.575  -0.226  53.467  1.00  0.00     0.035 A 
HETATM   24 CL1  UNL     1      23.020  -0.940  53.059  1.00  0.00    -0.084 Cl
HETATM   25  C12 UNL     1      25.305   0.613  52.651  1.00  0.00     0.041 A 
ENDBRANCH   1  15
TORSDOF 8
ENDMDL
MODEL 3
REMARK VINA RESULT:      -6.8      2.413      3.296
REMARK  8 active torsions:
REMARK  status: ('A' for Active; 'I' for Inactive)
REMARK    1  A    between atoms: N1_2  and  C2_3 
REMARK    2  A    between atoms: C2_3  and  O1_4 
REMARK    3  A    between atoms: O1_4  and  C3_5 
REMARK    4  A    between atoms: C3_5  and  C4_6 
REMARK    5  A    between atoms: C4_6  and  C5_7 
REMARK    6  A    between atoms: C5_7  and  N2_8 
REMARK    7  A    between atoms: N2_8  and  C6_9 
REMARK    8  A    between atoms: C14_20  and  O2_22 
ROOT
HETATM    1  N2  UNL     1      22.901   1.709  50.949  1.00  0.00    -0.370 N 
HETATM    2  H9  UNL     1      23.534   1.291  50.254  1.00  0.00     0.161 HD
ENDROOT
BRANCH   1   3
HETATM    3  C5  UNL     1      23.223   3.042  51.435  1.00  0.00     0.150 C 
BRANCH   3   4
HETATM    4  C4  UNL     1      24.635   3.128  51.885  1.00  0.00     0.017 C 
BRANCH   4   5
HETATM    5  C3  UNL     1      25.359   1.999  51.975  1.00  0.00     0.142 C 
BRANCH   5   6
HETATM    6  O1  UNL     1      26.042   0.778  52.149  1.00  0.00    -0.304 OA
BRANCH   6   7
HETATM    7  C2  UNL     1      26.974   0.725  53.184  1.00  0.00     0.171 C 
HETATM    8  C14 UNL     1      27.353  -0.551  53.217  1.00  0.00     0.092 C 
HETATM    9  C15 UNL     1      27.019  -1.783  52.459  1.00  0.00     0.081 C 
BRANCH   7  10
HETATM   10  N1  UNL     1      27.403   1.821  54.009  1.00  0.00    -0.373 N 
HETATM   11  C1  UNL     1      28.581   2.510  53.495  1.00  0.00     0.148 C 
HETATM   12  H4  UNL     1      26.911   2.093  54.893  1.00  0.00     0.161 HD
ENDBRANCH   7  10
BRANCH   8  13
HETATM   13  O2  UNL     1      28.293  -0.751  54.217  1.00  0.00    -0.356 OA
HETATM   14  C16 UNL     1      29.639  -1.087  53.956  1.00  0.00     0.209 C 
ENDBRANCH   8  13
ENDBRANCH   6   7
ENDBRANCH   5   6
ENDBRANCH   4   5
ENDBRANCH   3   4
ENDBRANCH   1   3
BRANCH   1  15
HETATM   15  C6  UNL     1      21.731   1.089  51.475  1.00  0.00     0.137 A 
HETATM   16  N3  UNL     1      20.523   1.283  50.918  1.00  0.00    -0.224 NA
HETATM   17  C7  UNL     1      19.393   0.719  51.380  1.00  0.00     0.235 A 
HETATM   18  N4  UNL     1      19.402  -0.092  52.453  1.00  0.00    -0.241 NA
HETATM   19  C8  UNL     1      20.575  -0.338  53.070  1.00  0.00     0.072 A 
HETATM   20  C9  UNL     1      20.602  -1.169  54.172  1.00  0.00     0.034 A 
HETATM   21  C13 UNL     1      21.712   0.254  52.571  1.00  0.00     0.040 A 
HETATM   22  C10 UNL     1      21.795  -1.432  54.818  1.00  0.00     0.026 A 
HETATM   23  C11 UNL     1      22.950  -0.842  54.327  1.00  0.00     0.035 A 
HETATM   24 CL1  UNL     1      24.425  -1.228  55.204  1.00  0.00    -0.084 Cl
HETATM   25  C12 UNL     1      22.871  -0.020  53.222  1.00  0.00     0.041 A 
ENDBRANCH   1  15
TORSDOF 8
ENDMDL
MODEL 4
REMARK VINA RESULT:      -6.7      6.013      7.448
REMARK  8 active torsions:
REMARK  status: ('A' for Active; 'I' for Inactive)
REMARK    1  A    between atoms: N1_2  and  C2_3 
REMARK    2  A    between atoms: C2_3  and  O1_4 
REMARK    3  A    between atoms: O1_4  and  C3_5 
REMARK    4  A    between atoms: C3_5  and  C4_6 
REMARK    5  A    between atoms: C4_6  and  C5_7 
REMARK    6  A    between atoms: C5_7  and  N2_8 
REMARK    7  A    between atoms: N2_8  and  C6_9 
REMARK    8  A    between atoms: C14_20  and  O2_22 
ROOT
HETATM    1  N2  UNL     1      26.455   3.596  50.770  1.00  0.00    -0.370 N 
HETATM    2  H9  UNL     1      27.099   4.172  51.327  1.00  0.00     0.161 HD
ENDROOT
BRANCH   1   3
HETATM    3  C5  UNL     1      26.503   3.745  49.323  1.00  0.00     0.150 C 
BRANCH   3   4
HETATM    4  C4  UNL     1      27.079   5.056  48.932  1.00  0.00     0.017 C 
BRANCH   4   5
HETATM    5  C3  UNL     1      28.339   5.100  48.468  1.00  0.00     0.142 C 
BRANCH   5   6
HETATM    6  O1  UNL     1      29.666   5.032  47.996  1.00  0.00    -0.304 OA
BRANCH   6   7
HETATM    7  C2  UNL     1      30.580   5.911  48.574  1.00  0.00     0.171 C 
HETATM    8  C14 UNL     1      31.766   5.360  48.325  1.00  0.00     0.092 C 
HETATM    9  C15 UNL     1      32.250   4.138  47.633  1.00  0.00     0.081 C 
BRANCH   7  10
HETATM   10  N1  UNL     1      30.275   7.129  49.275  1.00  0.00    -0.373 N 
HETATM   11  C1  UNL     1      30.113   8.281  48.397  1.00  0.00     0.148 C 
HETATM   12  H4  UNL     1      30.179   7.174  50.317  1.00  0.00     0.161 HD
ENDBRANCH   7  10
BRANCH   8  13
HETATM   13  O2  UNL     1      32.784   6.140  48.851  1.00  0.00    -0.356 OA
HETATM   14  C16 UNL     1      34.152   5.905  48.594  1.00  0.00     0.209 C 
ENDBRANCH   8  13
ENDBRANCH   6   7
ENDBRANCH   5   6
ENDBRANCH   4   5
ENDBRANCH   3   4
ENDBRANCH   1   3
BRANCH   1  15
HETATM   15  C6  UNL     1      25.518   2.663  51.298  1.00  0.00     0.137 A 
HETATM   16  N3  UNL     1      24.195   2.811  51.106  1.00  0.00    -0.224 NA
HETATM   17  C7  UNL     1      23.274   1.955  51.585  1.00  0.00     0.235 A 
HETATM   18  N4  UNL     1      23.628   0.874  52.303  1.00  0.00    -0.241 NA
HETATM   19  C8  UNL     1      24.937   0.654  52.541  1.00  0.00     0.072 A 
HETATM   20  C9  UNL     1      25.317  -0.451  53.276  1.00  0.00     0.034 A 
HETATM   21  C13 UNL     1      25.852   1.548  52.036  1.00  0.00     0.040 A 
HETATM   22  C10 UNL     1      26.653  -0.693  53.530  1.00  0.00     0.026 A 
HETATM   23  C11 UNL     1      27.588   0.200  53.029  1.00  0.00     0.035 A 
HETATM   24 CL1  UNL     1      29.266  -0.179  53.396  1.00  0.00    -0.084 Cl
HETATM   25  C12 UNL     1      27.158   1.289  52.299  1.00  0.00     0.041 A 
ENDBRANCH   1  15
TORSDOF 8
ENDMDL
MODEL 5
REMARK VINA RESULT:      -6.7      4.141      6.961
REMARK  8 active torsions:
REMARK  status: ('A' for Active; 'I' for Inactive)
REMARK    1  A    between atoms: N1_2  and  C2_3 
REMARK    2  A    between atoms: C2_3  and  O1_4 
REMARK    3  A    between atoms: O1_4  and  C3_5 
REMARK    4  A    between atoms: C3_5  and  C4_6 
REMARK    5  A    between atoms: C4_6  and  C5_7 
REMARK    6  A    between atoms: C5_7  and  N2_8 
REMARK    7  A    between atoms: N2_8  and  C6_9 
REMARK    8  A    between atoms: C14_20  and  O2_22 
ROOT
HETATM    1  N2  UNL     1      26.355   3.350  51.368  1.00  0.00    -0.370 N 
HETATM    2  H9  UNL     1      25.880   4.212  51.665  1.00  0.00     0.161 HD
ENDROOT
BRANCH   1   3
HETATM    3  C5  UNL     1      26.602   3.176  49.944  1.00  0.00     0.150 C 
BRANCH   3   4
HETATM    4  C4  UNL     1      26.186   4.372  49.172  1.00  0.00     0.017 C 
BRANCH   4   5
HETATM    5  C3  UNL     1      25.851   5.492  49.836  1.00  0.00     0.142 C 
BRANCH   5   6
HETATM    6  O1  UNL     1      25.502   6.722  50.430  1.00  0.00    -0.304 OA
BRANCH   6   7
HETATM    7  C2  UNL     1      24.277   6.769  51.093  1.00  0.00     0.171 C 
HETATM    8  C14 UNL     1      23.539   7.596  50.356  1.00  0.00     0.092 C 
HETATM    9  C15 UNL     1      23.739   8.385  49.113  1.00  0.00     0.081 C 
BRANCH   7  10
HETATM   10  N1  UNL     1      23.925   6.070  52.299  1.00  0.00    -0.373 N 
HETATM   11  C1  UNL     1      23.207   4.824  52.061  1.00  0.00     0.148 C 
HETATM   12  H4  UNL     1      24.166   6.429  53.253  1.00  0.00     0.161 HD
ENDBRANCH   7  10
BRANCH   8  13
HETATM   13  O2  UNL     1      22.274   7.740  50.906  1.00  0.00    -0.356 OA
HETATM   14  C16 UNL     1      21.091   7.366  50.234  1.00  0.00     0.209 C 
ENDBRANCH   8  13
ENDBRANCH   6   7
ENDBRANCH   5   6
ENDBRANCH   4   5
ENDBRANCH   3   4
ENDBRANCH   1   3
BRANCH   1  15
HETATM   15  C6  UNL     1      26.793   2.310  52.237  1.00  0.00     0.137 A 
HETATM   16  N3  UNL     1      28.083   2.195  52.600  1.00  0.00    -0.224 NA
HETATM   17  C7  UNL     1      28.541   1.230  53.418  1.00  0.00     0.235 A 
HETATM   18  N4  UNL     1      27.719   0.298  53.933  1.00  0.00    -0.241 NA
HETATM   19  C8  UNL     1      26.409   0.343  53.616  1.00  0.00     0.072 A 
HETATM   20  C9  UNL     1      25.552  -0.605  54.137  1.00  0.00     0.034 A 
HETATM   21  C13 UNL     1      25.974   1.344  52.779  1.00  0.00     0.040 A 
HETATM   22  C10 UNL     1      24.206  -0.575  53.823  1.00  0.00     0.026 A 
HETATM   23  C11 UNL     1      23.752   0.426  52.980  1.00  0.00     0.035 A 
HETATM   24 CL1  UNL     1      22.028   0.395  52.630  1.00  0.00    -0.084 Cl
HETATM   25  C12 UNL     1      24.648   1.352  52.486  1.00  0.00     0.041 A 
ENDBRANCH   1  15
TORSDOF 8
ENDMDL
MODEL 6
REMARK VINA RESULT:      -6.6      3.539      6.345
REMARK  8 active torsions:
REMARK  status: ('A' for Active; 'I' for Inactive)
REMARK    1  A    between atoms: N1_2  and  C2_3 
REMARK    2  A    between atoms: C2_3  and  O1_4 
REMARK    3  A    between atoms: O1_4  and  C3_5 
REMARK    4  A    between atoms: C3_5  and  C4_6 
REMARK    5  A    between atoms: C4_6  and  C5_7 
REMARK    6  A    between atoms: C5_7  and  N2_8 
REMARK    7  A    between atoms: N2_8  and  C6_9 
REMARK    8  A    between atoms: C14_20  and  O2_22 
ROOT
HETATM    1  N2  UNL     1      25.977   2.457  50.818  1.00  0.00    -0.370 N 
HETATM    2  H9  UNL     1      25.093   2.085  50.448  1.00  0.00     0.161 HD
ENDROOT
BRANCH   1   3
HETATM    3  C5  UNL     1      26.635   3.508  50.056  1.00  0.00     0.150 C 
BRANCH   3   4
HETATM    4  C4  UNL     1      25.647   4.392  49.388  1.00  0.00     0.017 C 
BRANCH   4   5
HETATM    5  C3  UNL     1      24.338   4.195  49.618  1.00  0.00     0.142 C 
BRANCH   5   6
HETATM    6  O1  UNL     1      22.944   4.034  49.754  1.00  0.00    -0.304 OA
BRANCH   6   7
HETATM    7  C2  UNL     1      22.510   2.884  50.412  1.00  0.00     0.171 C 
HETATM    8  C14 UNL     1      22.149   3.315  51.619  1.00  0.00     0.092 C 
HETATM    9  C15 UNL     1      22.120   4.624  52.320  1.00  0.00     0.081 C 
BRANCH   7  10
HETATM   10  N1  UNL     1      22.475   1.551  49.877  1.00  0.00    -0.373 N 
HETATM   11  C1  UNL     1      21.623   1.417  48.702  1.00  0.00     0.148 C 
HETATM   12  H4  UNL     1      23.014   0.757  50.297  1.00  0.00     0.161 HD
ENDBRANCH   7  10
BRANCH   8  13
HETATM   13  O2  UNL     1      21.689   2.260  52.394  1.00  0.00    -0.356 OA
HETATM   14  C16 UNL     1      20.332   2.086  52.736  1.00  0.00     0.209 C 
ENDBRANCH   8  13
ENDBRANCH   6   7
ENDBRANCH   5   6
ENDBRANCH   4   5
ENDBRANCH   3   4
ENDBRANCH   1   3
BRANCH   1  15
HETATM   15  C6  UNL     1      26.613   2.029  52.019  1.00  0.00     0.137 A 
HETATM   16  N3  UNL     1      27.829   2.482  52.369  1.00  0.00    -0.224 NA
HETATM   17  C7  UNL     1      28.467   2.106  53.493  1.00  0.00     0.235 A 
HETATM   18  N4  UNL     1      27.915   1.233  54.354  1.00  0.00    -0.241 NA
HETATM   19  C8  UNL     1      26.695   0.731  54.075  1.00  0.00     0.072 A 
HETATM   20  C9  UNL     1      26.114  -0.166  54.949  1.00  0.00     0.034 A 
HETATM   21  C13 UNL     1      26.071   1.137  52.919  1.00  0.00     0.040 A 
HETATM   22  C10 UNL     1      24.865  -0.692  54.679  1.00  0.00     0.026 A 
HETATM   23  C11 UNL     1      24.222  -0.293  53.517  1.00  0.00     0.035 A 
HETATM   24 CL1  UNL     1      22.637  -1.007  53.248  1.00  0.00    -0.084 Cl
HETATM   25  C12 UNL     1      24.845   0.607  52.676  1.00  0.00     0.041 A 
ENDBRANCH   1  15
TORSDOF 8
ENDMDL
MODEL 7
REMARK VINA RESULT:      -6.6      4.249      6.215
REMARK  8 active torsions:
REMARK  status: ('A' for Active; 'I' for Inactive)
REMARK    1  A    between atoms: N1_2  and  C2_3 
REMARK    2  A    between atoms: C2_3  and  O1_4 
REMARK    3  A    between atoms: O1_4  and  C3_5 
REMARK    4  A    between atoms: C3_5  and  C4_6 
REMARK    5  A    between atoms: C4_6  and  C5_7 
REMARK    6  A    between atoms: C5_7  and  N2_8 
REMARK    7  A    between atoms: N2_8  and  C6_9 
REMARK    8  A    between atoms: C14_20  and  O2_22 
ROOT
HETATM    1  N2  UNL     1      25.946   2.906  52.453  1.00  0.00    -0.370 N 
HETATM    2  H9  UNL     1      25.493   3.807  52.654  1.00  0.00     0.161 HD
ENDROOT
BRANCH   1   3
HETATM    3  C5  UNL     1      26.745   2.812  51.240  1.00  0.00     0.150 C 
BRANCH   3   4
HETATM    4  C4  UNL     1      25.907   2.974  50.025  1.00  0.00     0.017 C 
BRANCH   4   5
HETATM    5  C3  UNL     1      25.784   4.196  49.479  1.00  0.00     0.142 C 
BRANCH   5   6
HETATM    6  O1  UNL     1      25.553   5.487  48.963  1.00  0.00    -0.304 OA
BRANCH   6   7
HETATM    7  C2  UNL     1      25.781   6.556  49.830  1.00  0.00     0.171 C 
HETATM    8  C14 UNL     1      26.715   7.280  49.217  1.00  0.00     0.092 C 
HETATM    9  C15 UNL     1      27.473   7.186  47.944  1.00  0.00     0.081 C 
BRANCH   7  10
HETATM   10  N1  UNL     1      25.134   6.789  51.092  1.00  0.00    -0.373 N 
HETATM   11  C1  UNL     1      23.801   7.367  50.966  1.00  0.00     0.148 C 
HETATM   12  H4  UNL     1      25.585   6.564  52.010  1.00  0.00     0.161 HD
ENDBRANCH   7  10
BRANCH   8  13
HETATM   13  O2  UNL     1      27.044   8.392  49.978  1.00  0.00    -0.356 OA
HETATM   14  C16 UNL     1      27.335   9.654  49.418  1.00  0.00     0.209 C 
ENDBRANCH   8  13
ENDBRANCH   6   7
ENDBRANCH   5   6
ENDBRANCH   4   5
ENDBRANCH   3   4
ENDBRANCH   1   3
BRANCH   1  15
HETATM   15  C6  UNL     1      25.855   1.739  53.265  1.00  0.00     0.137 A 
HETATM   16  N3  UNL     1      26.853   1.379  54.091  1.00  0.00    -0.224 NA
HETATM   17  C7  UNL     1      26.811   0.287  54.875  1.00  0.00     0.235 A 
HETATM   18  N4  UNL     1      25.744  -0.532  54.881  1.00  0.00    -0.241 NA
HETATM   19  C8  UNL     1      24.700  -0.241  54.079  1.00  0.00     0.072 A 
HETATM   20  C9  UNL     1      23.597  -1.071  54.073  1.00  0.00     0.034 A 
HETATM   21  C13 UNL     1      24.775   0.883  53.290  1.00  0.00     0.040 A 
HETATM   22  C10 UNL     1      22.517  -0.790  53.257  1.00  0.00     0.026 A 
HETATM   23  C11 UNL     1      22.578   0.340  52.456  1.00  0.00     0.035 A 
HETATM   24 CL1  UNL     1      21.165   0.628  51.449  1.00  0.00    -0.084 Cl
HETATM   25  C12 UNL     1      23.702   1.138  52.499  1.00  0.00     0.041 A 
ENDBRANCH   1  15
TORSDOF 8
ENDMDL
MODEL 8
REMARK VINA RESULT:      -6.5      3.328      5.958
REMARK  8 active torsions:
REMARK  status: ('A' for Active; 'I' for Inactive)
REMARK    1  A    between atoms: N1_2  and  C2_3 
REMARK    2  A    between atoms: C2_3  and  O1_4 
REMARK    3  A    between atoms: O1_4  and  C3_5 
REMARK    4  A    between atoms: C3_5  and  C4_6 
REMARK    5  A    between atoms: C4_6  and  C5_7 
REMARK    6  A    between atoms: C5_7  and  N2_8 
REMARK    7  A    between atoms: N2_8  and  C6_9 
REMARK    8  A    between atoms: C14_20  and  O2_22 
ROOT
HETATM    1  N2  UNL     1      25.524   1.689  51.681  1.00  0.00    -0.370 N 
HETATM    2  H9  UNL     1      24.598   1.708  51.235  1.00  0.00     0.161 HD
ENDROOT
BRANCH   1   3
HETATM    3  C5  UNL     1      26.580   2.482  51.070  1.00  0.00     0.150 C 
BRANCH   3   4
HETATM    4  C4  UNL     1      26.055   3.325  49.967  1.00  0.00     0.017 C 
BRANCH   4   5
HETATM    5  C3  UNL     1      24.729   3.365  49.753  1.00  0.00     0.142 C 
BRANCH   5   6
HETATM    6  O1  UNL     1      23.327   3.454  49.633  1.00  0.00    -0.304 OA
BRANCH   6   7
HETATM    7  C2  UNL     1      22.609   3.623  50.817  1.00  0.00     0.171 C 
HETATM    8  C14 UNL     1      21.932   2.484  50.952  1.00  0.00     0.092 C 
HETATM    9  C15 UNL     1      21.806   1.220  50.183  1.00  0.00     0.081 C 
BRANCH   7  10
HETATM   10  N1  UNL     1      22.621   4.778  51.671  1.00  0.00    -0.373 N 
HETATM   11  C1  UNL     1      21.825   5.888  51.161  1.00  0.00     0.148 C 
HETATM   12  H4  UNL     1      23.153   4.812  52.572  1.00  0.00     0.161 HD
ENDBRANCH   7  10
BRANCH   8  13
HETATM   13  O2  UNL     1      21.162   2.512  52.105  1.00  0.00    -0.356 OA
HETATM   14  C16 UNL     1      19.755   2.620  52.093  1.00  0.00     0.209 C 
ENDBRANCH   8  13
ENDBRANCH   6   7
ENDBRANCH   5   6
ENDBRANCH   4   5
ENDBRANCH   3   4
ENDBRANCH   1   3
BRANCH   1  15
HETATM   15  C6  UNL     1      25.861   0.947  52.850  1.00  0.00     0.137 A 
HETATM   16  N3  UNL     1      27.118   0.916  53.324  1.00  0.00    -0.224 NA
HETATM   17  C7  UNL     1      27.482   0.231  54.423  1.00  0.00     0.235 A 
HETATM   18  N4  UNL     1      26.589  -0.484  55.131  1.00  0.00    -0.241 NA
HETATM   19  C8  UNL     1      25.304  -0.505  54.720  1.00  0.00     0.072 A 
HETATM   20  C9  UNL     1      24.375  -1.234  55.436  1.00  0.00     0.034 A 
HETATM   21  C13 UNL     1      24.967   0.208  53.593  1.00  0.00     0.040 A 
HETATM   22  C10 UNL     1      23.055  -1.268  55.030  1.00  0.00     0.026 A 
HETATM   23  C11 UNL     1      22.699  -0.555  53.896  1.00  0.00     0.035 A 
HETATM   24 CL1  UNL     1      21.000  -0.650  53.447  1.00  0.00    -0.084 Cl
HETATM   25  C12 UNL     1      23.664   0.158  53.216  1.00  0.00     0.041 A 
ENDBRANCH   1  15
TORSDOF 8
ENDMDL
MODEL 9
REMARK VINA RESULT:      -6.5      5.248      7.613
REMARK  8 active torsions:
REMARK  status: ('A' for Active; 'I' for Inactive)
REMARK    1  A    between atoms: N1_2  and  C2_3 
REMARK    2  A    between atoms: C2_3  and  O1_4 
REMARK    3  A    between atoms: O1_4  and  C3_5 
REMARK    4  A    between atoms: C3_5  and  C4_6 
REMARK    5  A    between atoms: C4_6  and  C5_7 
REMARK    6  A    between atoms: C5_7  and  N2_8 
REMARK    7  A    between atoms: N2_8  and  C6_9 
REMARK    8  A    between atoms: C14_20  and  O2_22 
ROOT
HETATM    1  N2  UNL     1      26.375   3.614  50.849  1.00  0.00    -0.370 N 
HETATM    2  H9  UNL     1      27.094   4.150  51.352  1.00  0.00     0.161 HD
ENDROOT
BRANCH   1   3
HETATM    3  C5  UNL     1      26.491   3.529  49.401  1.00  0.00     0.150 C 
BRANCH   3   4
HETATM    4  C4  UNL     1      27.521   4.465  48.884  1.00  0.00     0.017 C 
BRANCH   4   5
HETATM    5  C3  UNL     1      27.156   5.715  48.552  1.00  0.00     0.142 C 
BRANCH   5   6
HETATM    6  O1  UNL     1      26.698   7.023  48.293  1.00  0.00    -0.304 OA
BRANCH   6   7
HETATM    7  C2  UNL     1      26.045   7.675  49.338  1.00  0.00     0.171 C 
HETATM    8  C14 UNL     1      24.765   7.679  48.972  1.00  0.00     0.092 C 
HETATM    9  C15 UNL     1      23.987   7.185  47.808  1.00  0.00     0.081 C 
BRANCH   7  10
HETATM   10  N1  UNL     1      26.651   8.209  50.527  1.00  0.00    -0.373 N 
HETATM   11  C1  UNL     1      27.505   9.364  50.277  1.00  0.00     0.148 C 
HETATM   12  H4  UNL     1      26.488   7.803  51.478  1.00  0.00     0.161 HD
ENDBRANCH   7  10
BRANCH   8  13
HETATM   13  O2  UNL     1      23.988   8.307  49.933  1.00  0.00    -0.356 OA
HETATM   14  C16 UNL     1      22.987   7.642  50.673  1.00  0.00     0.209 C 
ENDBRANCH   8  13
ENDBRANCH   6   7
ENDBRANCH   5   6
ENDBRANCH   4   5
ENDBRANCH   3   4
ENDBRANCH   1   3
BRANCH   1  15
HETATM   15  C6  UNL     1      25.271   2.946  51.454  1.00  0.00     0.137 A 
HETATM   16  N3  UNL     1      24.033   3.468  51.423  1.00  0.00    -0.224 NA
HETATM   17  C7  UNL     1      22.962   2.873  51.980  1.00  0.00     0.235 A 
HETATM   18  N4  UNL     1      23.067   1.693  52.617  1.00  0.00    -0.241 NA
HETATM   19  C8  UNL     1      24.278   1.103  52.692  1.00  0.00     0.072 A 
HETATM   20  C9  UNL     1      24.404  -0.108  53.342  1.00  0.00     0.034 A 
HETATM   21  C13 UNL     1      25.351   1.738  52.112  1.00  0.00     0.040 A 
HETATM   22  C10 UNL     1      25.636  -0.727  53.430  1.00  0.00     0.026 A 
HETATM   23  C11 UNL     1      26.727  -0.100  52.850  1.00  0.00     0.035 A 
HETATM   24 CL1  UNL     1      28.258  -0.952  53.006  1.00  0.00    -0.084 Cl
HETATM   25  C12 UNL     1      26.550   1.110  52.211  1.00  0.00     0.041 A 
ENDBRANCH   1  15
TORSDOF 8
ENDMDL
