MODEL 1
REMARK VINA RESULT:      -7.9      0.000      0.000
REMARK  5 active torsions:
REMARK  status: ('A' for Active; 'I' for Inactive)
REMARK    1  A    between atoms: N1_7  and  C6_8 
REMARK    2  A    between atoms: C9_13  and  C10_14 
REMARK    3  A    between atoms: C11_15  and  C12_16 
REMARK    4  A    between atoms: C12_16  and  C13_17 
REMARK    5  A    between atoms: C13_17  and  C14_18 
ROOT
HETATM    1  C6  UNL     1      24.180   0.420  53.243  1.00  0.00     0.115 A 
HETATM    2  N2  UNL     1      24.101  -0.571  54.076  1.00  0.00    -0.228 NA
HETATM    3  C7  UNL     1      22.777  -0.862  54.555  1.00  0.00     0.228 A 
HETATM    4  N3  UNL     1      21.832  -0.147  54.133  1.00  0.00    -0.282 NA
HETATM    5  C8  UNL     1      21.805   0.945  53.235  1.00  0.00     0.166 A 
HETATM    6  C9  UNL     1      23.158   1.297  52.704  1.00  0.00     0.097 A 
ENDROOT
BRANCH   6   7
HETATM    7  C10 UNL     1      23.180   1.375  51.214  1.00  0.00    -0.017 C 
HETATM    8  C11 UNL     1      23.838   2.295  50.523  1.00  0.00    -0.029 C 
BRANCH   8   9
HETATM    9  C12 UNL     1      24.681   3.433  50.898  1.00  0.00     0.031 C 
BRANCH   9  10
HETATM   10  C13 UNL     1      26.023   3.295  50.202  1.00  0.00     0.042 C 
BRANCH  10  11
HETATM   11  C14 UNL     1      26.361   4.565  49.468  1.00  0.00    -0.058 A 
HETATM   12  C15 UNL     1      25.431   5.582  49.423  1.00  0.00     0.007 A 
HETATM   13  C16 UNL     1      25.768   6.736  48.742  1.00  0.00     0.001 A 
HETATM   14  C17 UNL     1      26.978   6.916  48.114  1.00  0.00     0.000 A 
HETATM   15  C18 UNL     1      27.893   5.861  48.184  1.00  0.00     0.001 A 
HETATM   16  C19 UNL     1      27.608   4.676  48.854  1.00  0.00     0.007 A 
ENDBRANCH  10  11
ENDBRANCH   9  10
ENDBRANCH   8   9
ENDBRANCH   6   7
BRANCH   1  17
HETATM   17  N1  UNL     1      25.558   0.504  52.927  1.00  0.00    -0.334 N 
HETATM   18  C1  UNL     1      26.420   1.543  53.466  1.00  0.00     0.276 C 
HETATM   19  F1  UNL     1      25.661   2.518  54.119  1.00  0.00    -0.226 F 
HETATM   20  C2  UNL     1      27.270   0.892  54.540  1.00  0.00     0.086 C 
HETATM   21  C3  UNL     1      27.960  -0.271  53.902  1.00  0.00    -0.024 C 
HETATM   22  C4  UNL     1      27.571  -0.858  52.787  1.00  0.00    -0.011 C 
HETATM   23  C5  UNL     1      26.349  -0.366  52.058  1.00  0.00     0.154 C 
ENDBRANCH   1  17
TORSDOF 5
ENDMDL
MODEL 2
REMARK VINA RESULT:      -7.8      2.481      6.055
REMARK  5 active torsions:
REMARK  status: ('A' for Active; 'I' for Inactive)
REMARK    1  A    between atoms: N1_7  and  C6_8 
REMARK    2  A    between atoms: C9_13  and  C10_14 
REMARK    3  A    between atoms: C11_15  and  C12_16 
REMARK    4  A    between atoms: C12_16  and  C13_17 
REMARK    5  A    between atoms: C13_17  and  C14_18 
ROOT
HETATM    1  C6  UNL     1      23.871   3.279  49.809  1.00  0.00     0.115 A 
HETATM    2  N2  UNL     1      23.412   3.702  48.672  1.00  0.00    -0.228 NA
HETATM    3  C7  UNL     1      22.297   2.960  48.149  1.00  0.00     0.228 A 
HETATM    4  N3  UNL     1      21.873   1.987  48.825  1.00  0.00    -0.282 NA
HETATM    5  C8  UNL     1      22.293   1.445  50.062  1.00  0.00     0.166 A 
HETATM    6  C9  UNL     1      23.454   2.177  50.655  1.00  0.00     0.097 A 
ENDROOT
BRANCH   6   7
HETATM    7  C10 UNL     1      23.206   2.584  52.068  1.00  0.00    -0.017 C 
HETATM    8  C11 UNL     1      23.855   2.091  53.113  1.00  0.00    -0.029 C 
BRANCH   8   9
HETATM    9  C12 UNL     1      24.918   1.096  53.269  1.00  0.00     0.031 C 
BRANCH   9  10
HETATM   10  C13 UNL     1      26.238   1.819  53.467  1.00  0.00     0.042 C 
BRANCH  10  11
HETATM   11  C14 UNL     1      27.378   0.837  53.444  1.00  0.00    -0.058 A 
HETATM   12  C15 UNL     1      28.649   1.277  53.750  1.00  0.00     0.007 A 
HETATM   13  C16 UNL     1      29.676   0.355  53.721  1.00  0.00     0.001 A 
HETATM   14  C17 UNL     1      29.493  -0.972  53.406  1.00  0.00     0.000 A 
HETATM   15  C18 UNL     1      28.190  -1.376  53.103  1.00  0.00     0.001 A 
HETATM   16  C19 UNL     1      27.117  -0.492  53.115  1.00  0.00     0.007 A 
ENDBRANCH  10  11
ENDBRANCH   9  10
ENDBRANCH   8   9
ENDBRANCH   6   7
BRANCH   1  17
HETATM   17  N1  UNL     1      24.942   4.156  50.104  1.00  0.00    -0.334 N 
HETATM   18  C1  UNL     1      26.314   3.694  50.237  1.00  0.00     0.276 C 
HETATM   19  F1  UNL     1      26.360   2.298  50.256  1.00  0.00    -0.226 F 
HETATM   20  C2  UNL     1      27.042   4.115  48.975  1.00  0.00     0.086 C 
HETATM   21  C3  UNL     1      26.854   5.593  48.838  1.00  0.00    -0.024 C 
HETATM   22  C4  UNL     1      25.904   6.289  49.430  1.00  0.00    -0.011 C 
HETATM   23  C5  UNL     1      24.904   5.602  50.322  1.00  0.00     0.154 C 
ENDBRANCH   1  17
TORSDOF 5
ENDMDL
MODEL 3
REMARK VINA RESULT:      -7.8      2.777      5.285
REMARK  5 active torsions:
REMARK  status: ('A' for Active; 'I' for Inactive)
REMARK    1  A    between atoms: N1_7  and  C6_8 
REMARK    2  A    between atoms: C9_13  and  C10_14 
REMARK    3  A    between atoms: C11_15  and  C12_16 
REMARK    4  A    between atoms: C12_16  and  C13_17 
REMARK    5  A    between atoms: C13_17  and  C14_18 
ROOT
HETATM    1  C6  UNL     1      21.892   0.236  52.578  1.00  0.00     0.115 A 
HETATM    2  N2  UNL     1      20.979  -0.534  53.084  1.00  0.00    -0.228 NA
HETATM    3  C7  UNL     1      21.410  -1.347  54.189  1.00  0.00     0.228 A 
HETATM    4  N3  UNL     1      22.608  -1.241  54.561  1.00  0.00    -0.282 NA
HETATM    5  C8  UNL     1      23.675  -0.444  54.086  1.00  0.00     0.166 A 
HETATM    6  C9  UNL     1      23.286   0.423  52.932  1.00  0.00     0.097 A 
ENDROOT
BRANCH   6   7
HETATM    7  C10 UNL     1      23.648   1.854  53.151  1.00  0.00    -0.017 C 
HETATM    8  C11 UNL     1      24.394   2.572  52.325  1.00  0.00    -0.029 C 
BRANCH   8   9
HETATM    9  C12 UNL     1      25.062   2.283  51.053  1.00  0.00     0.031 C 
BRANCH   9  10
HETATM   10  C13 UNL     1      26.549   2.539  51.214  1.00  0.00     0.042 C 
BRANCH  10  11
HETATM   11  C14 UNL     1      27.152   1.529  52.154  1.00  0.00    -0.058 A 
HETATM   12  C15 UNL     1      26.845   0.195  51.992  1.00  0.00     0.007 A 
HETATM   13  C16 UNL     1      27.413  -0.709  52.868  1.00  0.00     0.001 A 
HETATM   14  C17 UNL     1      28.262  -0.344  53.886  1.00  0.00     0.000 A 
HETATM   15  C18 UNL     1      28.547   1.018  54.016  1.00  0.00     0.001 A 
HETATM   16  C19 UNL     1      28.005   1.974  53.163  1.00  0.00     0.007 A 
ENDBRANCH  10  11
ENDBRANCH   9  10
ENDBRANCH   8   9
ENDBRANCH   6   7
BRANCH   1  17
HETATM   17  N1  UNL     1      21.233   0.918  51.527  1.00  0.00    -0.334 N 
HETATM   18  C1  UNL     1      20.306   2.013  51.769  1.00  0.00     0.276 C 
HETATM   19  F1  UNL     1      20.017   2.116  53.133  1.00  0.00    -0.226 F 
HETATM   20  C2  UNL     1      21.034   3.292  51.403  1.00  0.00     0.086 C 
HETATM   21  C3  UNL     1      21.511   3.131  49.995  1.00  0.00    -0.024 C 
HETATM   22  C4  UNL     1      21.654   1.976  49.376  1.00  0.00    -0.011 C 
HETATM   23  C5  UNL     1      21.330   0.689  50.086  1.00  0.00     0.154 C 
ENDBRANCH   1  17
TORSDOF 5
ENDMDL
MODEL 4
REMARK VINA RESULT:      -7.7      3.394      6.435
REMARK  5 active torsions:
REMARK  status: ('A' for Active; 'I' for Inactive)
REMARK    1  A    between atoms: N1_7  and  C6_8 
REMARK    2  A    between atoms: C9_13  and  C10_14 
REMARK    3  A    between atoms: C11_15  and  C12_16 
REMARK    4  A    between atoms: C12_16  and  C13_17 
REMARK    5  A    between atoms: C13_17  and  C14_18 
ROOT
HETATM    1  C6  UNL     1      21.582   0.728  52.756  1.00  0.00     0.115 A 
HETATM    2  N2  UNL     1      20.689   0.093  53.450  1.00  0.00    -0.228 NA
HETATM    3  C7  UNL     1      21.213  -0.828  54.421  1.00  0.00     0.228 A 
HETATM    4  N3  UNL     1      22.463  -0.935  54.512  1.00  0.00    -0.282 NA
HETATM    5  C8  UNL     1      23.516  -0.299  53.814  1.00  0.00     0.166 A 
HETATM    6  C9  UNL     1      23.031   0.672  52.786  1.00  0.00     0.097 A 
ENDROOT
BRANCH   6   7
HETATM    7  C10 UNL     1      23.667   2.014  52.929  1.00  0.00    -0.017 C 
HETATM    8  C11 UNL     1      24.924   2.283  52.609  1.00  0.00    -0.029 C 
BRANCH   8   9
HETATM    9  C12 UNL     1      26.025   1.484  52.067  1.00  0.00     0.031 C 
BRANCH   9  10
HETATM   10  C13 UNL     1      27.077   1.306  53.146  1.00  0.00     0.042 C 
BRANCH  10  11
HETATM   11  C14 UNL     1      27.651  -0.084  53.090  1.00  0.00    -0.058 A 
HETATM   12  C15 UNL     1      28.951  -0.290  53.499  1.00  0.00     0.007 A 
HETATM   13  C16 UNL     1      29.452  -1.576  53.437  1.00  0.00     0.001 A 
HETATM   14  C17 UNL     1      28.721  -2.651  52.989  1.00  0.00     0.000 A 
HETATM   15  C18 UNL     1      27.407  -2.399  52.583  1.00  0.00     0.001 A 
HETATM   16  C19 UNL     1      26.850  -1.125  52.624  1.00  0.00     0.007 A 
ENDBRANCH  10  11
ENDBRANCH   9  10
ENDBRANCH   8   9
ENDBRANCH   6   7
BRANCH   1  17
HETATM   17  N1  UNL     1      20.829   1.556  51.889  1.00  0.00    -0.334 N 
HETATM   18  C1  UNL     1      20.675   1.266  50.472  1.00  0.00     0.276 C 
HETATM   19  F1  UNL     1      21.532   0.230  50.089  1.00  0.00    -0.226 F 
HETATM   20  C2  UNL     1      19.269   0.729  50.286  1.00  0.00     0.086 C 
HETATM   21  C3  UNL     1      18.336   1.751  50.854  1.00  0.00    -0.024 C 
HETATM   22  C4  UNL     1      18.680   2.686  51.717  1.00  0.00    -0.011 C 
HETATM   23  C5  UNL     1      20.101   2.785  52.203  1.00  0.00     0.154 C 
ENDBRANCH   1  17
TORSDOF 5
ENDMDL
MODEL 5
REMARK VINA RESULT:      -7.7      3.209      5.667
REMARK  5 active torsions:
REMARK  status: ('A' for Active; 'I' for Inactive)
REMARK    1  A    between atoms: N1_7  and  C6_8 
REMARK    2  A    between atoms: C9_13  and  C10_14 
REMARK    3  A    between atoms: C11_15  and  C12_16 
REMARK    4  A    between atoms: C12_16  and  C13_17 
REMARK    5  A    between atoms: C13_17  and  C14_18 
ROOT
HETATM    1  C6  UNL     1      21.595   2.050  50.860  1.00  0.00     0.115 A 
HETATM    2  N2  UNL     1      20.987   2.794  49.988  1.00  0.00    -0.228 NA
HETATM    3  C7  UNL     1      19.655   2.372  49.648  1.00  0.00     0.228 A 
HETATM    4  N3  UNL     1      19.206   1.342  50.215  1.00  0.00    -0.282 NA
HETATM    5  C8  UNL     1      19.774   0.467  51.168  1.00  0.00     0.166 A 
HETATM    6  C9  UNL     1      21.164   0.855  51.559  1.00  0.00     0.097 A 
ENDROOT
BRANCH   6   7
HETATM    7  C10 UNL     1      21.331   0.950  53.039  1.00  0.00    -0.017 C 
HETATM    8  C11 UNL     1      22.227   0.266  53.736  1.00  0.00    -0.029 C 
BRANCH   8   9
HETATM    9  C12 UNL     1      23.259  -0.710  53.378  1.00  0.00     0.031 C 
BRANCH   9  10
HETATM   10  C13 UNL     1      24.184  -0.900  54.566  1.00  0.00     0.042 C 
BRANCH  10  11
HETATM   11  C14 UNL     1      25.606  -0.606  54.171  1.00  0.00    -0.058 A 
HETATM   12  C15 UNL     1      26.395   0.148  55.014  1.00  0.00     0.007 A 
HETATM   13  C16 UNL     1      27.696   0.402  54.627  1.00  0.00     0.001 A 
HETATM   14  C17 UNL     1      28.237  -0.057  53.448  1.00  0.00     0.000 A 
HETATM   15  C18 UNL     1      27.404  -0.817  52.622  1.00  0.00     0.001 A 
HETATM   16  C19 UNL     1      26.086  -1.104  52.961  1.00  0.00     0.007 A 
ENDBRANCH  10  11
ENDBRANCH   9  10
ENDBRANCH   8   9
ENDBRANCH   6   7
BRANCH   1  17
HETATM   17  N1  UNL     1      22.861   2.662  51.021  1.00  0.00    -0.334 N 
HETATM   18  C1  UNL     1      23.048   3.872  51.806  1.00  0.00     0.276 C 
HETATM   19  F1  UNL     1      21.813   4.423  52.156  1.00  0.00    -0.226 F 
HETATM   20  C2  UNL     1      23.699   3.452  53.110  1.00  0.00     0.086 C 
HETATM   21  C3  UNL     1      24.941   2.700  52.751  1.00  0.00    -0.024 C 
HETATM   22  C4  UNL     1      25.174   2.147  51.578  1.00  0.00    -0.011 C 
HETATM   23  C5  UNL     1      24.153   2.245  50.476  1.00  0.00     0.154 C 
ENDBRANCH   1  17
TORSDOF 5
ENDMDL
MODEL 6
REMARK VINA RESULT:      -7.7      2.229      4.881
REMARK  5 active torsions:
REMARK  status: ('A' for Active; 'I' for Inactive)
REMARK    1  A    between atoms: N1_7  and  C6_8 
REMARK    2  A    between atoms: C9_13  and  C10_14 
REMARK    3  A    between atoms: C11_15  and  C12_16 
REMARK    4  A    between atoms: C12_16  and  C13_17 
REMARK    5  A    between atoms: C13_17  and  C14_18 
ROOT
HETATM    1  C6  UNL     1      25.931   2.070  51.396  1.00  0.00     0.115 A 
HETATM    2  N2  UNL     1      26.906   2.744  50.869  1.00  0.00    -0.228 NA
HETATM    3  C7  UNL     1      26.506   3.835  50.022  1.00  0.00     0.228 A 
HETATM    4  N3  UNL     1      25.273   4.038  49.872  1.00  0.00    -0.282 NA
HETATM    5  C8  UNL     1      24.139   3.373  50.394  1.00  0.00     0.166 A 
HETATM    6  C9  UNL     1      24.494   2.224  51.282  1.00  0.00     0.097 A 
ENDROOT
BRANCH   6   7
HETATM    7  C10 UNL     1      23.805   2.295  52.604  1.00  0.00    -0.017 C 
HETATM    8  C11 UNL     1      22.960   1.380  53.057  1.00  0.00    -0.029 C 
BRANCH   8   9
HETATM    9  C12 UNL     1      22.445   0.120  52.515  1.00  0.00     0.031 C 
BRANCH   9  10
HETATM   10  C13 UNL     1      20.997   0.319  52.110  1.00  0.00     0.042 C 
BRANCH  10  11
HETATM   11  C14 UNL     1      20.917   1.125  50.840  1.00  0.00    -0.058 A 
HETATM   12  C15 UNL     1      20.244   2.328  50.850  1.00  0.00     0.007 A 
HETATM   13  C16 UNL     1      20.188   3.046  49.672  1.00  0.00     0.001 A 
HETATM   14  C17 UNL     1      20.766   2.621  48.499  1.00  0.00     0.000 A 
HETATM   15  C18 UNL     1      21.439   1.396  48.532  1.00  0.00     0.001 A 
HETATM   16  C19 UNL     1      21.528   0.630  49.690  1.00  0.00     0.007 A 
ENDBRANCH  10  11
ENDBRANCH   9  10
ENDBRANCH   8   9
ENDBRANCH   6   7
BRANCH   1  17
HETATM   17  N1  UNL     1      26.573   1.072  52.168  1.00  0.00    -0.334 N 
HETATM   18  C1  UNL     1      27.229   1.366  53.433  1.00  0.00     0.276 C 
HETATM   19  F1  UNL     1      27.316   2.747  53.629  1.00  0.00    -0.226 F 
HETATM   20  C2  UNL     1      26.317   0.849  54.529  1.00  0.00     0.086 C 
HETATM   21  C3  UNL     1      26.064  -0.596  54.238  1.00  0.00    -0.024 C 
HETATM   22  C4  UNL     1      26.230  -1.166  53.061  1.00  0.00    -0.011 C 
HETATM   23  C5  UNL     1      26.706  -0.357  51.885  1.00  0.00     0.154 C 
ENDBRANCH   1  17
TORSDOF 5
ENDMDL
MODEL 7
REMARK VINA RESULT:      -7.6      2.907      6.635
REMARK  5 active torsions:
REMARK  status: ('A' for Active; 'I' for Inactive)
REMARK    1  A    between atoms: N1_7  and  C6_8 
REMARK    2  A    between atoms: C9_13  and  C10_14 
REMARK    3  A    between atoms: C11_15  and  C12_16 
REMARK    4  A    between atoms: C12_16  and  C13_17 
REMARK    5  A    between atoms: C13_17  and  C14_18 
ROOT
HETATM    1  C6  UNL     1      25.721   1.446  53.620  1.00  0.00     0.115 A 
HETATM    2  N2  UNL     1      26.958   1.815  53.743  1.00  0.00    -0.228 NA
HETATM    3  C7  UNL     1      27.785   0.929  54.515  1.00  0.00     0.228 A 
HETATM    4  N3  UNL     1      27.249  -0.105  54.992  1.00  0.00    -0.282 NA
HETATM    5  C8  UNL     1      25.927  -0.599  54.920  1.00  0.00     0.166 A 
HETATM    6  C9  UNL     1      25.016   0.285  54.129  1.00  0.00     0.097 A 
ENDROOT
BRANCH   6   7
HETATM    7  C10 UNL     1      24.278  -0.463  53.070  1.00  0.00    -0.017 C 
HETATM    8  C11 UNL     1      22.994  -0.783  53.137  1.00  0.00    -0.029 C 
BRANCH   8   9
HETATM    9  C12 UNL     1      21.945  -0.557  54.135  1.00  0.00     0.031 C 
BRANCH   9  10
HETATM   10  C13 UNL     1      21.167   0.688  53.751  1.00  0.00     0.042 C 
BRANCH  10  11
HETATM   11  C14 UNL     1      19.965   0.317  52.923  1.00  0.00    -0.058 A 
HETATM   12  C15 UNL     1      19.157  -0.719  53.342  1.00  0.00     0.007 A 
HETATM   13  C16 UNL     1      18.061  -1.038  52.563  1.00  0.00     0.001 A 
HETATM   14  C17 UNL     1      17.742  -0.376  51.400  1.00  0.00     0.000 A 
HETATM   15  C18 UNL     1      18.588   0.667  51.012  1.00  0.00     0.001 A 
HETATM   16  C19 UNL     1      19.705   1.032  51.756  1.00  0.00     0.007 A 
ENDBRANCH  10  11
ENDBRANCH   9  10
ENDBRANCH   8   9
ENDBRANCH   6   7
BRANCH   1  17
HETATM   17  N1  UNL     1      25.128   2.464  52.834  1.00  0.00    -0.334 N 
HETATM   18  C1  UNL     1      25.348   2.571  51.400  1.00  0.00     0.276 C 
HETATM   19  F1  UNL     1      26.362   1.698  50.996  1.00  0.00    -0.226 F 
HETATM   20  C2  UNL     1      24.082   2.076  50.726  1.00  0.00     0.086 C 
HETATM   21  C3  UNL     1      22.952   2.882  51.281  1.00  0.00    -0.024 C 
HETATM   22  C4  UNL     1      22.991   3.552  52.415  1.00  0.00    -0.011 C 
HETATM   23  C5  UNL     1      24.237   3.544  53.259  1.00  0.00     0.154 C 
ENDBRANCH   1  17
TORSDOF 5
ENDMDL
MODEL 8
REMARK VINA RESULT:      -7.6      2.657      5.802
REMARK  5 active torsions:
REMARK  status: ('A' for Active; 'I' for Inactive)
REMARK    1  A    between atoms: N1_7  and  C6_8 
REMARK    2  A    between atoms: C9_13  and  C10_14 
REMARK    3  A    between atoms: C11_15  and  C12_16 
REMARK    4  A    between atoms: C12_16  and  C13_17 
REMARK    5  A    between atoms: C13_17  and  C14_18 
ROOT
HETATM    1  C6  UNL     1      21.779   1.886  51.137  1.00  0.00     0.115 A 
HETATM    2  N2  UNL     1      20.533   2.042  50.813  1.00  0.00    -0.228 NA
HETATM    3  C7  UNL     1      19.633   1.064  51.361  1.00  0.00     0.228 A 
HETATM    4  N3  UNL     1      20.121   0.164  52.092  1.00  0.00    -0.282 NA
HETATM    5  C8  UNL     1      21.447  -0.097  52.506  1.00  0.00     0.166 A 
HETATM    6  C9  UNL     1      22.432   0.889  51.963  1.00  0.00     0.097 A 
ENDROOT
BRANCH   6   7
HETATM    7  C10 UNL     1      23.288   1.482  53.032  1.00  0.00    -0.017 C 
HETATM    8  C11 UNL     1      24.610   1.406  53.059  1.00  0.00    -0.029 C 
BRANCH   8   9
HETATM    9  C12 UNL     1      25.608   0.797  52.177  1.00  0.00     0.031 C 
BRANCH   9  10
HETATM   10  C13 UNL     1      25.907  -0.606  52.672  1.00  0.00     0.042 C 
BRANCH  10  11
HETATM   11  C14 UNL     1      27.366  -0.737  53.018  1.00  0.00    -0.058 A 
HETATM   12  C15 UNL     1      27.960  -1.980  52.964  1.00  0.00     0.007 A 
HETATM   13  C16 UNL     1      29.300  -2.070  53.286  1.00  0.00     0.001 A 
HETATM   14  C17 UNL     1      30.064  -0.988  53.654  1.00  0.00     0.000 A 
HETATM   15  C18 UNL     1      29.424   0.255  53.695  1.00  0.00     0.001 A 
HETATM   16  C19 UNL     1      28.077   0.406  53.382  1.00  0.00     0.007 A 
ENDBRANCH  10  11
ENDBRANCH   9  10
ENDBRANCH   8   9
ENDBRANCH   6   7
BRANCH   1  17
HETATM   17  N1  UNL     1      22.447   2.951  50.486  1.00  0.00    -0.334 N 
HETATM   18  C1  UNL     1      22.392   4.320  50.973  1.00  0.00     0.276 C 
HETATM   19  F1  UNL     1      21.442   4.439  51.990  1.00  0.00    -0.226 F 
HETATM   20  C2  UNL     1      23.732   4.606  51.624  1.00  0.00     0.086 C 
HETATM   21  C3  UNL     1      24.783   4.313  50.600  1.00  0.00    -0.024 C 
HETATM   22  C4  UNL     1      24.606   3.555  49.537  1.00  0.00    -0.011 C 
HETATM   23  C5  UNL     1      23.271   2.909  49.278  1.00  0.00     0.154 C 
ENDBRANCH   1  17
TORSDOF 5
ENDMDL
MODEL 9
REMARK VINA RESULT:      -7.6      3.329      6.517
REMARK  5 active torsions:
REMARK  status: ('A' for Active; 'I' for Inactive)
REMARK    1  A    between atoms: N1_7  and  C6_8 
REMARK    2  A    between atoms: C9_13  and  C10_14 
REMARK    3  A    between atoms: C11_15  and  C12_16 
REMARK    4  A    between atoms: C12_16  and  C13_17 
REMARK    5  A    between atoms: C13_17  and  C14_18 
ROOT
HETATM    1  C6  UNL     1      21.766   3.953  51.428  1.00  0.00     0.115 A 
HETATM    2  N2  UNL     1      20.963   4.865  50.975  1.00  0.00    -0.228 NA
HETATM    3  C7  UNL     1      21.545   6.171  50.826  1.00  0.00     0.228 A 
HETATM    4  N3  UNL     1      22.755   6.312  51.140  1.00  0.00    -0.282 NA
HETATM    5  C8  UNL     1      23.712   5.397  51.637  1.00  0.00     0.166 A 
HETATM    6  C9  UNL     1      23.162   4.018  51.816  1.00  0.00     0.097 A 
ENDROOT
BRANCH   6   7
HETATM    7  C10 UNL     1      24.004   2.981  51.152  1.00  0.00    -0.017 C 
HETATM    8  C11 UNL     1      24.512   1.923  51.767  1.00  0.00    -0.029 C 
BRANCH   8   9
HETATM    9  C12 UNL     1      24.453   1.427  53.143  1.00  0.00     0.031 C 
BRANCH   9  10
HETATM   10  C13 UNL     1      24.814  -0.047  53.146  1.00  0.00     0.042 C 
BRANCH  10  11
HETATM   11  C14 UNL     1      26.273  -0.225  53.472  1.00  0.00    -0.058 A 
HETATM   12  C15 UNL     1      27.018  -1.127  52.743  1.00  0.00     0.007 A 
HETATM   13  C16 UNL     1      28.354  -1.270  53.064  1.00  0.00     0.001 A 
HETATM   14  C17 UNL     1      28.971  -0.561  54.068  1.00  0.00     0.000 A 
HETATM   15  C18 UNL     1      28.179   0.343  54.783  1.00  0.00     0.001 A 
HETATM   16  C19 UNL     1      26.829   0.528  54.505  1.00  0.00     0.007 A 
ENDBRANCH  10  11
ENDBRANCH   9  10
ENDBRANCH   8   9
ENDBRANCH   6   7
BRANCH   1  17
HETATM   17  N1  UNL     1      20.972   2.782  51.484  1.00  0.00    -0.334 N 
HETATM   18  C1  UNL     1      20.573   2.053  50.290  1.00  0.00     0.276 C 
HETATM   19  F1  UNL     1      20.889   2.785  49.142  1.00  0.00    -0.226 F 
HETATM   20  C2  UNL     1      21.432   0.804  50.234  1.00  0.00     0.086 C 
HETATM   21  C3  UNL     1      21.246   0.091  51.535  1.00  0.00    -0.024 C 
HETATM   22  C4  UNL     1      20.794   0.648  52.641  1.00  0.00    -0.011 C 
HETATM   23  C5  UNL     1      20.422   2.106  52.659  1.00  0.00     0.154 C 
ENDBRANCH   1  17
TORSDOF 5
ENDMDL
