MODEL 1
REMARK VINA RESULT:      -7.0      0.000      0.000
REMARK  9 active torsions:
REMARK  status: ('A' for Active; 'I' for Inactive)
REMARK    1  A    between atoms: O1_2  and  C2_3 
REMARK    2  A    between atoms: C2_3  and  C13_19 
REMARK    3  A    between atoms: C3_4  and  C4_5 
REMARK    4  A    between atoms: C4_5  and  N1_6 
REMARK    5  A    between atoms: C4_5  and  O2_14 
REMARK    6  A    between atoms: N1_6  and  C5_7 
REMARK    7  A    between atoms: O2_14  and  C11_15 
REMARK    8  A    between atoms: C13_19  and  C14_20 
REMARK    9  A    between atoms: C14_20  and  N4_21 
ROOT
HETATM    1  C4  UNL     1      24.214  -0.069  53.318  1.00  0.00     0.257 C 
ENDROOT
BRANCH   1   2
HETATM    2  C3  UNL     1      25.449  -0.151  54.129  1.00  0.00     0.058 C 
HETATM    3  C2  UNL     1      26.723  -0.465  53.981  1.00  0.00     0.048 C 
BRANCH   3   4
HETATM    4  O1  UNL     1      27.864  -0.525  54.798  1.00  0.00    -0.360 OA
HETATM    5  C1  UNL     1      28.936   0.346  54.450  1.00  0.00     0.209 C 
ENDBRANCH   3   4
BRANCH   3   6
HETATM    6  C13 UNL     1      27.306  -0.898  52.681  1.00  0.00     0.094 C 
BRANCH   6   7
HETATM    7  C14 UNL     1      27.232  -2.399  52.488  1.00  0.00     0.273 C 
BRANCH   7   8
HETATM    8  N4  UNL     1      28.352  -3.094  53.110  1.00  0.00     0.078 N 
HETATM    9  H18 UNL     1      28.053  -3.719  53.893  1.00  0.00     0.312 HD
HETATM   10  H19 UNL     1      28.860  -3.702  52.416  1.00  0.00     0.312 HD
ENDBRANCH   7   8
ENDBRANCH   6   7
ENDBRANCH   3   6
ENDBRANCH   1   2
BRANCH   1  11
HETATM   11  N1  UNL     1      23.903   1.326  53.120  1.00  0.00    -0.360 N 
HETATM   12  H6  UNL     1      23.629   1.928  53.922  1.00  0.00     0.162 HD
BRANCH  11  13
HETATM   13  C5  UNL     1      23.958   1.928  51.836  1.00  0.00     0.031 A 
HETATM   14  C6  UNL     1      22.873   1.905  50.969  1.00  0.00     0.029 A 
HETATM   15  C7  UNL     1      22.849   2.464  49.710  1.00  0.00     0.004 A 
HETATM   16  C8  UNL     1      23.988   3.103  49.258  1.00  0.00     0.019 A 
HETATM   17  C9  UNL     1      25.085   3.154  50.071  1.00  0.00     0.013 A 
HETATM   18 BR1  UNL     1      26.670   4.045  49.438  1.00  0.00    -0.051 Br
HETATM   19  C10 UNL     1      25.056   2.576  51.327  1.00  0.00     0.048 A 
ENDBRANCH  11  13
ENDBRANCH   1  11
BRANCH   1  20
HETATM   20  O2  UNL     1      23.207  -0.736  54.054  1.00  0.00    -0.291 OA
BRANCH  20  21
HETATM   21  C11 UNL     1      21.858  -0.458  53.960  1.00  0.00     0.242 A 
HETATM   22  N2  UNL     1      21.179  -0.415  52.886  1.00  0.00    -0.231 NA
HETATM   23  C12 UNL     1      19.977  -0.092  53.612  1.00  0.00     0.278 A 
HETATM   24  N3  UNL     1      20.776  -0.150  54.813  1.00  0.00    -0.337 N 
HETATM   25  H13 UNL     1      20.719  -0.041  55.852  1.00  0.00     0.164 HD
ENDBRANCH  20  21
ENDBRANCH   1  20
TORSDOF 9
ENDMDL
MODEL 2
REMARK VINA RESULT:      -6.6      2.782      5.448
REMARK  9 active torsions:
REMARK  status: ('A' for Active; 'I' for Inactive)
REMARK    1  A    between atoms: O1_2  and  C2_3 
REMARK    2  A    between atoms: C2_3  and  C13_19 
REMARK    3  A    between atoms: C3_4  and  C4_5 
REMARK    4  A    between atoms: C4_5  and  N1_6 
REMARK    5  A    between atoms: C4_5  and  O2_14 
REMARK    6  A    between atoms: N1_6  and  C5_7 
REMARK    7  A    between atoms: O2_14  and  C11_15 
REMARK    8  A    between atoms: C13_19  and  C14_20 
REMARK    9  A    between atoms: C14_20  and  N4_21 
ROOT
HETATM    1  C4  UNL     1      25.415  -0.344  53.070  1.00  0.00     0.257 C 
ENDROOT
BRANCH   1   2
HETATM    2  C3  UNL     1      26.012   0.641  52.140  1.00  0.00     0.058 C 
HETATM    3  C2  UNL     1      26.731   1.747  52.184  1.00  0.00     0.048 C 
BRANCH   3   4
HETATM    4  O1  UNL     1      27.277   2.651  51.257  1.00  0.00    -0.360 OA
HETATM    5  C1  UNL     1      26.356   3.280  50.371  1.00  0.00     0.209 C 
ENDBRANCH   3   4
BRANCH   3   6
HETATM    6  C13 UNL     1      27.191   2.367  53.458  1.00  0.00     0.094 C 
BRANCH   6   7
HETATM    7  C14 UNL     1      28.701   2.375  53.581  1.00  0.00     0.273 C 
BRANCH   7   8
HETATM    8  N4  UNL     1      29.160   1.761  54.822  1.00  0.00     0.078 N 
HETATM    9  H18 UNL     1      28.385   1.305  55.356  1.00  0.00     0.312 HD
HETATM   10  H19 UNL     1      29.879   1.015  54.638  1.00  0.00     0.312 HD
ENDBRANCH   7   8
ENDBRANCH   6   7
ENDBRANCH   3   6
ENDBRANCH   1   2
BRANCH   1  11
HETATM   11  N1  UNL     1      24.347   0.311  53.786  1.00  0.00    -0.360 N 
HETATM   12  H6  UNL     1      24.545   1.117  54.412  1.00  0.00     0.162 HD
BRANCH  11  13
HETATM   13  C5  UNL     1      22.998  -0.113  53.666  1.00  0.00     0.031 A 
HETATM   14  C6  UNL     1      22.448  -1.056  54.525  1.00  0.00     0.029 A 
HETATM   15  C7  UNL     1      21.151  -1.518  54.473  1.00  0.00     0.004 A 
HETATM   16  C8  UNL     1      20.318  -1.013  53.493  1.00  0.00     0.019 A 
HETATM   17  C9  UNL     1      20.808  -0.082  52.621  1.00  0.00     0.013 A 
HETATM   18 BR1  UNL     1      19.645   0.620  51.258  1.00  0.00    -0.051 Br
HETATM   19  C10 UNL     1      22.120   0.348  52.718  1.00  0.00     0.048 A 
ENDBRANCH  11  13
ENDBRANCH   1  11
BRANCH   1  20
HETATM   20  O2  UNL     1      26.454  -0.760  53.934  1.00  0.00    -0.291 OA
BRANCH  20  21
HETATM   21  C11 UNL     1      27.525  -1.541  53.548  1.00  0.00     0.242 A 
HETATM   22  N2  UNL     1      28.752  -1.262  53.723  1.00  0.00    -0.231 NA
HETATM   23  C12 UNL     1      29.163  -2.488  53.088  1.00  0.00     0.278 A 
HETATM   24  N3  UNL     1      27.761  -2.776  52.905  1.00  0.00    -0.337 N 
HETATM   25  H13 UNL     1      27.105  -3.491  52.515  1.00  0.00     0.164 HD
ENDBRANCH  20  21
ENDBRANCH   1  20
TORSDOF 9
ENDMDL
MODEL 3
REMARK VINA RESULT:      -6.6      3.299      5.136
REMARK  9 active torsions:
REMARK  status: ('A' for Active; 'I' for Inactive)
REMARK    1  A    between atoms: O1_2  and  C2_3 
REMARK    2  A    between atoms: C2_3  and  C13_19 
REMARK    3  A    between atoms: C3_4  and  C4_5 
REMARK    4  A    between atoms: C4_5  and  N1_6 
REMARK    5  A    between atoms: C4_5  and  O2_14 
REMARK    6  A    between atoms: N1_6  and  C5_7 
REMARK    7  A    between atoms: O2_14  and  C11_15 
REMARK    8  A    between atoms: C13_19  and  C14_20 
REMARK    9  A    between atoms: C14_20  and  N4_21 
ROOT
HETATM    1  C4  UNL     1      26.646   2.201  52.030  1.00  0.00     0.257 C 
ENDROOT
BRANCH   1   2
HETATM    2  C3  UNL     1      26.809   0.747  52.255  1.00  0.00     0.058 C 
HETATM    3  C2  UNL     1      27.271  -0.075  53.179  1.00  0.00     0.048 C 
BRANCH   3   4
HETATM    4  O1  UNL     1      27.401  -1.465  53.340  1.00  0.00    -0.360 OA
HETATM    5  C1  UNL     1      26.887  -2.274  52.287  1.00  0.00     0.209 C 
ENDBRANCH   3   4
BRANCH   3   6
HETATM    6  C13 UNL     1      27.851   0.395  54.468  1.00  0.00     0.094 C 
BRANCH   6   7
HETATM    7  C14 UNL     1      29.295   0.831  54.323  1.00  0.00     0.273 C 
BRANCH   7   8
HETATM    8  N4  UNL     1      29.450   2.278  54.412  1.00  0.00     0.078 N 
HETATM    9  H18 UNL     1      28.534   2.782  54.400  1.00  0.00     0.312 HD
HETATM   10  H19 UNL     1      29.937   2.558  55.302  1.00  0.00     0.312 HD
ENDBRANCH   7   8
ENDBRANCH   6   7
ENDBRANCH   3   6
ENDBRANCH   1   2
BRANCH   1  11
HETATM   11  N1  UNL     1      25.373   2.597  52.584  1.00  0.00    -0.360 N 
HETATM   12  H6  UNL     1      25.296   3.440  53.186  1.00  0.00     0.162 HD
BRANCH  11  13
HETATM   13  C5  UNL     1      24.188   1.858  52.331  1.00  0.00     0.031 A 
HETATM   14  C6  UNL     1      23.482   1.991  51.143  1.00  0.00     0.029 A 
HETATM   15  C7  UNL     1      22.326   1.311  50.825  1.00  0.00     0.004 A 
HETATM   16  C8  UNL     1      21.817   0.421  51.752  1.00  0.00     0.019 A 
HETATM   17  C9  UNL     1      22.473   0.253  52.938  1.00  0.00     0.013 A 
HETATM   18 BR1  UNL     1      21.761  -0.987  54.227  1.00  0.00    -0.051 Br
HETATM   19  C10 UNL     1      23.630   0.961  53.207  1.00  0.00     0.048 A 
ENDBRANCH  11  13
ENDBRANCH   1  11
BRANCH   1  20
HETATM   20  O2  UNL     1      26.698   2.397  50.630  1.00  0.00    -0.291 OA
BRANCH  20  21
HETATM   21  C11 UNL     1      26.642   3.630  50.012  1.00  0.00     0.242 A 
HETATM   22  N2  UNL     1      27.297   3.976  48.980  1.00  0.00    -0.231 NA
HETATM   23  C12 UNL     1      26.708   5.291  48.997  1.00  0.00     0.278 A 
HETATM   24  N3  UNL     1      25.978   4.866  50.168  1.00  0.00    -0.337 N 
HETATM   25  H13 UNL     1      25.280   5.195  50.874  1.00  0.00     0.164 HD
ENDBRANCH  20  21
ENDBRANCH   1  20
TORSDOF 9
ENDMDL
MODEL 4
REMARK VINA RESULT:      -6.5      3.076      5.009
REMARK  9 active torsions:
REMARK  status: ('A' for Active; 'I' for Inactive)
REMARK    1  A    between atoms: O1_2  and  C2_3 
REMARK    2  A    between atoms: C2_3  and  C13_19 
REMARK    3  A    between atoms: C3_4  and  C4_5 
REMARK    4  A    between atoms: C4_5  and  N1_6 
REMARK    5  A    between atoms: C4_5  and  O2_14 
REMARK    6  A    between atoms: N1_6  and  C5_7 
REMARK    7  A    between atoms: O2_14  and  C11_15 
REMARK    8  A    between atoms: C13_19  and  C14_20 
REMARK    9  A    between atoms: C14_20  and  N4_21 
ROOT
HETATM    1  C4  UNL     1      25.380   0.877  53.459  1.00  0.00     0.257 C 
ENDROOT
BRANCH   1   2
HETATM    2  C3  UNL     1      26.359  -0.226  53.336  1.00  0.00     0.058 C 
HETATM    3  C2  UNL     1      27.542  -0.569  53.811  1.00  0.00     0.048 C 
BRANCH   3   4
HETATM    4  O1  UNL     1      28.435  -1.643  53.657  1.00  0.00    -0.360 OA
HETATM    5  C1  UNL     1      28.034  -2.674  52.759  1.00  0.00     0.209 C 
ENDBRANCH   3   4
BRANCH   3   6
HETATM    6  C13 UNL     1      28.302   0.268  54.781  1.00  0.00     0.094 C 
BRANCH   6   7
HETATM    7  C14 UNL     1      29.393   1.077  54.111  1.00  0.00     0.273 C 
BRANCH   7   8
HETATM    8  N4  UNL     1      29.036   2.484  53.973  1.00  0.00     0.078 N 
HETATM    9  H18 UNL     1      29.612   3.107  54.584  1.00  0.00     0.312 HD
HETATM   10  H19 UNL     1      29.172   2.820  52.985  1.00  0.00     0.312 HD
ENDBRANCH   7   8
ENDBRANCH   6   7
ENDBRANCH   3   6
ENDBRANCH   1   2
BRANCH   1  11
HETATM   11  N1  UNL     1      24.303   0.621  52.533  1.00  0.00    -0.360 N 
HETATM   12  H6  UNL     1      24.431   0.782  51.514  1.00  0.00     0.162 HD
BRANCH  11  13
HETATM   13  C5  UNL     1      23.040   0.146  52.970  1.00  0.00     0.031 A 
HETATM   14  C6  UNL     1      22.897  -0.579  54.146  1.00  0.00     0.029 A 
HETATM   15  C7  UNL     1      21.708  -1.074  54.636  1.00  0.00     0.004 A 
HETATM   16  C8  UNL     1      20.556  -0.837  53.912  1.00  0.00     0.019 A 
HETATM   17  C9  UNL     1      20.639  -0.129  52.747  1.00  0.00     0.013 A 
HETATM   18 BR1  UNL     1      19.031   0.199  51.740  1.00  0.00    -0.051 Br
HETATM   19  C10 UNL     1      21.860   0.345  52.300  1.00  0.00     0.048 A 
ENDBRANCH  11  13
ENDBRANCH   1  11
BRANCH   1  20
HETATM   20  O2  UNL     1      26.077   2.067  53.144  1.00  0.00    -0.291 OA
BRANCH  20  21
HETATM   21  C11 UNL     1      26.109   2.644  51.890  1.00  0.00     0.242 A 
HETATM   22  N2  UNL     1      26.848   2.281  50.922  1.00  0.00    -0.231 NA
HETATM   23  C12 UNL     1      26.307   3.310  50.071  1.00  0.00     0.278 A 
HETATM   24  N3  UNL     1      25.481   3.696  51.190  1.00  0.00    -0.337 N 
HETATM   25  H13 UNL     1      24.747   4.383  51.481  1.00  0.00     0.164 HD
ENDBRANCH  20  21
ENDBRANCH   1  20
TORSDOF 9
ENDMDL
MODEL 5
REMARK VINA RESULT:      -6.4      2.961      6.024
REMARK  9 active torsions:
REMARK  status: ('A' for Active; 'I' for Inactive)
REMARK    1  A    between atoms: O1_2  and  C2_3 
REMARK    2  A    between atoms: C2_3  and  C13_19 
REMARK    3  A    between atoms: C3_4  and  C4_5 
REMARK    4  A    between atoms: C4_5  and  N1_6 
REMARK    5  A    between atoms: C4_5  and  O2_14 
REMARK    6  A    between atoms: N1_6  and  C5_7 
REMARK    7  A    between atoms: O2_14  and  C11_15 
REMARK    8  A    between atoms: C13_19  and  C14_20 
REMARK    9  A    between atoms: C14_20  and  N4_21 
ROOT
HETATM    1  C4  UNL     1      25.596   0.501  52.028  1.00  0.00     0.257 C 
ENDROOT
BRANCH   1   2
HETATM    2  C3  UNL     1      26.019   1.806  51.473  1.00  0.00     0.058 C 
HETATM    3  C2  UNL     1      25.480   2.889  50.945  1.00  0.00     0.048 C 
BRANCH   3   4
HETATM    4  O1  UNL     1      25.938   4.114  50.429  1.00  0.00    -0.360 OA
HETATM    5  C1  UNL     1      26.848   4.037  49.336  1.00  0.00     0.209 C 
ENDBRANCH   3   4
BRANCH   3   6
HETATM    6  C13 UNL     1      24.012   3.057  50.758  1.00  0.00     0.094 C 
BRANCH   6   7
HETATM    7  C14 UNL     1      23.446   4.168  51.619  1.00  0.00     0.273 C 
BRANCH   7   8
HETATM    8  N4  UNL     1      24.087   4.236  52.928  1.00  0.00     0.078 N 
HETATM    9  H18 UNL     1      24.184   3.298  53.377  1.00  0.00     0.312 HD
HETATM   10  H19 UNL     1      25.056   4.640  52.860  1.00  0.00     0.312 HD
ENDBRANCH   7   8
ENDBRANCH   6   7
ENDBRANCH   3   6
ENDBRANCH   1   2
BRANCH   1  11
HETATM   11  N1  UNL     1      24.873   0.752  53.252  1.00  0.00    -0.360 N 
HETATM   12  H6  UNL     1      25.260   1.390  53.975  1.00  0.00     0.162 HD
BRANCH  11  13
HETATM   13  C5  UNL     1      23.618   0.143  53.516  1.00  0.00     0.031 A 
HETATM   14  C6  UNL     1      23.467  -0.828  54.496  1.00  0.00     0.029 A 
HETATM   15  C7  UNL     1      22.285  -1.465  54.810  1.00  0.00     0.004 A 
HETATM   16  C8  UNL     1      21.151  -1.119  54.101  1.00  0.00     0.019 A 
HETATM   17  C9  UNL     1      21.244  -0.168  53.125  1.00  0.00     0.013 A 
HETATM   18 BR1  UNL     1      19.661   0.312  52.140  1.00  0.00    -0.051 Br
HETATM   19  C10 UNL     1      22.456   0.440  52.850  1.00  0.00     0.048 A 
ENDBRANCH  11  13
ENDBRANCH   1  11
BRANCH   1  20
HETATM   20  O2  UNL     1      26.779  -0.240  52.256  1.00  0.00    -0.291 OA
BRANCH  20  21
HETATM   21  C11 UNL     1      27.640  -0.030  53.314  1.00  0.00     0.242 A 
HETATM   22  N2  UNL     1      27.417  -0.336  54.528  1.00  0.00    -0.231 NA
HETATM   23  C12 UNL     1      28.701   0.175  54.934  1.00  0.00     0.278 A 
HETATM   24  N3  UNL     1      28.924   0.509  53.548  1.00  0.00    -0.337 N 
HETATM   25  H13 UNL     1      29.626   0.934  52.900  1.00  0.00     0.164 HD
ENDBRANCH  20  21
ENDBRANCH   1  20
TORSDOF 9
ENDMDL
MODEL 6
REMARK VINA RESULT:      -6.4      1.824      1.994
REMARK  9 active torsions:
REMARK  status: ('A' for Active; 'I' for Inactive)
REMARK    1  A    between atoms: O1_2  and  C2_3 
REMARK    2  A    between atoms: C2_3  and  C13_19 
REMARK    3  A    between atoms: C3_4  and  C4_5 
REMARK    4  A    between atoms: C4_5  and  N1_6 
REMARK    5  A    between atoms: C4_5  and  O2_14 
REMARK    6  A    between atoms: N1_6  and  C5_7 
REMARK    7  A    between atoms: O2_14  and  C11_15 
REMARK    8  A    between atoms: C13_19  and  C14_20 
REMARK    9  A    between atoms: C14_20  and  N4_21 
ROOT
HETATM    1  C4  UNL     1      24.217  -0.013  53.123  1.00  0.00     0.257 C 
ENDROOT
BRANCH   1   2
HETATM    2  C3  UNL     1      25.424  -0.214  53.957  1.00  0.00     0.058 C 
HETATM    3  C2  UNL     1      26.730  -0.033  53.884  1.00  0.00     0.048 C 
BRANCH   3   4
HETATM    4  O1  UNL     1      27.841  -0.245  54.717  1.00  0.00    -0.360 OA
HETATM    5  C1  UNL     1      29.045  -0.650  54.073  1.00  0.00     0.209 C 
ENDBRANCH   3   4
BRANCH   3   6
HETATM    6  C13 UNL     1      27.405   0.537  52.685  1.00  0.00     0.094 C 
BRANCH   6   7
HETATM    7  C14 UNL     1      27.310   2.049  52.636  1.00  0.00     0.273 C 
BRANCH   7   8
HETATM    8  N4  UNL     1      27.621   2.666  53.920  1.00  0.00     0.078 N 
HETATM    9  H18 UNL     1      27.364   3.678  53.953  1.00  0.00     0.312 HD
HETATM   10  H19 UNL     1      27.103   2.197  54.707  1.00  0.00     0.312 HD
ENDBRANCH   7   8
ENDBRANCH   6   7
ENDBRANCH   3   6
ENDBRANCH   1   2
BRANCH   1  11
HETATM   11  N1  UNL     1      23.796   1.359  53.276  1.00  0.00    -0.360 N 
HETATM   12  H6  UNL     1      23.576   1.746  54.215  1.00  0.00     0.162 HD
BRANCH  11  13
HETATM   13  C5  UNL     1      23.665   2.227  52.160  1.00  0.00     0.031 A 
HETATM   14  C6  UNL     1      23.322   1.754  50.901  1.00  0.00     0.029 A 
HETATM   15  C7  UNL     1      23.176   2.531  49.772  1.00  0.00     0.004 A 
HETATM   16  C8  UNL     1      23.384   3.892  49.886  1.00  0.00     0.019 A 
HETATM   17  C9  UNL     1      23.725   4.411  51.103  1.00  0.00     0.013 A 
HETATM   18 BR1  UNL     1      24.014   6.308  51.259  1.00  0.00    -0.051 Br
HETATM   19  C10 UNL     1      23.858   3.585  52.205  1.00  0.00     0.048 A 
ENDBRANCH  11  13
ENDBRANCH   1  11
BRANCH   1  20
HETATM   20  O2  UNL     1      23.244  -0.921  53.603  1.00  0.00    -0.291 OA
BRANCH  20  21
HETATM   21  C11 UNL     1      21.901  -0.629  53.733  1.00  0.00     0.242 A 
HETATM   22  N2  UNL     1      21.110  -0.325  52.786  1.00  0.00    -0.231 NA
HETATM   23  C12 UNL     1      20.004  -0.190  53.699  1.00  0.00     0.278 A 
HETATM   24  N3  UNL     1      20.928  -0.539  54.752  1.00  0.00    -0.337 N 
HETATM   25  H13 UNL     1      20.989  -0.688  55.785  1.00  0.00     0.164 HD
ENDBRANCH  20  21
ENDBRANCH   1  20
TORSDOF 9
ENDMDL
MODEL 7
REMARK VINA RESULT:      -6.3      3.090      4.920
REMARK  9 active torsions:
REMARK  status: ('A' for Active; 'I' for Inactive)
REMARK    1  A    between atoms: O1_2  and  C2_3 
REMARK    2  A    between atoms: C2_3  and  C13_19 
REMARK    3  A    between atoms: C3_4  and  C4_5 
REMARK    4  A    between atoms: C4_5  and  N1_6 
REMARK    5  A    between atoms: C4_5  and  O2_14 
REMARK    6  A    between atoms: N1_6  and  C5_7 
REMARK    7  A    between atoms: O2_14  and  C11_15 
REMARK    8  A    between atoms: C13_19  and  C14_20 
REMARK    9  A    between atoms: C14_20  and  N4_21 
ROOT
HETATM    1  C4  UNL     1      25.493   2.351  52.127  1.00  0.00     0.257 C 
ENDROOT
BRANCH   1   2
HETATM    2  C3  UNL     1      26.115   1.606  53.245  1.00  0.00     0.058 C 
HETATM    3  C2  UNL     1      26.790   0.490  53.449  1.00  0.00     0.048 C 
BRANCH   3   4
HETATM    4  O1  UNL     1      27.363  -0.175  54.547  1.00  0.00    -0.360 OA
HETATM    5  C1  UNL     1      28.697   0.193  54.881  1.00  0.00     0.209 C 
ENDBRANCH   3   4
BRANCH   3   6
HETATM    6  C13 UNL     1      27.142  -0.457  52.355  1.00  0.00     0.094 C 
BRANCH   6   7
HETATM    7  C14 UNL     1      26.636  -1.860  52.623  1.00  0.00     0.273 C 
BRANCH   7   8
HETATM    8  N4  UNL     1      27.715  -2.789  52.938  1.00  0.00     0.078 N 
HETATM    9  H18 UNL     1      27.579  -3.727  52.496  1.00  0.00     0.312 HD
HETATM   10  H19 UNL     1      28.643  -2.428  52.599  1.00  0.00     0.312 HD
ENDBRANCH   7   8
ENDBRANCH   6   7
ENDBRANCH   3   6
ENDBRANCH   1   2
BRANCH   1  11
HETATM   11  N1  UNL     1      24.495   1.498  51.527  1.00  0.00    -0.360 N 
HETATM   12  H6  UNL     1      24.687   1.005  50.632  1.00  0.00     0.162 HD
BRANCH  11  13
HETATM   13  C5  UNL     1      23.223   1.301  52.126  1.00  0.00     0.031 A 
HETATM   14  C6  UNL     1      22.220   2.257  52.045  1.00  0.00     0.029 A 
HETATM   15  C7  UNL     1      20.963   2.140  52.599  1.00  0.00     0.004 A 
HETATM   16  C8  UNL     1      20.663   0.985  53.295  1.00  0.00     0.019 A 
HETATM   17  C9  UNL     1      21.615   0.012  53.405  1.00  0.00     0.013 A 
HETATM   18 BR1  UNL     1      21.193  -1.597  54.375  1.00  0.00    -0.051 Br
HETATM   19  C10 UNL     1      22.861   0.180  52.829  1.00  0.00     0.048 A 
ENDBRANCH  11  13
ENDBRANCH   1  11
BRANCH   1  20
HETATM   20  O2  UNL     1      26.536   2.661  51.224  1.00  0.00    -0.291 OA
BRANCH  20  21
HETATM   21  C11 UNL     1      26.480   3.669  50.283  1.00  0.00     0.242 A 
HETATM   22  N2  UNL     1      25.435   4.069  49.681  1.00  0.00    -0.231 NA
HETATM   23  C12 UNL     1      26.187   5.053  48.945  1.00  0.00     0.278 A 
HETATM   24  N3  UNL     1      27.355   4.577  49.647  1.00  0.00    -0.337 N 
HETATM   25  H13 UNL     1      28.385   4.729  49.741  1.00  0.00     0.164 HD
ENDBRANCH  20  21
ENDBRANCH   1  20
TORSDOF 9
ENDMDL
MODEL 8
REMARK VINA RESULT:      -6.3      1.918      4.973
REMARK  9 active torsions:
REMARK  status: ('A' for Active; 'I' for Inactive)
REMARK    1  A    between atoms: O1_2  and  C2_3 
REMARK    2  A    between atoms: C2_3  and  C13_19 
REMARK    3  A    between atoms: C3_4  and  C4_5 
REMARK    4  A    between atoms: C4_5  and  N1_6 
REMARK    5  A    between atoms: C4_5  and  O2_14 
REMARK    6  A    between atoms: N1_6  and  C5_7 
REMARK    7  A    between atoms: O2_14  and  C11_15 
REMARK    8  A    between atoms: C13_19  and  C14_20 
REMARK    9  A    between atoms: C14_20  and  N4_21 
ROOT
HETATM    1  C4  UNL     1      25.204   1.147  53.465  1.00  0.00     0.257 C 
ENDROOT
BRANCH   1   2
HETATM    2  C3  UNL     1      24.227   0.039  53.367  1.00  0.00     0.058 C 
HETATM    3  C2  UNL     1      22.922  -0.137  53.269  1.00  0.00     0.048 C 
BRANCH   3   4
HETATM    4  O1  UNL     1      22.040  -1.227  53.178  1.00  0.00    -0.360 OA
HETATM    5  C1  UNL     1      21.627  -1.809  54.411  1.00  0.00     0.209 C 
ENDBRANCH   3   4
BRANCH   3   6
HETATM    6  C13 UNL     1      21.952   0.992  53.227  1.00  0.00     0.094 C 
BRANCH   6   7
HETATM    7  C14 UNL     1      20.931   0.831  52.119  1.00  0.00     0.273 C 
BRANCH   7   8
HETATM    8  N4  UNL     1      21.532   0.365  50.874  1.00  0.00     0.078 N 
HETATM    9  H18 UNL     1      21.459   1.069  50.105  1.00  0.00     0.312 HD
HETATM   10  H19 UNL     1      22.556   0.157  50.997  1.00  0.00     0.312 HD
ENDBRANCH   7   8
ENDBRANCH   6   7
ENDBRANCH   3   6
ENDBRANCH   1   2
BRANCH   1  11
HETATM   11  N1  UNL     1      25.920   1.219  52.214  1.00  0.00    -0.360 N 
HETATM   12  H6  UNL     1      26.679   0.544  51.998  1.00  0.00     0.162 HD
BRANCH  11  13
HETATM   13  C5  UNL     1      25.621   2.206  51.239  1.00  0.00     0.031 A 
HETATM   14  C6  UNL     1      24.313   2.509  50.881  1.00  0.00     0.029 A 
HETATM   15  C7  UNL     1      23.943   3.451  49.945  1.00  0.00     0.004 A 
HETATM   16  C8  UNL     1      24.940   4.160  49.304  1.00  0.00     0.019 A 
HETATM   17  C9  UNL     1      26.244   3.902  49.619  1.00  0.00     0.013 A 
HETATM   18 BR1  UNL     1      27.632   4.892  48.723  1.00  0.00    -0.051 Br
HETATM   19  C10 UNL     1      26.561   2.944  50.566  1.00  0.00     0.048 A 
ENDBRANCH  11  13
ENDBRANCH   1  11
BRANCH   1  20
HETATM   20  O2  UNL     1      26.059   0.832  54.546  1.00  0.00    -0.291 OA
BRANCH  20  21
HETATM   21  C11 UNL     1      27.385   0.470  54.414  1.00  0.00     0.242 A 
HETATM   22  N2  UNL     1      27.813  -0.640  53.967  1.00  0.00    -0.231 NA
HETATM   23  C12 UNL     1      29.182  -0.230  54.148  1.00  0.00     0.278 A 
HETATM   24  N3  UNL     1      28.663   1.020  54.649  1.00  0.00    -0.337 N 
HETATM   25  H13 UNL     1      28.961   1.949  55.028  1.00  0.00     0.164 HD
ENDBRANCH  20  21
ENDBRANCH   1  20
TORSDOF 9
ENDMDL
MODEL 9
REMARK VINA RESULT:      -6.1      3.707      6.430
REMARK  9 active torsions:
REMARK  status: ('A' for Active; 'I' for Inactive)
REMARK    1  A    between atoms: O1_2  and  C2_3 
REMARK    2  A    between atoms: C2_3  and  C13_19 
REMARK    3  A    between atoms: C3_4  and  C4_5 
REMARK    4  A    between atoms: C4_5  and  N1_6 
REMARK    5  A    between atoms: C4_5  and  O2_14 
REMARK    6  A    between atoms: N1_6  and  C5_7 
REMARK    7  A    between atoms: O2_14  and  C11_15 
REMARK    8  A    between atoms: C13_19  and  C14_20 
REMARK    9  A    between atoms: C14_20  and  N4_21 
ROOT
HETATM    1  C4  UNL     1      26.429   2.553  51.076  1.00  0.00     0.257 C 
ENDROOT
BRANCH   1   2
HETATM    2  C3  UNL     1      26.675   3.610  50.069  1.00  0.00     0.058 C 
HETATM    3  C2  UNL     1      26.102   4.708  49.613  1.00  0.00     0.048 C 
BRANCH   3   4
HETATM    4  O1  UNL     1      26.386   5.684  48.643  1.00  0.00    -0.360 OA
HETATM    5  C1  UNL     1      27.763   5.904  48.353  1.00  0.00     0.209 C 
ENDBRANCH   3   4
BRANCH   3   6
HETATM    6  C13 UNL     1      24.804   5.223  50.132  1.00  0.00     0.094 C 
BRANCH   6   7
HETATM    7  C14 UNL     1      24.905   6.657  50.611  1.00  0.00     0.273 C 
BRANCH   7   8
HETATM    8  N4  UNL     1      24.448   6.816  51.986  1.00  0.00     0.078 N 
HETATM    9  H18 UNL     1      23.528   6.350  52.161  1.00  0.00     0.312 HD
HETATM   10  H19 UNL     1      25.132   6.400  52.669  1.00  0.00     0.312 HD
ENDBRANCH   7   8
ENDBRANCH   6   7
ENDBRANCH   3   6
ENDBRANCH   1   2
BRANCH   1  11
HETATM   11  N1  UNL     1      25.228   2.899  51.799  1.00  0.00    -0.360 N 
HETATM   12  H6  UNL     1      25.155   3.806  52.302  1.00  0.00     0.162 HD
BRANCH  11  13
HETATM   13  C5  UNL     1      24.112   2.025  51.853  1.00  0.00     0.031 A 
HETATM   14  C6  UNL     1      23.176   1.968  50.828  1.00  0.00     0.029 A 
HETATM   15  C7  UNL     1      22.068   1.148  50.807  1.00  0.00     0.004 A 
HETATM   16  C8  UNL     1      21.858   0.310  51.885  1.00  0.00     0.019 A 
HETATM   17  C9  UNL     1      22.748   0.325  52.921  1.00  0.00     0.013 A 
HETATM   18 BR1  UNL     1      22.452  -0.845  54.421  1.00  0.00    -0.051 Br
HETATM   19  C10 UNL     1      23.845   1.169  52.891  1.00  0.00     0.048 A 
ENDBRANCH  11  13
ENDBRANCH   1  11
BRANCH   1  20
HETATM   20  O2  UNL     1      27.565   2.531  51.918  1.00  0.00    -0.291 OA
BRANCH  20  21
HETATM   21  C11 UNL     1      27.757   1.630  52.947  1.00  0.00     0.242 A 
HETATM   22  N2  UNL     1      27.927   1.923  54.172  1.00  0.00    -0.231 NA
HETATM   23  C12 UNL     1      28.039   0.533  54.530  1.00  0.00     0.278 A 
HETATM   24  N3  UNL     1      27.843   0.233  53.132  1.00  0.00    -0.337 N 
HETATM   25  H13 UNL     1      27.775  -0.562  52.456  1.00  0.00     0.164 HD
ENDBRANCH  20  21
ENDBRANCH   1  20
TORSDOF 9
ENDMDL
