MODEL 1
REMARK VINA RESULT:      -8.8      0.000      0.000
REMARK  6 active torsions:
REMARK  status: ('A' for Active; 'I' for Inactive)
REMARK    1  A    between atoms: C4_5  and  N2_6 
REMARK    2  A    between atoms: C6_8  and  C7_9 
REMARK    3  A    between atoms: C9_12  and  N4_13 
REMARK    4  A    between atoms: C10_14  and  C11_15 
REMARK    5  A    between atoms: N6_18  and  C13_19 
REMARK    6  A    between atoms: C13_19  and  C14_20 
ROOT
HETATM    1  C7  UNL     1      22.211  -0.467  53.498  1.00  0.00     0.088 A 
HETATM    2  C8  UNL     1      21.802  -1.073  54.663  1.00  0.00     0.151 A 
HETATM    3  N3  UNL     1      22.781  -1.442  55.525  1.00  0.00    -0.239 NA
HETATM    4  C9  UNL     1      24.068  -1.206  55.208  1.00  0.00     0.153 A 
HETATM    5  C10 UNL     1      24.508  -0.602  54.052  1.00  0.00     0.148 A 
HETATM    6  N7  UNL     1      23.504  -0.252  53.228  1.00  0.00    -0.239 NA
ENDROOT
BRANCH   1   7
HETATM    7  C6  UNL     1      21.214  -0.030  52.503  1.00  0.00     0.030 A 
HETATM    8  C5  UNL     1      21.388   0.534  51.251  1.00  0.00     0.128 A 
HETATM    9  N2  UNL     1      20.176   0.776  50.681  1.00  0.00    -0.276 N 
HETATM   10  N8  UNL     1      19.237   0.380  51.541  1.00  0.00    -0.184 NA
HETATM   11  C20 UNL     1      19.841  -0.106  52.639  1.00  0.00     0.154 A 
BRANCH   9  12
HETATM   12  C4  UNL     1      19.942   1.360  49.373  1.00  0.00     0.113 C 
HETATM   13  C3  UNL     1      19.359   2.728  49.582  1.00  0.00     0.057 C 
HETATM   14  C2  UNL     1      19.334   3.571  48.342  1.00  0.00     0.274 C 
HETATM   15  N1  UNL     1      20.419   3.363  47.449  1.00  0.00     0.084 N 
HETATM   16  C1  UNL     1      20.877   4.659  46.967  1.00  0.00     0.309 C 
HETATM   17  C22 UNL     1      21.559   2.689  47.996  1.00  0.00     0.274 C 
HETATM   18  C21 UNL     1      21.226   1.355  48.622  1.00  0.00     0.057 C 
ENDBRANCH   9  12
ENDBRANCH   1   7
BRANCH   5  19
HETATM   19  C11 UNL     1      25.893  -0.361  53.698  1.00  0.00     0.157 A 
HETATM   20  N5  UNL     1      26.821  -1.275  53.571  1.00  0.00    -0.251 NA
HETATM   21  C12 UNL     1      27.802  -0.283  53.235  1.00  0.00     0.277 A 
HETATM   22  N6  UNL     1      26.789   0.709  53.398  1.00  0.00    -0.342 N 
BRANCH  22  23
HETATM   23  C13 UNL     1      26.772   2.138  53.292  1.00  0.00     0.166 C 
BRANCH  23  24
HETATM   24  C14 UNL     1      26.134   2.546  52.002  1.00  0.00    -0.018 A 
HETATM   25  C15 UNL     1      26.810   2.540  50.802  1.00  0.00     0.010 A 
HETATM   26  C16 UNL     1      26.286   2.907  49.589  1.00  0.00     0.001 A 
HETATM   27  C17 UNL     1      24.961   3.323  49.558  1.00  0.00     0.002 A 
HETATM   28  C18 UNL     1      24.240   3.351  50.708  1.00  0.00     0.024 A 
HETATM   29  C19 UNL     1      24.834   2.965  51.901  1.00  0.00     0.042 A 
HETATM   30 CL1  UNL     1      23.810   3.031  53.316  1.00  0.00    -0.084 Cl
ENDBRANCH  23  24
ENDBRANCH  22  23
ENDBRANCH   5  19
BRANCH   4  31
HETATM   31  N4  UNL     1      25.000  -1.624  56.192  1.00  0.00    -0.382 N 
HETATM   32  H11 UNL     1      24.765  -2.622  56.385  1.00  0.00     0.157 HD
HETATM   33  H12 UNL     1      25.597  -0.781  56.378  1.00  0.00     0.157 HD
ENDBRANCH   4  31
TORSDOF 6
ENDMDL
MODEL 2
REMARK VINA RESULT:      -8.6      1.965      3.160
REMARK  6 active torsions:
REMARK  status: ('A' for Active; 'I' for Inactive)
REMARK    1  A    between atoms: C4_5  and  N2_6 
REMARK    2  A    between atoms: C6_8  and  C7_9 
REMARK    3  A    between atoms: C9_12  and  N4_13 
REMARK    4  A    between atoms: C10_14  and  C11_15 
REMARK    5  A    between atoms: N6_18  and  C13_19 
REMARK    6  A    between atoms: C13_19  and  C14_20 
ROOT
HETATM    1  C7  UNL     1      21.991  -0.574  53.551  1.00  0.00     0.088 A 
HETATM    2  C8  UNL     1      21.646  -1.148  54.752  1.00  0.00     0.151 A 
HETATM    3  N3  UNL     1      22.669  -1.474  55.578  1.00  0.00    -0.239 NA
HETATM    4  C9  UNL     1      23.936  -1.228  55.196  1.00  0.00     0.153 A 
HETATM    5  C10 UNL     1      24.313  -0.656  54.002  1.00  0.00     0.148 A 
HETATM    6  N7  UNL     1      23.266  -0.348  53.214  1.00  0.00    -0.239 NA
ENDROOT
BRANCH   1   7
HETATM    7  C6  UNL     1      20.942  -0.184  52.589  1.00  0.00     0.030 A 
HETATM    8  C5  UNL     1      19.565  -0.264  52.686  1.00  0.00     0.128 A 
HETATM    9  N2  UNL     1      18.992   0.217  51.548  1.00  0.00    -0.276 N 
HETATM   10  N8  UNL     1      19.974   0.599  50.731  1.00  0.00    -0.184 NA
HETATM   11  C20 UNL     1      21.150   0.365  51.339  1.00  0.00     0.154 A 
BRANCH   9  12
HETATM   12  C4  UNL     1      17.570   0.300  51.270  1.00  0.00     0.113 C 
HETATM   13  C3  UNL     1      16.845  -0.379  52.396  1.00  0.00     0.057 C 
HETATM   14  C2  UNL     1      15.368  -0.124  52.405  1.00  0.00     0.274 C 
HETATM   15  N1  UNL     1      14.974   1.163  51.948  1.00  0.00     0.084 N 
HETATM   16  C1  UNL     1      13.932   1.669  52.829  1.00  0.00     0.309 C 
HETATM   17  C22 UNL     1      16.009   2.154  51.904  1.00  0.00     0.274 C 
HETATM   18  C21 UNL     1      17.211   1.733  51.093  1.00  0.00     0.057 C 
ENDBRANCH   9  12
ENDBRANCH   1   7
BRANCH   5  19
HETATM   19  C11 UNL     1      25.676  -0.406  53.578  1.00  0.00     0.157 A 
HETATM   20  N5  UNL     1      26.587  -1.317  53.350  1.00  0.00    -0.251 NA
HETATM   21  C12 UNL     1      27.555  -0.315  53.004  1.00  0.00     0.277 A 
HETATM   22  N6  UNL     1      26.561   0.673  53.277  1.00  0.00    -0.342 N 
BRANCH  22  23
HETATM   23  C13 UNL     1      26.550   2.105  53.242  1.00  0.00     0.166 C 
BRANCH  23  24
HETATM   24  C14 UNL     1      26.005   2.580  51.932  1.00  0.00    -0.018 A 
HETATM   25  C15 UNL     1      26.776   2.674  50.794  1.00  0.00     0.010 A 
HETATM   26  C16 UNL     1      26.340   3.105  49.568  1.00  0.00     0.001 A 
HETATM   27  C17 UNL     1      25.007   3.483  49.453  1.00  0.00     0.002 A 
HETATM   28  C18 UNL     1      24.195   3.413  50.539  1.00  0.00     0.024 A 
HETATM   29  C19 UNL     1      24.703   2.966  51.750  1.00  0.00     0.042 A 
HETATM   30 CL1  UNL     1      23.566   2.906  53.076  1.00  0.00    -0.084 Cl
ENDBRANCH  23  24
ENDBRANCH  22  23
ENDBRANCH   5  19
BRANCH   4  31
HETATM   31  N4  UNL     1      24.919  -1.600  56.149  1.00  0.00    -0.382 N 
HETATM   32  H11 UNL     1      25.150  -2.594  55.928  1.00  0.00     0.157 HD
HETATM   33  H12 UNL     1      25.066  -0.745  56.738  1.00  0.00     0.157 HD
ENDBRANCH   4  31
TORSDOF 6
ENDMDL
MODEL 3
REMARK VINA RESULT:      -8.6      2.316      6.682
REMARK  6 active torsions:
REMARK  status: ('A' for Active; 'I' for Inactive)
REMARK    1  A    between atoms: C4_5  and  N2_6 
REMARK    2  A    between atoms: C6_8  and  C7_9 
REMARK    3  A    between atoms: C9_12  and  N4_13 
REMARK    4  A    between atoms: C10_14  and  C11_15 
REMARK    5  A    between atoms: N6_18  and  C13_19 
REMARK    6  A    between atoms: C13_19  and  C14_20 
ROOT
HETATM    1  C7  UNL     1      21.414   1.922  52.418  1.00  0.00     0.088 A 
HETATM    2  C8  UNL     1      20.079   1.966  52.742  1.00  0.00     0.151 A 
HETATM    3  N3  UNL     1      19.334   2.898  52.099  1.00  0.00    -0.239 NA
HETATM    4  C9  UNL     1      19.920   3.713  51.202  1.00  0.00     0.153 A 
HETATM    5  C10 UNL     1      21.252   3.694  50.857  1.00  0.00     0.148 A 
HETATM    6  N7  UNL     1      21.953   2.753  51.518  1.00  0.00    -0.239 NA
ENDROOT
BRANCH   1   7
HETATM    7  C6  UNL     1      22.301   0.938  53.067  1.00  0.00     0.030 A 
HETATM    8  C5  UNL     1      23.664   0.739  52.936  1.00  0.00     0.128 A 
HETATM    9  N2  UNL     1      24.060  -0.290  53.734  1.00  0.00    -0.276 N 
HETATM   10  N8  UNL     1      22.981  -0.750  54.368  1.00  0.00    -0.184 NA
HETATM   11  C20 UNL     1      21.917  -0.025  53.980  1.00  0.00     0.154 A 
BRANCH   9  12
HETATM   12  C4  UNL     1      25.412  -0.800  53.874  1.00  0.00     0.113 C 
HETATM   13  C3  UNL     1      26.146  -0.500  52.599  1.00  0.00     0.057 C 
HETATM   14  C2  UNL     1      27.628  -0.700  52.692  1.00  0.00     0.274 C 
HETATM   15  N1  UNL     1      28.200  -0.396  53.957  1.00  0.00     0.084 N 
HETATM   16  C1  UNL     1      29.443   0.332  53.742  1.00  0.00     0.309 C 
HETATM   17  C22 UNL     1      27.391   0.399  54.833  1.00  0.00     0.274 C 
HETATM   18  C21 UNL     1      26.021  -0.185  55.083  1.00  0.00     0.057 C 
ENDBRANCH   9  12
ENDBRANCH   1   7
BRANCH   5  19
HETATM   19  C11 UNL     1      21.892   4.580  49.905  1.00  0.00     0.157 A 
HETATM   20  N5  UNL     1      21.496   4.800  48.677  1.00  0.00    -0.251 NA
HETATM   21  C12 UNL     1      22.579   5.715  48.453  1.00  0.00     0.277 A 
HETATM   22  N6  UNL     1      23.016   5.452  49.786  1.00  0.00    -0.342 N 
BRANCH  22  23
HETATM   23  C13 UNL     1      24.121   5.908  50.577  1.00  0.00     0.166 C 
BRANCH  23  24
HETATM   24  C14 UNL     1      25.405   5.658  49.851  1.00  0.00    -0.018 A 
HETATM   25  C15 UNL     1      26.091   6.651  49.187  1.00  0.00     0.010 A 
HETATM   26  C16 UNL     1      27.267   6.487  48.499  1.00  0.00     0.001 A 
HETATM   27  C17 UNL     1      27.820   5.213  48.463  1.00  0.00     0.002 A 
HETATM   28  C18 UNL     1      27.191   4.190  49.097  1.00  0.00     0.024 A 
HETATM   29  C19 UNL     1      26.004   4.428  49.775  1.00  0.00     0.042 A 
HETATM   30 CL1  UNL     1      25.289   3.043  50.565  1.00  0.00    -0.084 Cl
ENDBRANCH  23  24
ENDBRANCH  22  23
ENDBRANCH   5  19
BRANCH   4  31
HETATM   31  N4  UNL     1      19.039   4.637  50.585  1.00  0.00    -0.382 N 
HETATM   32  H11 UNL     1      18.872   5.376  51.303  1.00  0.00     0.157 HD
HETATM   33  H12 UNL     1      18.865   4.250  49.625  1.00  0.00     0.157 HD
ENDBRANCH   4  31
TORSDOF 6
ENDMDL
MODEL 4
REMARK VINA RESULT:      -8.5      4.203      7.114
REMARK  6 active torsions:
REMARK  status: ('A' for Active; 'I' for Inactive)
REMARK    1  A    between atoms: C4_5  and  N2_6 
REMARK    2  A    between atoms: C6_8  and  C7_9 
REMARK    3  A    between atoms: C9_12  and  N4_13 
REMARK    4  A    between atoms: C10_14  and  C11_15 
REMARK    5  A    between atoms: N6_18  and  C13_19 
REMARK    6  A    between atoms: C13_19  and  C14_20 
ROOT
HETATM    1  C7  UNL     1      24.505   3.716  50.278  1.00  0.00     0.088 A 
HETATM    2  C8  UNL     1      23.235   4.184  50.036  1.00  0.00     0.151 A 
HETATM    3  N3  UNL     1      22.223   3.527  50.653  1.00  0.00    -0.239 NA
HETATM    4  C9  UNL     1      22.501   2.478  51.450  1.00  0.00     0.153 A 
HETATM    5  C10 UNL     1      23.759   1.986  51.712  1.00  0.00     0.148 A 
HETATM    6  N7  UNL     1      24.732   2.669  51.080  1.00  0.00    -0.239 NA
ENDROOT
BRANCH   1   7
HETATM    7  C6  UNL     1      25.668   4.371  49.650  1.00  0.00     0.030 A 
HETATM    8  C5  UNL     1      25.863   5.692  49.288  1.00  0.00     0.128 A 
HETATM    9  N2  UNL     1      27.099   5.843  48.738  1.00  0.00    -0.276 N 
HETATM   10  N8  UNL     1      27.693   4.649  48.742  1.00  0.00    -0.184 NA
HETATM   11  C20 UNL     1      26.849   3.755  49.286  1.00  0.00     0.154 A 
BRANCH   9  12
HETATM   12  C4  UNL     1      27.672   7.078  48.236  1.00  0.00     0.113 C 
HETATM   13  C3  UNL     1      27.410   8.149  49.255  1.00  0.00     0.057 C 
HETATM   14  C2  UNL     1      28.188   9.409  49.023  1.00  0.00     0.274 C 
HETATM   15  N1  UNL     1      29.483   9.226  48.465  1.00  0.00     0.084 N 
HETATM   16  C1  UNL     1      30.413  10.110  49.153  1.00  0.00     0.309 C 
HETATM   17  C22 UNL     1      30.017   7.899  48.552  1.00  0.00     0.274 C 
HETATM   18  C21 UNL     1      29.114   6.846  47.956  1.00  0.00     0.057 C 
ENDBRANCH   9  12
ENDBRANCH   1   7
BRANCH   5  19
HETATM   19  C11 UNL     1      24.063   0.846  52.555  1.00  0.00     0.157 A 
HETATM   20  N5  UNL     1      23.315   0.392  53.528  1.00  0.00    -0.251 NA
HETATM   21  C12 UNL     1      24.257  -0.653  53.813  1.00  0.00     0.277 A 
HETATM   22  N6  UNL     1      25.077  -0.137  52.764  1.00  0.00    -0.342 N 
BRANCH  22  23
HETATM   23  C13 UNL     1      26.353  -0.507  52.228  1.00  0.00     0.166 C 
BRANCH  23  24
HETATM   24  C14 UNL     1      27.436   0.271  52.905  1.00  0.00    -0.018 A 
HETATM   25  C15 UNL     1      27.370   1.635  53.088  1.00  0.00     0.010 A 
HETATM   26  C16 UNL     1      28.330   2.406  53.694  1.00  0.00     0.001 A 
HETATM   27  C17 UNL     1      29.469   1.765  54.166  1.00  0.00     0.002 A 
HETATM   28  C18 UNL     1      29.594   0.422  54.015  1.00  0.00     0.024 A 
HETATM   29  C19 UNL     1      28.584  -0.297  53.392  1.00  0.00     0.042 A 
HETATM   30 CL1  UNL     1      28.845  -2.020  53.263  1.00  0.00    -0.084 Cl
ENDBRANCH  23  24
ENDBRANCH  22  23
ENDBRANCH   5  19
BRANCH   4  31
HETATM   31  N4  UNL     1      21.364   1.880  52.051  1.00  0.00    -0.382 N 
HETATM   32  H11 UNL     1      21.480   2.040  53.076  1.00  0.00     0.157 HD
HETATM   33  H12 UNL     1      20.809   1.487  51.252  1.00  0.00     0.157 HD
ENDBRANCH   4  31
TORSDOF 6
ENDMDL
MODEL 5
REMARK VINA RESULT:      -8.3      2.650      8.071
REMARK  6 active torsions:
REMARK  status: ('A' for Active; 'I' for Inactive)
REMARK    1  A    between atoms: C4_5  and  N2_6 
REMARK    2  A    between atoms: C6_8  and  C7_9 
REMARK    3  A    between atoms: C9_12  and  N4_13 
REMARK    4  A    between atoms: C10_14  and  C11_15 
REMARK    5  A    between atoms: N6_18  and  C13_19 
REMARK    6  A    between atoms: C13_19  and  C14_20 
ROOT
HETATM    1  C7  UNL     1      23.081   4.188  50.801  1.00  0.00     0.088 A 
HETATM    2  C8  UNL     1      23.107   5.400  50.154  1.00  0.00     0.151 A 
HETATM    3  N3  UNL     1      21.906   5.940  49.836  1.00  0.00    -0.239 NA
HETATM    4  C9  UNL     1      20.776   5.282  50.160  1.00  0.00     0.153 A 
HETATM    5  C10 UNL     1      20.717   4.068  50.806  1.00  0.00     0.148 A 
HETATM    6  N7  UNL     1      21.932   3.571  51.103  1.00  0.00    -0.239 NA
ENDROOT
BRANCH   1   7
HETATM    7  C6  UNL     1      24.342   3.527  51.188  1.00  0.00     0.030 A 
HETATM    8  C5  UNL     1      24.627   2.700  52.260  1.00  0.00     0.128 A 
HETATM    9  N2  UNL     1      25.933   2.319  52.216  1.00  0.00    -0.276 N 
HETATM   10  N8  UNL     1      26.484   2.885  51.141  1.00  0.00    -0.184 NA
HETATM   11  C20 UNL     1      25.544   3.613  50.513  1.00  0.00     0.154 A 
BRANCH   9  12
HETATM   12  C4  UNL     1      26.609   1.453  53.165  1.00  0.00     0.113 C 
HETATM   13  C3  UNL     1      26.782   0.111  52.514  1.00  0.00     0.057 C 
HETATM   14  C2  UNL     1      27.717  -0.801  53.249  1.00  0.00     0.274 C 
HETATM   15  N1  UNL     1      28.802  -0.156  53.902  1.00  0.00     0.084 N 
HETATM   16  C1  UNL     1      30.009  -0.938  53.677  1.00  0.00     0.309 C 
HETATM   17  C22 UNL     1      29.080   1.183  53.475  1.00  0.00     0.274 C 
HETATM   18  C21 UNL     1      27.886   2.103  53.564  1.00  0.00     0.057 C 
ENDBRANCH   9  12
ENDBRANCH   1   7
BRANCH   5  19
HETATM   19  C11 UNL     1      19.505   3.346  51.141  1.00  0.00     0.157 A 
HETATM   20  N5  UNL     1      18.411   3.873  51.630  1.00  0.00    -0.251 NA
HETATM   21  C12 UNL     1      17.766   2.591  51.664  1.00  0.00     0.277 A 
HETATM   22  N6  UNL     1      18.972   2.023  51.151  1.00  0.00    -0.342 N 
BRANCH  22  23
HETATM   23  C13 UNL     1      19.380   0.688  50.825  1.00  0.00     0.166 C 
BRANCH  23  24
HETATM   24  C14 UNL     1      20.251   0.142  51.912  1.00  0.00    -0.018 A 
HETATM   25  C15 UNL     1      21.620   0.295  51.917  1.00  0.00     0.010 A 
HETATM   26  C16 UNL     1      22.473  -0.185  52.878  1.00  0.00     0.001 A 
HETATM   27  C17 UNL     1      21.918  -0.890  53.940  1.00  0.00     0.002 A 
HETATM   28  C18 UNL     1      20.574  -1.075  53.991  1.00  0.00     0.024 A 
HETATM   29  C19 UNL     1      19.770  -0.561  52.985  1.00  0.00     0.042 A 
HETATM   30 CL1  UNL     1      18.055  -0.849  53.160  1.00  0.00    -0.084 Cl
ENDBRANCH  23  24
ENDBRANCH  22  23
ENDBRANCH   5  19
BRANCH   4  31
HETATM   31  N4  UNL     1      19.581   5.949  49.789  1.00  0.00    -0.382 N 
HETATM   32  H11 UNL     1      19.894   6.836  49.334  1.00  0.00     0.157 HD
HETATM   33  H12 UNL     1      18.806   5.317  50.103  1.00  0.00     0.157 HD
ENDBRANCH   4  31
TORSDOF 6
ENDMDL
MODEL 6
REMARK VINA RESULT:      -8.3      2.006      6.911
REMARK  6 active torsions:
REMARK  status: ('A' for Active; 'I' for Inactive)
REMARK    1  A    between atoms: C4_5  and  N2_6 
REMARK    2  A    between atoms: C6_8  and  C7_9 
REMARK    3  A    between atoms: C9_12  and  N4_13 
REMARK    4  A    between atoms: C10_14  and  C11_15 
REMARK    5  A    between atoms: N6_18  and  C13_19 
REMARK    6  A    between atoms: C13_19  and  C14_20 
ROOT
HETATM    1  C7  UNL     1      20.991  -0.157  52.904  1.00  0.00     0.088 A 
HETATM    2  C8  UNL     1      19.968  -0.817  53.542  1.00  0.00     0.151 A 
HETATM    3  N3  UNL     1      18.732  -0.677  53.005  1.00  0.00    -0.239 NA
HETATM    4  C9  UNL     1      18.570   0.081  51.904  1.00  0.00     0.153 A 
HETATM    5  C10 UNL     1      19.572   0.754  51.243  1.00  0.00     0.148 A 
HETATM    6  N7  UNL     1      20.781   0.586  51.810  1.00  0.00    -0.239 NA
ENDROOT
BRANCH   1   7
HETATM    7  C6  UNL     1      22.370  -0.254  53.419  1.00  0.00     0.030 A 
HETATM    8  C5  UNL     1      23.540   0.321  52.956  1.00  0.00     0.128 A 
HETATM    9  N2  UNL     1      24.582  -0.047  53.751  1.00  0.00    -0.276 N 
HETATM   10  N8  UNL     1      24.102  -0.844  54.706  1.00  0.00    -0.184 NA
HETATM   11  C20 UNL     1      22.777  -0.979  54.522  1.00  0.00     0.154 A 
BRANCH   9  12
HETATM   12  C4  UNL     1      25.969   0.351  53.591  1.00  0.00     0.113 C 
HETATM   13  C3  UNL     1      26.664   0.117  54.901  1.00  0.00     0.057 C 
HETATM   14  C2  UNL     1      28.158   0.203  54.817  1.00  0.00     0.274 C 
HETATM   15  N1  UNL     1      28.721  -0.253  53.594  1.00  0.00     0.084 N 
HETATM   16  C1  UNL     1      29.906  -1.043  53.895  1.00  0.00     0.309 C 
HETATM   17  C22 UNL     1      27.868  -1.064  52.777  1.00  0.00     0.274 C 
HETATM   18  C21 UNL     1      26.547  -0.410  52.452  1.00  0.00     0.057 C 
ENDBRANCH   9  12
ENDBRANCH   1   7
BRANCH   5  19
HETATM   19  C11 UNL     1      19.400   1.586  50.068  1.00  0.00     0.157 A 
HETATM   20  N5  UNL     1      18.340   2.299  49.782  1.00  0.00    -0.251 NA
HETATM   21  C12 UNL     1      18.940   2.771  48.567  1.00  0.00     0.277 A 
HETATM   22  N6  UNL     1      20.083   1.973  48.876  1.00  0.00    -0.342 N 
BRANCH  22  23
HETATM   23  C13 UNL     1      21.329   1.724  48.213  1.00  0.00     0.166 C 
BRANCH  23  24
HETATM   24  C14 UNL     1      22.382   2.645  48.745  1.00  0.00    -0.018 A 
HETATM   25  C15 UNL     1      23.150   2.341  49.847  1.00  0.00     0.010 A 
HETATM   26  C16 UNL     1      24.124   3.141  50.386  1.00  0.00     0.001 A 
HETATM   27  C17 UNL     1      24.363   4.367  49.776  1.00  0.00     0.002 A 
HETATM   28  C18 UNL     1      23.639   4.725  48.685  1.00  0.00     0.024 A 
HETATM   29  C19 UNL     1      22.668   3.865  48.192  1.00  0.00     0.042 A 
HETATM   30 CL1  UNL     1      21.806   4.423  46.778  1.00  0.00    -0.084 Cl
ENDBRANCH  23  24
ENDBRANCH  22  23
ENDBRANCH   5  19
BRANCH   4  31
HETATM   31  N4  UNL     1      17.236   0.143  51.425  1.00  0.00    -0.382 N 
HETATM   32  H11 UNL     1      16.638  -0.057  52.257  1.00  0.00     0.157 HD
HETATM   33  H12 UNL     1      17.322   0.366  50.404  1.00  0.00     0.157 HD
ENDBRANCH   4  31
TORSDOF 6
ENDMDL
MODEL 7
REMARK VINA RESULT:      -8.2      2.306      5.109
REMARK  6 active torsions:
REMARK  status: ('A' for Active; 'I' for Inactive)
REMARK    1  A    between atoms: C4_5  and  N2_6 
REMARK    2  A    between atoms: C6_8  and  C7_9 
REMARK    3  A    between atoms: C9_12  and  N4_13 
REMARK    4  A    between atoms: C10_14  and  C11_15 
REMARK    5  A    between atoms: N6_18  and  C13_19 
REMARK    6  A    between atoms: C13_19  and  C14_20 
ROOT
HETATM    1  C7  UNL     1      25.474   1.018  53.166  1.00  0.00     0.088 A 
HETATM    2  C8  UNL     1      26.492   0.583  53.981  1.00  0.00     0.151 A 
HETATM    3  N3  UNL     1      26.165  -0.349  54.908  1.00  0.00    -0.239 NA
HETATM    4  C9  UNL     1      24.896  -0.792  54.985  1.00  0.00     0.153 A 
HETATM    5  C10 UNL     1      23.856  -0.376  54.185  1.00  0.00     0.148 A 
HETATM    6  N7  UNL     1      24.226   0.548  53.279  1.00  0.00    -0.239 NA
ENDROOT
BRANCH   1   7
HETATM    7  C6  UNL     1      25.739   2.031  52.127  1.00  0.00     0.030 A 
HETATM    8  C5  UNL     1      24.915   3.009  51.600  1.00  0.00     0.128 A 
HETATM    9  N2  UNL     1      25.588   3.723  50.656  1.00  0.00    -0.276 N 
HETATM   10  N8  UNL     1      26.820   3.220  50.570  1.00  0.00    -0.184 NA
HETATM   11  C20 UNL     1      26.928   2.205  51.445  1.00  0.00     0.154 A 
BRANCH   9  12
HETATM   12  C4  UNL     1      25.064   4.831  49.880  1.00  0.00     0.113 C 
HETATM   13  C3  UNL     1      24.052   4.277  48.919  1.00  0.00     0.057 C 
HETATM   14  C2  UNL     1      23.213   5.325  48.252  1.00  0.00     0.274 C 
HETATM   15  N1  UNL     1      22.920   6.463  49.052  1.00  0.00     0.084 N 
HETATM   16  C1  UNL     1      21.522   6.819  48.856  1.00  0.00     0.309 C 
HETATM   17  C22 UNL     1      23.123   6.305  50.461  1.00  0.00     0.274 C 
HETATM   18  C21 UNL     1      24.516   5.844  50.821  1.00  0.00     0.057 C 
ENDBRANCH   9  12
ENDBRANCH   1   7
BRANCH   5  19
HETATM   19  C11 UNL     1      22.483  -0.836  54.275  1.00  0.00     0.157 A 
HETATM   20  N5  UNL     1      22.100  -2.040  54.614  1.00  0.00    -0.251 NA
HETATM   21  C12 UNL     1      20.718  -1.681  54.466  1.00  0.00     0.277 A 
HETATM   22  N6  UNL     1      21.147  -0.376  54.076  1.00  0.00    -0.342 N 
BRANCH  22  23
HETATM   23  C13 UNL     1      20.460   0.814  53.670  1.00  0.00     0.166 C 
BRANCH  23  24
HETATM   24  C14 UNL     1      20.512   0.951  52.181  1.00  0.00    -0.018 A 
HETATM   25  C15 UNL     1      21.563   1.551  51.524  1.00  0.00     0.010 A 
HETATM   26  C16 UNL     1      21.668   1.713  50.166  1.00  0.00     0.001 A 
HETATM   27  C17 UNL     1      20.629   1.233  49.377  1.00  0.00     0.002 A 
HETATM   28  C18 UNL     1      19.563   0.631  49.966  1.00  0.00     0.024 A 
HETATM   29  C19 UNL     1      19.523   0.501  51.346  1.00  0.00     0.042 A 
HETATM   30 CL1  UNL     1      18.111  -0.300  51.993  1.00  0.00    -0.084 Cl
ENDBRANCH  23  24
ENDBRANCH  22  23
ENDBRANCH   5  19
BRANCH   4  31
HETATM   31  N4  UNL     1      24.676  -1.775  55.983  1.00  0.00    -0.382 N 
HETATM   32  H11 UNL     1      23.815  -2.282  55.682  1.00  0.00     0.157 HD
HETATM   33  H12 UNL     1      25.457  -1.645  56.671  1.00  0.00     0.157 HD
ENDBRANCH   4  31
TORSDOF 6
ENDMDL
MODEL 8
REMARK VINA RESULT:      -8.2      5.101      8.435
REMARK  6 active torsions:
REMARK  status: ('A' for Active; 'I' for Inactive)
REMARK    1  A    between atoms: C4_5  and  N2_6 
REMARK    2  A    between atoms: C6_8  and  C7_9 
REMARK    3  A    between atoms: C9_12  and  N4_13 
REMARK    4  A    between atoms: C10_14  and  C11_15 
REMARK    5  A    between atoms: N6_18  and  C13_19 
REMARK    6  A    between atoms: C13_19  and  C14_20 
ROOT
HETATM    1  C7  UNL     1      25.489   5.297  49.245  1.00  0.00     0.088 A 
HETATM    2  C8  UNL     1      24.370   5.881  48.699  1.00  0.00     0.151 A 
HETATM    3  N3  UNL     1      23.175   5.430  49.149  1.00  0.00    -0.239 NA
HETATM    4  C9  UNL     1      23.140   4.459  50.081  1.00  0.00     0.153 A 
HETATM    5  C10 UNL     1      24.239   3.854  50.645  1.00  0.00     0.148 A 
HETATM    6  N7  UNL     1      25.404   4.334  50.170  1.00  0.00    -0.239 NA
ENDROOT
BRANCH   1   7
HETATM    7  C6  UNL     1      26.833   5.727  48.816  1.00  0.00     0.030 A 
HETATM    8  C5  UNL     1      27.328   6.993  48.563  1.00  0.00     0.128 A 
HETATM    9  N2  UNL     1      28.635   6.913  48.190  1.00  0.00    -0.276 N 
HETATM   10  N8  UNL     1      28.981   5.625  48.201  1.00  0.00    -0.184 NA
HETATM   11  C20 UNL     1      27.912   4.900  48.573  1.00  0.00     0.154 A 
BRANCH   9  12
HETATM   12  C4  UNL     1      29.501   8.025  47.843  1.00  0.00     0.113 C 
HETATM   13  C3  UNL     1      28.640   9.248  47.708  1.00  0.00     0.057 C 
HETATM   14  C2  UNL     1      29.415  10.529  47.641  1.00  0.00     0.274 C 
HETATM   15  N1  UNL     1      30.609  10.554  48.410  1.00  0.00     0.084 N 
HETATM   16  C1  UNL     1      30.701  11.842  49.082  1.00  0.00     0.309 C 
HETATM   17  C22 UNL     1      30.724   9.542  49.418  1.00  0.00     0.274 C 
HETATM   18  C21 UNL     1      30.557   8.139  48.885  1.00  0.00     0.057 C 
ENDBRANCH   9  12
ENDBRANCH   1   7
BRANCH   5  19
HETATM   19  C11 UNL     1      24.208   2.796  51.636  1.00  0.00     0.157 A 
HETATM   20  N5  UNL     1      23.364   2.704  52.632  1.00  0.00    -0.251 NA
HETATM   21  C12 UNL     1      23.969   1.482  53.079  1.00  0.00     0.277 A 
HETATM   22  N6  UNL     1      24.899   1.602  52.003  1.00  0.00    -0.342 N 
BRANCH  22  23
HETATM   23  C13 UNL     1      26.014   0.818  51.562  1.00  0.00     0.166 C 
BRANCH  23  24
HETATM   24  C14 UNL     1      27.149   0.959  52.527  1.00  0.00    -0.018 A 
HETATM   25  C15 UNL     1      27.679   2.180  52.881  1.00  0.00     0.010 A 
HETATM   26  C16 UNL     1      28.720   2.376  53.752  1.00  0.00     0.001 A 
HETATM   27  C17 UNL     1      29.297   1.252  54.331  1.00  0.00     0.002 A 
HETATM   28  C18 UNL     1      28.820   0.019  54.022  1.00  0.00     0.024 A 
HETATM   29  C19 UNL     1      27.763  -0.106  53.133  1.00  0.00     0.042 A 
HETATM   30 CL1  UNL     1      27.223  -1.738  52.818  1.00  0.00    -0.084 Cl
ENDBRANCH  23  24
ENDBRANCH  22  23
ENDBRANCH   5  19
BRANCH   4  31
HETATM   31  N4  UNL     1      21.834   4.078  50.483  1.00  0.00    -0.382 N 
HETATM   32  H11 UNL     1      21.421   4.934  50.915  1.00  0.00     0.157 HD
HETATM   33  H12 UNL     1      21.745   3.071  50.205  1.00  0.00     0.157 HD
ENDBRANCH   4  31
TORSDOF 6
ENDMDL
MODEL 9
REMARK VINA RESULT:      -8.0      5.070      8.887
REMARK  6 active torsions:
REMARK  status: ('A' for Active; 'I' for Inactive)
REMARK    1  A    between atoms: C4_5  and  N2_6 
REMARK    2  A    between atoms: C6_8  and  C7_9 
REMARK    3  A    between atoms: C9_12  and  N4_13 
REMARK    4  A    between atoms: C10_14  and  C11_15 
REMARK    5  A    between atoms: N6_18  and  C13_19 
REMARK    6  A    between atoms: C13_19  and  C14_20 
ROOT
HETATM    1  C7  UNL     1      25.620   6.263  49.576  1.00  0.00     0.088 A 
HETATM    2  C8  UNL     1      24.990   7.483  49.499  1.00  0.00     0.151 A 
HETATM    3  N3  UNL     1      23.765   7.565  50.072  1.00  0.00    -0.239 NA
HETATM    4  C9  UNL     1      23.239   6.480  50.672  1.00  0.00     0.153 A 
HETATM    5  C10 UNL     1      23.844   5.248  50.766  1.00  0.00     0.148 A 
HETATM    6  N7  UNL     1      25.057   5.212  50.184  1.00  0.00    -0.239 NA
ENDROOT
BRANCH   1   7
HETATM    7  C6  UNL     1      26.958   6.082  48.981  1.00  0.00     0.030 A 
HETATM    8  C5  UNL     1      27.894   7.020  48.583  1.00  0.00     0.128 A 
HETATM    9  N2  UNL     1      28.995   6.392  48.086  1.00  0.00    -0.276 N 
HETATM   10  N8  UNL     1      28.780   5.078  48.159  1.00  0.00    -0.184 NA
HETATM   11  C20 UNL     1      27.563   4.874  48.693  1.00  0.00     0.154 A 
BRANCH   9  12
HETATM   12  C4  UNL     1      30.191   7.032  47.569  1.00  0.00     0.113 C 
HETATM   13  C3  UNL     1      30.617   8.072  48.564  1.00  0.00     0.057 C 
HETATM   14  C2  UNL     1      31.992   8.617  48.319  1.00  0.00     0.274 C 
HETATM   15  N1  UNL     1      32.923   7.686  47.784  1.00  0.00     0.084 N 
HETATM   16  C1  UNL     1      34.197   7.860  48.469  1.00  0.00     0.309 C 
HETATM   17  C22 UNL     1      32.564   6.304  47.904  1.00  0.00     0.274 C 
HETATM   18  C21 UNL     1      31.212   5.981  47.315  1.00  0.00     0.057 C 
ENDBRANCH   9  12
ENDBRANCH   1   7
BRANCH   5  19
HETATM   19  C11 UNL     1      23.275   4.072  51.395  1.00  0.00     0.157 A 
HETATM   20  N5  UNL     1      22.120   3.529  51.101  1.00  0.00    -0.251 NA
HETATM   21  C12 UNL     1      22.308   2.508  52.092  1.00  0.00     0.277 A 
HETATM   22  N6  UNL     1      23.555   3.120  52.420  1.00  0.00    -0.342 N 
BRANCH  22  23
HETATM   23  C13 UNL     1      24.578   2.835  53.383  1.00  0.00     0.166 C 
BRANCH  23  24
HETATM   24  C14 UNL     1      25.175   1.491  53.110  1.00  0.00    -0.018 A 
HETATM   25  C15 UNL     1      24.745   0.343  53.737  1.00  0.00     0.010 A 
HETATM   26  C16 UNL     1      25.254  -0.915  53.536  1.00  0.00     0.001 A 
HETATM   27  C17 UNL     1      26.293  -1.052  52.624  1.00  0.00     0.002 A 
HETATM   28  C18 UNL     1      26.762   0.043  51.973  1.00  0.00     0.024 A 
HETATM   29  C19 UNL     1      26.200   1.286  52.224  1.00  0.00     0.042 A 
HETATM   30 CL1  UNL     1      26.874   2.622  51.321  1.00  0.00    -0.084 Cl
ENDBRANCH  23  24
ENDBRANCH  22  23
ENDBRANCH   5  19
BRANCH   4  31
HETATM   31  N4  UNL     1      21.960   6.691  51.248  1.00  0.00    -0.382 N 
HETATM   32  H11 UNL     1      22.146   7.143  52.170  1.00  0.00     0.157 HD
HETATM   33  H12 UNL     1      21.279   6.317  50.543  1.00  0.00     0.157 HD
ENDBRANCH   4  31
TORSDOF 6
ENDMDL
