MODEL 1
REMARK VINA RESULT:      -8.1      0.000      0.000
REMARK  7 active torsions:
REMARK  status: ('A' for Active; 'I' for Inactive)
REMARK    1  A    between atoms: C4_5  and  O1_6 
REMARK    2  A    between atoms: O1_6  and  C5_7 
REMARK    3  A    between atoms: C12_18  and  N4_19 
REMARK    4  A    between atoms: N4_19  and  C13_20 
REMARK    5  A    between atoms: C13_20  and  C14_21 
REMARK    6  A    between atoms: C15_22  and  C16_23 
REMARK    7  A    between atoms: C16_23  and  N5_24 
ROOT
HETATM    1  C5  UNL     1      31.968   4.614  47.881  1.00  0.00     0.156 C 
HETATM    2  C6  UNL     1      33.186   4.070  47.839  1.00  0.00     0.242 C 
HETATM    3 CL1  UNL     1      34.733   3.252  47.707  1.00  0.00    -0.228 Cl
ENDROOT
BRANCH   1   4
HETATM    4  O1  UNL     1      31.746   5.806  48.587  1.00  0.00    -0.305 OA
BRANCH   4   5
HETATM    5  C4  UNL     1      31.009   6.775  47.851  1.00  0.00     0.147 C 
HETATM    6  C3  UNL     1      29.912   6.210  48.318  1.00  0.00     0.059 C 
HETATM    7  C2  UNL     1      28.470   6.506  48.124  1.00  0.00     0.042 C 
HETATM    8  C1  UNL     1      27.123   6.567  48.109  1.00  0.00     0.099 C 
HETATM    9  F1  UNL     1      26.147   7.356  47.522  1.00  0.00    -0.210 F 
HETATM   10  C21 UNL     1      26.271   5.592  48.820  1.00  0.00     0.126 C 
HETATM   11  C12 UNL     1      25.474   6.254  49.903  1.00  0.00     0.009 C 
HETATM   12  C11 UNL     1      25.527   7.454  50.517  1.00  0.00     0.009 C 
HETATM   13  C10 UNL     1      26.742   8.153  50.009  1.00  0.00     0.063 C 
HETATM   14  C9  UNL     1      27.321   9.357  50.243  1.00  0.00     0.100 C 
HETATM   15  N3  UNL     1      28.475   9.466  49.466  1.00  0.00    -0.257 NA
HETATM   16  C8  UNL     1      28.900  10.382  48.703  1.00  0.00     0.233 C 
HETATM   17  N2  UNL     1      29.892   9.323  48.664  1.00  0.00    -0.237 NA
HETATM   18  C7  UNL     1      30.196   8.858  47.533  1.00  0.00     0.210 C 
HETATM   19  N1  UNL     1      31.023   7.906  46.969  1.00  0.00    -0.331 N 
HETATM   20  H5  UNL     1      31.621   7.201  46.573  1.00  0.00     0.168 HD
BRANCH  11  21
HETATM   21  N4  UNL     1      24.403   5.335  50.201  1.00  0.00    -0.383 N 
HETATM   22  H11 UNL     1      23.945   4.766  49.418  1.00  0.00     0.160 HD
BRANCH  21  23
HETATM   23  C13 UNL     1      23.728   4.937  51.430  1.00  0.00     0.214 C 
BRANCH  23  24
HETATM   24  C14 UNL     1      24.101   3.604  51.889  1.00  0.00    -0.085 C 
HETATM   25  C15 UNL     1      24.420   2.487  52.253  1.00  0.00    -0.075 C 
BRANCH  25  26
HETATM   26  C16 UNL     1      24.820   1.142  52.673  1.00  0.00     0.366 C 
BRANCH  26  27
HETATM   27  N5  UNL     1      26.268   1.060  52.592  1.00  0.00     0.103 N 
HETATM   28  C17 UNL     1      26.662  -0.213  52.050  1.00  0.00     0.299 C 
HETATM   29  C18 UNL     1      26.844  -1.277  53.083  1.00  0.00     0.198 C 
HETATM   30  O2  UNL     1      27.643  -0.816  54.126  1.00  0.00    -0.388 OA
HETATM   31  C19 UNL     1      26.901   0.158  54.799  1.00  0.00     0.198 C 
HETATM   32  C20 UNL     1      26.837   1.355  53.876  1.00  0.00     0.299 C 
ENDBRANCH  26  27
ENDBRANCH  25  26
ENDBRANCH  23  24
ENDBRANCH  21  23
ENDBRANCH  11  21
ENDBRANCH   4   5
ENDBRANCH   1   4
TORSDOF 7
ENDMDL
MODEL 2
REMARK VINA RESULT:      -7.7      3.033      9.300
REMARK  7 active torsions:
REMARK  status: ('A' for Active; 'I' for Inactive)
REMARK    1  A    between atoms: C4_5  and  O1_6 
REMARK    2  A    between atoms: O1_6  and  C5_7 
REMARK    3  A    between atoms: C12_18  and  N4_19 
REMARK    4  A    between atoms: N4_19  and  C13_20 
REMARK    5  A    between atoms: C13_20  and  C14_21 
REMARK    6  A    between atoms: C15_22  and  C16_23 
REMARK    7  A    between atoms: C16_23  and  N5_24 
ROOT
HETATM    1  C5  UNL     1      28.062  -2.478  52.947  1.00  0.00     0.156 C 
HETATM    2  C6  UNL     1      29.045  -1.636  53.270  1.00  0.00     0.242 C 
HETATM    3 CL1  UNL     1      30.407  -0.638  53.744  1.00  0.00    -0.228 Cl
ENDROOT
BRANCH   1   4
HETATM    4  O1  UNL     1      26.889  -2.003  52.341  1.00  0.00    -0.305 OA
BRANCH   4   5
HETATM    5  C4  UNL     1      26.101  -1.179  53.192  1.00  0.00     0.147 C 
HETATM    6  C3  UNL     1      26.250  -0.217  52.300  1.00  0.00     0.059 C 
HETATM    7  C2  UNL     1      25.760   1.184  52.246  1.00  0.00     0.042 C 
HETATM    8  C1  UNL     1      25.446   2.465  51.964  1.00  0.00     0.099 C 
HETATM    9  F1  UNL     1      24.726   3.490  52.558  1.00  0.00    -0.210 F 
HETATM   10  C21 UNL     1      25.937   3.162  50.758  1.00  0.00     0.126 C 
HETATM   11  C12 UNL     1      24.806   3.542  49.850  1.00  0.00     0.009 C 
HETATM   12  C11 UNL     1      23.504   3.198  49.768  1.00  0.00     0.009 C 
HETATM   13  C10 UNL     1      23.270   2.122  50.773  1.00  0.00     0.063 C 
HETATM   14  C9  UNL     1      22.196   1.389  51.156  1.00  0.00     0.100 C 
HETATM   15  N3  UNL     1      22.582   0.506  52.165  1.00  0.00    -0.257 NA
HETATM   16  C8  UNL     1      22.080   0.236  53.295  1.00  0.00     0.233 C 
HETATM   17  N2  UNL     1      23.262  -0.596  53.164  1.00  0.00    -0.237 NA
HETATM   18  C7  UNL     1      24.131  -0.511  54.071  1.00  0.00     0.210 C 
HETATM   19  N1  UNL     1      25.360  -1.043  54.412  1.00  0.00    -0.331 N 
HETATM   20  H5  UNL     1      26.260  -1.429  54.641  1.00  0.00     0.168 HD
BRANCH  11  21
HETATM   21  N4  UNL     1      25.342   4.562  48.983  1.00  0.00    -0.383 N 
HETATM   22  H11 UNL     1      25.970   4.295  48.158  1.00  0.00     0.160 HD
BRANCH  21  23
HETATM   23  C13 UNL     1      25.217   6.014  48.936  1.00  0.00     0.214 C 
BRANCH  23  24
HETATM   24  C14 UNL     1      26.390   6.677  48.377  1.00  0.00    -0.085 C 
HETATM   25  C15 UNL     1      27.356   7.237  47.893  1.00  0.00    -0.075 C 
BRANCH  25  26
HETATM   26  C16 UNL     1      28.504   7.927  47.301  1.00  0.00     0.366 C 
BRANCH  26  27
HETATM   27  N5  UNL     1      28.608   9.237  47.922  1.00  0.00     0.103 N 
HETATM   28  C17 UNL     1      29.311  10.141  47.052  1.00  0.00     0.299 C 
HETATM   29  C18 UNL     1      30.792  10.135  47.247  1.00  0.00     0.198 C 
HETATM   30  O2  UNL     1      31.110  10.261  48.597  1.00  0.00    -0.388 OA
HETATM   31  C19 UNL     1      30.702   9.077  49.216  1.00  0.00     0.198 C 
HETATM   32  C20 UNL     1      29.188   9.103  49.227  1.00  0.00     0.299 C 
ENDBRANCH  26  27
ENDBRANCH  25  26
ENDBRANCH  23  24
ENDBRANCH  21  23
ENDBRANCH  11  21
ENDBRANCH   4   5
ENDBRANCH   1   4
TORSDOF 7
ENDMDL
MODEL 3
REMARK VINA RESULT:      -7.7      6.670      9.452
REMARK  7 active torsions:
REMARK  status: ('A' for Active; 'I' for Inactive)
REMARK    1  A    between atoms: C4_5  and  O1_6 
REMARK    2  A    between atoms: O1_6  and  C5_7 
REMARK    3  A    between atoms: C12_18  and  N4_19 
REMARK    4  A    between atoms: N4_19  and  C13_20 
REMARK    5  A    between atoms: C13_20  and  C14_21 
REMARK    6  A    between atoms: C15_22  and  C16_23 
REMARK    7  A    between atoms: C16_23  and  N5_24 
ROOT
HETATM    1  C5  UNL     1      28.465   2.116  53.828  1.00  0.00     0.156 C 
HETATM    2  C6  UNL     1      29.045   0.916  53.762  1.00  0.00     0.242 C 
HETATM    3 CL1  UNL     1      29.931  -0.596  53.677  1.00  0.00    -0.228 Cl
ENDROOT
BRANCH   1   4
HETATM    4  O1  UNL     1      27.066   2.229  53.827  1.00  0.00    -0.305 OA
BRANCH   4   5
HETATM    5  C4  UNL     1      26.492   2.181  52.527  1.00  0.00     0.147 C 
HETATM    6  C3  UNL     1      25.466   1.549  53.066  1.00  0.00     0.059 C 
HETATM    7  C2  UNL     1      24.207   1.009  52.494  1.00  0.00     0.042 C 
HETATM    8  C1  UNL     1      23.013   0.443  52.225  1.00  0.00     0.099 C 
HETATM    9  F1  UNL     1      22.209   0.244  51.114  1.00  0.00    -0.210 F 
HETATM   10  C21 UNL     1      22.199  -0.236  53.254  1.00  0.00     0.126 C 
HETATM   11  C12 UNL     1      20.896   0.472  53.472  1.00  0.00     0.009 C 
HETATM   12  C11 UNL     1      20.408   1.681  53.127  1.00  0.00     0.009 C 
HETATM   13  C10 UNL     1      21.522   2.438  52.488  1.00  0.00     0.063 C 
HETATM   14  C9  UNL     1      21.651   3.675  51.949  1.00  0.00     0.100 C 
HETATM   15  N3  UNL     1      22.961   3.841  51.497  1.00  0.00    -0.257 NA
HETATM   16  C8  UNL     1      23.434   4.259  50.401  1.00  0.00     0.233 C 
HETATM   17  N2  UNL     1      24.573   3.931  51.238  1.00  0.00    -0.237 NA
HETATM   18  C7  UNL     1      25.415   3.117  50.775  1.00  0.00     0.210 C 
HETATM   19  N1  UNL     1      26.600   2.503  51.133  1.00  0.00    -0.331 N 
HETATM   20  H5  UNL     1      27.456   2.053  51.412  1.00  0.00     0.168 HD
BRANCH  11  21
HETATM   21  N4  UNL     1      20.047  -0.491  54.128  1.00  0.00    -0.383 N 
HETATM   22  H11 UNL     1      19.973  -0.509  55.197  1.00  0.00     0.160 HD
BRANCH  21  23
HETATM   23  C13 UNL     1      19.162  -1.547  53.651  1.00  0.00     0.214 C 
BRANCH  23  24
HETATM   24  C14 UNL     1      17.936  -1.042  53.042  1.00  0.00    -0.085 C 
HETATM   25  C15 UNL     1      16.925  -0.610  52.520  1.00  0.00    -0.075 C 
BRANCH  25  26
HETATM   26  C16 UNL     1      15.720  -0.088  51.872  1.00  0.00     0.366 C 
BRANCH  26  27
HETATM   27  N5  UNL     1      15.129   0.902  52.755  1.00  0.00     0.103 N 
HETATM   28  C17 UNL     1      13.912   0.391  53.326  1.00  0.00     0.299 C 
HETATM   29  C18 UNL     1      12.697   0.670  52.503  1.00  0.00     0.198 C 
HETATM   30  O2  UNL     1      12.649   2.013  52.138  1.00  0.00    -0.388 OA
HETATM   31  C19 UNL     1      13.698   2.221  51.239  1.00  0.00     0.198 C 
HETATM   32  C20 UNL     1      14.974   2.142  52.050  1.00  0.00     0.299 C 
ENDBRANCH  26  27
ENDBRANCH  25  26
ENDBRANCH  23  24
ENDBRANCH  21  23
ENDBRANCH  11  21
ENDBRANCH   4   5
ENDBRANCH   1   4
TORSDOF 7
ENDMDL
MODEL 4
REMARK VINA RESULT:      -7.6      4.657      7.150
REMARK  7 active torsions:
REMARK  status: ('A' for Active; 'I' for Inactive)
REMARK    1  A    between atoms: C4_5  and  O1_6 
REMARK    2  A    between atoms: O1_6  and  C5_7 
REMARK    3  A    between atoms: C12_18  and  N4_19 
REMARK    4  A    between atoms: N4_19  and  C13_20 
REMARK    5  A    between atoms: C13_20  and  C14_21 
REMARK    6  A    between atoms: C15_22  and  C16_23 
REMARK    7  A    between atoms: C16_23  and  N5_24 
ROOT
HETATM    1  C5  UNL     1      26.522   4.711  49.315  1.00  0.00     0.156 C 
HETATM    2  C6  UNL     1      26.326   5.937  48.827  1.00  0.00     0.242 C 
HETATM    3 CL1  UNL     1      26.196   7.542  48.131  1.00  0.00    -0.228 Cl
ENDROOT
BRANCH   1   4
HETATM    4  O1  UNL     1      25.529   4.085  50.084  1.00  0.00    -0.305 OA
BRANCH   4   5
HETATM    5  C4  UNL     1      24.289   3.938  49.403  1.00  0.00     0.147 C 
HETATM    6  C3  UNL     1      24.029   2.931  50.216  1.00  0.00     0.059 C 
HETATM    7  C2  UNL     1      22.866   2.016  50.339  1.00  0.00     0.042 C 
HETATM    8  C1  UNL     1      21.949   1.076  50.649  1.00  0.00     0.099 C 
HETATM    9  F1  UNL     1      20.697   0.689  50.199  1.00  0.00    -0.210 F 
HETATM   10  C21 UNL     1      22.168   0.063  51.701  1.00  0.00     0.126 C 
HETATM   11  C12 UNL     1      21.186   0.223  52.823  1.00  0.00     0.009 C 
HETATM   12  C11 UNL     1      20.325   1.193  53.194  1.00  0.00     0.009 C 
HETATM   13  C10 UNL     1      20.558   2.356  52.291  1.00  0.00     0.063 C 
HETATM   14  C9  UNL     1      20.020   3.595  52.170  1.00  0.00     0.100 C 
HETATM   15  N3  UNL     1      20.655   4.266  51.124  1.00  0.00    -0.257 NA
HETATM   16  C8  UNL     1      20.204   4.918  50.137  1.00  0.00     0.233 C 
HETATM   17  N2  UNL     1      21.651   4.963  50.030  1.00  0.00    -0.237 NA
HETATM   18  C7  UNL     1      22.163   4.556  48.954  1.00  0.00     0.210 C 
HETATM   19  N1  UNL     1      23.404   4.391  48.369  1.00  0.00    -0.331 N 
HETATM   20  H5  UNL     1      24.315   4.266  47.960  1.00  0.00     0.168 HD
BRANCH  11  21
HETATM   21  N4  UNL     1      21.206  -1.036  53.526  1.00  0.00    -0.383 N 
HETATM   22  H11 UNL     1      20.542  -1.826  53.241  1.00  0.00     0.160 HD
BRANCH  21  23
HETATM   23  C13 UNL     1      21.997  -1.560  54.633  1.00  0.00     0.214 C 
BRANCH  23  24
HETATM   24  C14 UNL     1      23.366  -1.057  54.655  1.00  0.00    -0.085 C 
HETATM   25  C15 UNL     1      24.507  -0.634  54.695  1.00  0.00    -0.075 C 
BRANCH  25  26
HETATM   26  C16 UNL     1      25.882  -0.135  54.765  1.00  0.00     0.366 C 
BRANCH  26  27
HETATM   27  N5  UNL     1      26.452  -0.203  53.431  1.00  0.00     0.103 N 
HETATM   28  C17 UNL     1      27.886  -0.285  53.509  1.00  0.00     0.299 C 
HETATM   29  C18 UNL     1      28.565   1.045  53.531  1.00  0.00     0.198 C 
HETATM   30  O2  UNL     1      28.084   1.859  52.508  1.00  0.00    -0.388 OA
HETATM   31  C19 UNL     1      26.761   2.170  52.833  1.00  0.00     0.198 C 
HETATM   32  C20 UNL     1      25.967   0.896  52.646  1.00  0.00     0.299 C 
ENDBRANCH  26  27
ENDBRANCH  25  26
ENDBRANCH  23  24
ENDBRANCH  21  23
ENDBRANCH  11  21
ENDBRANCH   4   5
ENDBRANCH   1   4
TORSDOF 7
ENDMDL
MODEL 5
REMARK VINA RESULT:      -7.4      3.340      5.136
REMARK  7 active torsions:
REMARK  status: ('A' for Active; 'I' for Inactive)
REMARK    1  A    between atoms: C4_5  and  O1_6 
REMARK    2  A    between atoms: O1_6  and  C5_7 
REMARK    3  A    between atoms: C12_18  and  N4_19 
REMARK    4  A    between atoms: N4_19  and  C13_20 
REMARK    5  A    between atoms: C13_20  and  C14_21 
REMARK    6  A    between atoms: C15_22  and  C16_23 
REMARK    7  A    between atoms: C16_23  and  N5_24 
ROOT
HETATM    1  C5  UNL     1      35.402   9.229  45.113  1.00  0.00     0.156 C 
HETATM    2  C6  UNL     1      34.667   8.603  44.192  1.00  0.00     0.242 C 
HETATM    3 CL1  UNL     1      33.815   7.771  42.904  1.00  0.00    -0.228 Cl
ENDROOT
BRANCH   1   4
HETATM    4  O1  UNL     1      34.815   9.678  46.307  1.00  0.00    -0.305 OA
BRANCH   4   5
HETATM    5  C4  UNL     1      35.007   8.793  47.404  1.00  0.00     0.147 C 
HETATM    6  C3  UNL     1      33.696   8.793  47.558  1.00  0.00     0.059 C 
HETATM    7  C2  UNL     1      32.800   8.111  48.525  1.00  0.00     0.042 C 
HETATM    8  C1  UNL     1      31.792   7.615  49.272  1.00  0.00     0.099 C 
HETATM    9  F1  UNL     1      31.652   6.766  50.358  1.00  0.00    -0.210 F 
HETATM   10  C21 UNL     1      30.379   7.988  49.055  1.00  0.00     0.126 C 
HETATM   11  C12 UNL     1      29.561   6.804  48.635  1.00  0.00     0.009 C 
HETATM   12  C11 UNL     1      29.853   5.562  48.195  1.00  0.00     0.009 C 
HETATM   13  C10 UNL     1      31.333   5.494  48.022  1.00  0.00     0.063 C 
HETATM   14  C9  UNL     1      32.204   4.539  47.615  1.00  0.00     0.100 C 
HETATM   15  N3  UNL     1      33.499   5.059  47.650  1.00  0.00    -0.257 NA
HETATM   16  C8  UNL     1      34.579   4.614  48.137  1.00  0.00     0.233 C 
HETATM   17  N2  UNL     1      34.897   5.900  47.543  1.00  0.00    -0.237 NA
HETATM   18  C7  UNL     1      35.441   6.759  48.286  1.00  0.00     0.210 C 
HETATM   19  N1  UNL     1      35.917   8.056  48.230  1.00  0.00    -0.331 N 
HETATM   20  H5  UNL     1      36.250   9.004  48.179  1.00  0.00     0.168 HD
BRANCH  11  21
HETATM   21  N4  UNL     1      28.192   7.179  48.887  1.00  0.00    -0.383 N 
HETATM   22  H11 UNL     1      27.959   7.894  49.649  1.00  0.00     0.160 HD
BRANCH  21  23
HETATM   23  C13 UNL     1      26.916   6.801  48.291  1.00  0.00     0.214 C 
BRANCH  23  24
HETATM   24  C14 UNL     1      26.361   5.572  48.846  1.00  0.00    -0.085 C 
HETATM   25  C15 UNL     1      25.893   4.539  49.289  1.00  0.00    -0.075 C 
BRANCH  25  26
HETATM   26  C16 UNL     1      25.337   3.285  49.801  1.00  0.00     0.366 C 
BRANCH  26  27
HETATM   27  N5  UNL     1      25.575   3.242  51.234  1.00  0.00     0.103 N 
HETATM   28  C17 UNL     1      26.747   2.457  51.517  1.00  0.00     0.299 C 
HETATM   29  C18 UNL     1      26.467   1.002  51.706  1.00  0.00     0.198 C 
HETATM   30  O2  UNL     1      25.413   0.817  52.598  1.00  0.00    -0.388 OA
HETATM   31  C19 UNL     1      24.261   1.284  51.959  1.00  0.00     0.198 C 
HETATM   32  C20 UNL     1      24.388   2.791  51.902  1.00  0.00     0.299 C 
ENDBRANCH  26  27
ENDBRANCH  25  26
ENDBRANCH  23  24
ENDBRANCH  21  23
ENDBRANCH  11  21
ENDBRANCH   4   5
ENDBRANCH   1   4
TORSDOF 7
ENDMDL
MODEL 6
REMARK VINA RESULT:      -7.4      3.749      9.406
REMARK  7 active torsions:
REMARK  status: ('A' for Active; 'I' for Inactive)
REMARK    1  A    between atoms: C4_5  and  O1_6 
REMARK    2  A    between atoms: O1_6  and  C5_7 
REMARK    3  A    between atoms: C12_18  and  N4_19 
REMARK    4  A    between atoms: N4_19  and  C13_20 
REMARK    5  A    between atoms: C13_20  and  C14_21 
REMARK    6  A    between atoms: C15_22  and  C16_23 
REMARK    7  A    between atoms: C16_23  and  N5_24 
ROOT
HETATM    1  C5  UNL     1      27.405  -1.613  52.943  1.00  0.00     0.156 C 
HETATM    2  C6  UNL     1      28.590  -1.057  53.201  1.00  0.00     0.242 C 
HETATM    3 CL1  UNL     1      30.186  -0.447  53.598  1.00  0.00    -0.228 Cl
ENDROOT
BRANCH   1   4
HETATM    4  O1  UNL     1      26.393  -0.869  52.315  1.00  0.00    -0.305 OA
BRANCH   4   5
HETATM    5  C4  UNL     1      25.356  -0.460  53.199  1.00  0.00     0.147 C 
HETATM    6  C3  UNL     1      25.141   0.555  52.384  1.00  0.00     0.059 C 
HETATM    7  C2  UNL     1      24.171   1.679  52.415  1.00  0.00     0.042 C 
HETATM    8  C1  UNL     1      23.408   2.773  52.216  1.00  0.00     0.099 C 
HETATM    9  F1  UNL     1      22.361   3.413  52.859  1.00  0.00    -0.210 F 
HETATM   10  C21 UNL     1      23.611   3.694  51.079  1.00  0.00     0.126 C 
HETATM   11  C12 UNL     1      22.422   3.702  50.166  1.00  0.00     0.009 C 
HETATM   12  C11 UNL     1      21.338   2.912  50.019  1.00  0.00     0.009 C 
HETATM   13  C10 UNL     1      21.513   1.751  50.937  1.00  0.00     0.063 C 
HETATM   14  C9  UNL     1      20.783   0.647  51.233  1.00  0.00     0.100 C 
HETATM   15  N3  UNL     1      21.466  -0.108  52.188  1.00  0.00    -0.257 NA
HETATM   16  C8  UNL     1      21.095  -0.630  53.279  1.00  0.00     0.233 C 
HETATM   17  N2  UNL     1      22.501  -0.958  53.126  1.00  0.00    -0.237 NA
HETATM   18  C7  UNL     1      23.276  -0.631  54.063  1.00  0.00     0.210 C 
HETATM   19  N1  UNL     1      24.614  -0.701  54.402  1.00  0.00    -0.331 N 
HETATM   20  H5  UNL     1      25.592  -0.747  54.631  1.00  0.00     0.168 HD
BRANCH  11  21
HETATM   21  N4  UNL     1      22.547   4.911  49.391  1.00  0.00    -0.383 N 
HETATM   22  H11 UNL     1      22.087   5.819  49.727  1.00  0.00     0.160 HD
BRANCH  21  23
HETATM   23  C13 UNL     1      23.225   5.246  48.145  1.00  0.00     0.214 C 
BRANCH  23  24
HETATM   24  C14 UNL     1      24.423   6.054  48.337  1.00  0.00    -0.085 C 
HETATM   25  C15 UNL     1      25.417   6.733  48.517  1.00  0.00    -0.075 C 
BRANCH  25  26
HETATM   26  C16 UNL     1      26.613   7.545  48.758  1.00  0.00     0.366 C 
BRANCH  26  27
HETATM   27  N5  UNL     1      26.239   8.645  49.630  1.00  0.00     0.103 N 
HETATM   28  C17 UNL     1      25.397   9.573  48.922  1.00  0.00     0.299 C 
HETATM   29  C18 UNL     1      26.152  10.642  48.203  1.00  0.00     0.198 C 
HETATM   30  O2  UNL     1      27.090  11.233  49.045  1.00  0.00    -0.388 OA
HETATM   31  C19 UNL     1      28.067  10.268  49.296  1.00  0.00     0.198 C 
HETATM   32  C20 UNL     1      27.421   9.233  50.192  1.00  0.00     0.299 C 
ENDBRANCH  26  27
ENDBRANCH  25  26
ENDBRANCH  23  24
ENDBRANCH  21  23
ENDBRANCH  11  21
ENDBRANCH   4   5
ENDBRANCH   1   4
TORSDOF 7
ENDMDL
MODEL 7
REMARK VINA RESULT:      -7.4      7.180      9.867
REMARK  7 active torsions:
REMARK  status: ('A' for Active; 'I' for Inactive)
REMARK    1  A    between atoms: C4_5  and  O1_6 
REMARK    2  A    between atoms: O1_6  and  C5_7 
REMARK    3  A    between atoms: C12_18  and  N4_19 
REMARK    4  A    between atoms: N4_19  and  C13_20 
REMARK    5  A    between atoms: C13_20  and  C14_21 
REMARK    6  A    between atoms: C15_22  and  C16_23 
REMARK    7  A    between atoms: C16_23  and  N5_24 
ROOT
HETATM    1  C5  UNL     1      27.445   0.295  54.818  1.00  0.00     0.156 C 
HETATM    2  C6  UNL     1      28.613  -0.154  54.357  1.00  0.00     0.242 C 
HETATM    3 CL1  UNL     1      30.133  -0.856  53.831  1.00  0.00    -0.228 Cl
ENDROOT
BRANCH   1   4
HETATM    4  O1  UNL     1      26.941   1.534  54.393  1.00  0.00    -0.305 OA
BRANCH   4   5
HETATM    5  C4  UNL     1      26.503   1.536  53.040  1.00  0.00     0.147 C 
HETATM    6  C3  UNL     1      25.362   1.030  53.470  1.00  0.00     0.059 C 
HETATM    7  C2  UNL     1      24.116   0.628  52.770  1.00  0.00     0.042 C 
HETATM    8  C1  UNL     1      22.899   0.198  52.377  1.00  0.00     0.099 C 
HETATM    9  F1  UNL     1      22.198   0.078  51.189  1.00  0.00    -0.210 F 
HETATM   10  C21 UNL     1      21.913  -0.374  53.317  1.00  0.00     0.126 C 
HETATM   11  C12 UNL     1      20.682   0.478  53.399  1.00  0.00     0.009 C 
HETATM   12  C11 UNL     1      20.372   1.731  53.005  1.00  0.00     0.009 C 
HETATM   13  C10 UNL     1      21.625   2.351  52.486  1.00  0.00     0.063 C 
HETATM   14  C9  UNL     1      21.948   3.559  51.964  1.00  0.00     0.100 C 
HETATM   15  N3  UNL     1      23.308   3.572  51.651  1.00  0.00    -0.257 NA
HETATM   16  C8  UNL     1      23.935   3.921  50.609  1.00  0.00     0.233 C 
HETATM   17  N2  UNL     1      24.938   3.477  51.560  1.00  0.00    -0.237 NA
HETATM   18  C7  UNL     1      25.725   2.568  51.187  1.00  0.00     0.210 C 
HETATM   19  N1  UNL     1      26.790   1.828  51.665  1.00  0.00    -0.331 N 
HETATM   20  H5  UNL     1      27.556   1.289  52.031  1.00  0.00     0.168 HD
BRANCH  11  21
HETATM   21  N4  UNL     1      19.666  -0.376  53.963  1.00  0.00    -0.383 N 
HETATM   22  H11 UNL     1      19.152  -0.088  54.856  1.00  0.00     0.160 HD
BRANCH  21  23
HETATM   23  C13 UNL     1      19.096  -1.659  53.572  1.00  0.00     0.214 C 
BRANCH  23  24
HETATM   24  C14 UNL     1      17.718  -1.562  53.104  1.00  0.00    -0.085 C 
HETATM   25  C15 UNL     1      16.570  -1.499  52.704  1.00  0.00    -0.075 C 
BRANCH  25  26
HETATM   26  C16 UNL     1      15.188  -1.448  52.224  1.00  0.00     0.366 C 
BRANCH  26  27
HETATM   27  N5  UNL     1      14.896  -2.709  51.565  1.00  0.00     0.103 N 
HETATM   28  C17 UNL     1      13.680  -2.599  50.803  1.00  0.00     0.299 C 
HETATM   29  C18 UNL     1      12.450  -2.933  51.582  1.00  0.00     0.198 C 
HETATM   30  O2  UNL     1      12.607  -4.142  52.256  1.00  0.00    -0.388 OA
HETATM   31  C19 UNL     1      13.564  -3.924  53.249  1.00  0.00     0.198 C 
HETATM   32  C20 UNL     1      14.889  -3.766  52.535  1.00  0.00     0.299 C 
ENDBRANCH  26  27
ENDBRANCH  25  26
ENDBRANCH  23  24
ENDBRANCH  21  23
ENDBRANCH  11  21
ENDBRANCH   4   5
ENDBRANCH   1   4
TORSDOF 7
ENDMDL
MODEL 8
REMARK VINA RESULT:      -7.3      5.106      8.810
REMARK  7 active torsions:
REMARK  status: ('A' for Active; 'I' for Inactive)
REMARK    1  A    between atoms: C4_5  and  O1_6 
REMARK    2  A    between atoms: O1_6  and  C5_7 
REMARK    3  A    between atoms: C12_18  and  N4_19 
REMARK    4  A    between atoms: N4_19  and  C13_20 
REMARK    5  A    between atoms: C13_20  and  C14_21 
REMARK    6  A    between atoms: C15_22  and  C16_23 
REMARK    7  A    between atoms: C16_23  and  N5_24 
ROOT
HETATM    1  C5  UNL     1      20.620   0.744  53.633  1.00  0.00     0.156 C 
HETATM    2  C6  UNL     1      21.346  -0.227  54.190  1.00  0.00     0.242 C 
HETATM    3 CL1  UNL     1      22.338  -1.412  55.020  1.00  0.00    -0.228 Cl
ENDROOT
BRANCH   1   4
HETATM    4  O1  UNL     1      19.894   0.502  52.456  1.00  0.00    -0.305 OA
BRANCH   4   5
HETATM    5  C4  UNL     1      19.247   1.659  51.939  1.00  0.00     0.147 C 
HETATM    6  C3  UNL     1      20.448   2.160  51.717  1.00  0.00     0.059 C 
HETATM    7  C2  UNL     1      20.906   3.449  51.142  1.00  0.00     0.042 C 
HETATM    8  C1  UNL     1      21.566   4.525  50.664  1.00  0.00     0.099 C 
HETATM    9  F1  UNL     1      21.242   5.753  50.112  1.00  0.00    -0.210 F 
HETATM   10  C21 UNL     1      23.039   4.630  50.680  1.00  0.00     0.126 C 
HETATM   11  C12 UNL     1      23.596   4.691  49.289  1.00  0.00     0.009 C 
HETATM   12  C11 UNL     1      23.097   4.444  48.060  1.00  0.00     0.009 C 
HETATM   13  C10 UNL     1      21.724   3.893  48.246  1.00  0.00     0.063 C 
HETATM   14  C9  UNL     1      20.746   3.463  47.412  1.00  0.00     0.100 C 
HETATM   15  N3  UNL     1      19.653   3.041  48.170  1.00  0.00    -0.257 NA
HETATM   16  C8  UNL     1      18.416   3.294  48.089  1.00  0.00     0.233 C 
HETATM   17  N2  UNL     1      18.576   2.394  49.216  1.00  0.00    -0.237 NA
HETATM   18  C7  UNL     1      18.124   2.775  50.328  1.00  0.00     0.210 C 
HETATM   19  N1  UNL     1      18.020   2.336  51.635  1.00  0.00    -0.331 N 
HETATM   20  H5  UNL     1      17.962   2.009  52.584  1.00  0.00     0.168 HD
BRANCH  11  21
HETATM   21  N4  UNL     1      24.927   5.226  49.437  1.00  0.00    -0.383 N 
HETATM   22  H11 UNL     1      25.071   6.258  49.680  1.00  0.00     0.160 HD
BRANCH  21  23
HETATM   23  C13 UNL     1      26.262   4.648  49.342  1.00  0.00     0.214 C 
BRANCH  23  24
HETATM   24  C14 UNL     1      26.444   3.470  50.183  1.00  0.00    -0.085 C 
HETATM   25  C15 UNL     1      26.574   2.488  50.889  1.00  0.00    -0.075 C 
BRANCH  25  26
HETATM   26  C16 UNL     1      26.709   1.299  51.734  1.00  0.00     0.366 C 
BRANCH  26  27
HETATM   27  N5  UNL     1      27.207   1.724  53.030  1.00  0.00     0.103 N 
HETATM   28  C17 UNL     1      28.486   1.119  53.292  1.00  0.00     0.299 C 
HETATM   29  C18 UNL     1      28.395  -0.210  53.969  1.00  0.00     0.198 C 
HETATM   30  O2  UNL     1      27.546  -0.142  55.071  1.00  0.00    -0.388 OA
HETATM   31  C19 UNL     1      26.256   0.050  54.572  1.00  0.00     0.198 C 
HETATM   32  C20 UNL     1      26.215   1.464  54.033  1.00  0.00     0.299 C 
ENDBRANCH  26  27
ENDBRANCH  25  26
ENDBRANCH  23  24
ENDBRANCH  21  23
ENDBRANCH  11  21
ENDBRANCH   4   5
ENDBRANCH   1   4
TORSDOF 7
ENDMDL
MODEL 9
REMARK VINA RESULT:      -7.2      2.318      2.466
REMARK  7 active torsions:
REMARK  status: ('A' for Active; 'I' for Inactive)
REMARK    1  A    between atoms: C4_5  and  O1_6 
REMARK    2  A    between atoms: O1_6  and  C5_7 
REMARK    3  A    between atoms: C12_18  and  N4_19 
REMARK    4  A    between atoms: N4_19  and  C13_20 
REMARK    5  A    between atoms: C13_20  and  C14_21 
REMARK    6  A    between atoms: C15_22  and  C16_23 
REMARK    7  A    between atoms: C16_23  and  N5_24 
ROOT
HETATM    1  C5  UNL     1      31.881   8.324  47.855  1.00  0.00     0.156 C 
HETATM    2  C6  UNL     1      31.530   9.596  48.050  1.00  0.00     0.242 C 
HETATM    3 CL1  UNL     1      31.203  11.303  48.291  1.00  0.00    -0.228 Cl
ENDROOT
BRANCH   1   4
HETATM    4  O1  UNL     1      30.915   7.306  47.899  1.00  0.00    -0.305 OA
BRANCH   4   5
HETATM    5  C4  UNL     1      29.815   7.527  47.025  1.00  0.00     0.147 C 
HETATM    6  C3  UNL     1      29.036   7.055  47.980  1.00  0.00     0.059 C 
HETATM    7  C2  UNL     1      27.568   6.850  48.069  1.00  0.00     0.042 C 
HETATM    8  C1  UNL     1      26.289   6.572  48.392  1.00  0.00     0.099 C 
HETATM    9  F1  UNL     1      25.044   6.670  47.792  1.00  0.00    -0.210 F 
HETATM   10  C21 UNL     1      25.906   5.955  49.678  1.00  0.00     0.126 C 
HETATM   11  C12 UNL     1      25.053   6.879  50.494  1.00  0.00     0.009 C 
HETATM   12  C11 UNL     1      24.757   8.194  50.430  1.00  0.00     0.009 C 
HETATM   13  C10 UNL     1      25.596   8.781  49.346  1.00  0.00     0.063 C 
HETATM   14  C9  UNL     1      25.747  10.021  48.820  1.00  0.00     0.100 C 
HETATM   15  N3  UNL     1      26.702   9.972  47.804  1.00  0.00    -0.257 NA
HETATM   16  C8  UNL     1      26.701  10.412  46.617  1.00  0.00     0.233 C 
HETATM   17  N2  UNL     1      27.986   9.766  46.813  1.00  0.00    -0.237 NA
HETATM   18  C7  UNL     1      28.306   8.859  46.000  1.00  0.00     0.210 C 
HETATM   19  N1  UNL     1      29.343   7.981  45.749  1.00  0.00    -0.331 N 
HETATM   20  H5  UNL     1      30.100   7.339  45.585  1.00  0.00     0.168 HD
BRANCH  11  21
HETATM   21  N4  UNL     1      24.402   6.037  51.466  1.00  0.00    -0.383 N 
HETATM   22  H11 UNL     1      24.512   6.233  52.512  1.00  0.00     0.160 HD
BRANCH  21  23
HETATM   23  C13 UNL     1      23.529   4.873  51.369  1.00  0.00     0.214 C 
BRANCH  23  24
HETATM   24  C14 UNL     1      24.079   3.683  52.008  1.00  0.00    -0.085 C 
HETATM   25  C15 UNL     1      24.518   2.683  52.547  1.00  0.00    -0.075 C 
BRANCH  25  26
HETATM   26  C16 UNL     1      25.025   1.469  53.189  1.00  0.00     0.366 C 
BRANCH  26  27
HETATM   27  N5  UNL     1      26.400   1.277  52.761  1.00  0.00     0.103 N 
HETATM   28  C17 UNL     1      26.532   0.022  52.071  1.00  0.00     0.299 C 
HETATM   29  C18 UNL     1      26.846  -1.129  52.970  1.00  0.00     0.198 C 
HETATM   30  O2  UNL     1      27.906  -0.816  53.817  1.00  0.00    -0.388 OA
HETATM   31  C19 UNL     1      27.438   0.160  54.700  1.00  0.00     0.198 C 
HETATM   32  C20 UNL     1      27.277   1.426  53.886  1.00  0.00     0.299 C 
ENDBRANCH  26  27
ENDBRANCH  25  26
ENDBRANCH  23  24
ENDBRANCH  21  23
ENDBRANCH  11  21
ENDBRANCH   4   5
ENDBRANCH   1   4
TORSDOF 7
ENDMDL
