MODEL 1
REMARK VINA RESULT:      -8.7      0.000      0.000
REMARK  6 active torsions:
REMARK  status: ('A' for Active; 'I' for Inactive)
REMARK    1  A    between atoms: C3_3  and  C4_4 
REMARK    2  A    between atoms: C8_8  and  C9_9 
REMARK    3  A    between atoms: C9_9  and  C10_10 
REMARK    4  A    between atoms: C9_9  and  C11_12 
REMARK    5  A    between atoms: C14_15  and  S1_16 
REMARK    6  A    between atoms: C20_23  and  O3_24 
ROOT
HETATM    1  C4  UNL     1      26.032   0.566  53.033  1.00  0.00    -0.024 A 
HETATM    2  C5  UNL     1      26.338   1.759  53.677  1.00  0.00     0.012 A 
HETATM    3  C6  UNL     1      25.422   2.813  53.622  1.00  0.00     0.002 A 
HETATM    4  C7  UNL     1      24.217   2.678  52.937  1.00  0.00     0.012 A 
HETATM    5  C8  UNL     1      23.896   1.512  52.297  1.00  0.00    -0.020 A 
HETATM    6  C18 UNL     1      24.832   0.504  52.379  1.00  0.00     0.024 A 
ENDROOT
BRANCH   5   7
HETATM    7  C9  UNL     1      22.672   1.315  51.575  1.00  0.00     0.039 C 
BRANCH   7   8
HETATM    8  C10 UNL     1      22.563   1.749  50.342  1.00  0.00     0.234 C 
HETATM    9  O1  UNL     1      22.719   2.155  49.171  1.00  0.00    -0.283 OA
ENDBRANCH   7   8
BRANCH   7  10
HETATM   10  C11 UNL     1      21.498   0.662  52.081  1.00  0.00    -0.021 A 
HETATM   11  C12 UNL     1      21.336   0.070  53.314  1.00  0.00     0.014 A 
HETATM   12  C13 UNL     1      20.158  -0.537  53.712  1.00  0.00     0.022 A 
HETATM   13  C14 UNL     1      19.056  -0.580  52.866  1.00  0.00     0.031 A 
HETATM   14  C16 UNL     1      19.191   0.005  51.626  1.00  0.00     0.022 A 
HETATM   15  C17 UNL     1      20.374   0.605  51.252  1.00  0.00     0.014 A 
BRANCH  13  16
HETATM   16  S1  UNL     1      17.506  -1.308  53.221  1.00  0.00     0.045 S 
HETATM   17  C15 UNL     1      16.282  -1.063  51.938  1.00  0.00     0.133 C 
HETATM   18  O2  UNL     1      17.694  -2.780  53.501  1.00  0.00    -0.253 OA
ENDBRANCH  13  16
ENDBRANCH   7  10
ENDBRANCH   5   7
BRANCH   1  19
HETATM   19  C3  UNL     1      26.915  -0.611  53.018  1.00  0.00    -0.015 A 
HETATM   20  C2  UNL     1      28.180  -0.933  53.317  1.00  0.00    -0.018 A 
HETATM   21  C1  UNL     1      29.393  -0.262  53.833  1.00  0.00     0.052 C 
HETATM   22  C20 UNL     1      27.921  -2.330  52.913  1.00  0.00     0.073 A 
HETATM   23  C19 UNL     1      26.660  -1.983  52.622  1.00  0.00     0.050 A 
BRANCH  22  24
HETATM   24  O3  UNL     1      28.686  -3.504  52.865  1.00  0.00    -0.360 OA
HETATM   25  H16 UNL     1      29.151  -3.705  51.994  1.00  0.00     0.217 HD
ENDBRANCH  22  24
ENDBRANCH   1  19
TORSDOF 6
ENDMDL
MODEL 2
REMARK VINA RESULT:      -8.4      2.061      2.663
REMARK  6 active torsions:
REMARK  status: ('A' for Active; 'I' for Inactive)
REMARK    1  A    between atoms: C3_3  and  C4_4 
REMARK    2  A    between atoms: C8_8  and  C9_9 
REMARK    3  A    between atoms: C9_9  and  C10_10 
REMARK    4  A    between atoms: C9_9  and  C11_12 
REMARK    5  A    between atoms: C14_15  and  S1_16 
REMARK    6  A    between atoms: C20_23  and  O3_24 
ROOT
HETATM    1  C4  UNL     1      25.566   0.209  52.835  1.00  0.00    -0.024 A 
HETATM    2  C5  UNL     1      25.669   1.540  52.449  1.00  0.00     0.012 A 
HETATM    3  C6  UNL     1      24.506   2.309  52.352  1.00  0.00     0.002 A 
HETATM    4  C7  UNL     1      23.260   1.760  52.639  1.00  0.00     0.012 A 
HETATM    5  C8  UNL     1      23.136   0.452  53.022  1.00  0.00    -0.020 A 
HETATM    6  C18 UNL     1      24.311  -0.265  53.101  1.00  0.00     0.024 A 
ENDROOT
BRANCH   5   7
HETATM    7  C9  UNL     1      21.880  -0.168  53.328  1.00  0.00     0.039 C 
BRANCH   7   8
HETATM    8  C10 UNL     1      21.767  -0.924  54.395  1.00  0.00     0.234 C 
HETATM    9  O1  UNL     1      21.803  -1.810  55.274  1.00  0.00    -0.283 OA
ENDBRANCH   7   8
BRANCH   7  10
HETATM   10  C11 UNL     1      20.675  -0.046  52.557  1.00  0.00    -0.021 A 
HETATM   11  C12 UNL     1      20.543   0.471  51.287  1.00  0.00     0.014 A 
HETATM   12  C13 UNL     1      19.332   0.547  50.624  1.00  0.00     0.022 A 
HETATM   13  C14 UNL     1      18.161   0.094  51.222  1.00  0.00     0.031 A 
HETATM   14  C16 UNL     1      18.264  -0.427  52.493  1.00  0.00     0.022 A 
HETATM   15  C17 UNL     1      19.482  -0.493  53.134  1.00  0.00     0.014 A 
BRANCH  13  16
HETATM   16  S1  UNL     1      16.561   0.123  50.516  1.00  0.00     0.045 S 
HETATM   17  C15 UNL     1      15.931   1.774  50.223  1.00  0.00     0.133 C 
HETATM   18  O2  UNL     1      16.560  -0.679  49.237  1.00  0.00    -0.253 OA
ENDBRANCH  13  16
ENDBRANCH   7  10
ENDBRANCH   5   7
BRANCH   1  19
HETATM   19  C3  UNL     1      26.715  -0.699  52.972  1.00  0.00    -0.015 A 
HETATM   20  C2  UNL     1      27.973  -0.681  53.431  1.00  0.00    -0.018 A 
HETATM   21  C1  UNL     1      28.900   0.285  54.061  1.00  0.00     0.052 C 
HETATM   22  C20 UNL     1      28.133  -2.099  53.055  1.00  0.00     0.073 A 
HETATM   23  C19 UNL     1      26.871  -2.094  52.602  1.00  0.00     0.050 A 
BRANCH  22  24
HETATM   24  O3  UNL     1      29.173  -3.036  53.144  1.00  0.00    -0.360 OA
HETATM   25  H16 UNL     1      29.555  -3.371  52.274  1.00  0.00     0.217 HD
ENDBRANCH  22  24
ENDBRANCH   1  19
TORSDOF 6
ENDMDL
MODEL 3
REMARK VINA RESULT:      -8.2      3.089      8.264
REMARK  6 active torsions:
REMARK  status: ('A' for Active; 'I' for Inactive)
REMARK    1  A    between atoms: C3_3  and  C4_4 
REMARK    2  A    between atoms: C8_8  and  C9_9 
REMARK    3  A    between atoms: C9_9  and  C10_10 
REMARK    4  A    between atoms: C9_9  and  C11_12 
REMARK    5  A    between atoms: C14_15  and  S1_16 
REMARK    6  A    between atoms: C20_23  and  O3_24 
ROOT
HETATM    1  C4  UNL     1      19.836  -0.055  52.320  1.00  0.00    -0.024 A 
HETATM    2  C5  UNL     1      19.746  -0.637  53.579  1.00  0.00     0.012 A 
HETATM    3  C6  UNL     1      20.879  -0.660  54.397  1.00  0.00     0.002 A 
HETATM    4  C7  UNL     1      22.083  -0.109  53.967  1.00  0.00     0.012 A 
HETATM    5  C8  UNL     1      22.193   0.470  52.732  1.00  0.00    -0.020 A 
HETATM    6  C18 UNL     1      21.049   0.466  51.962  1.00  0.00     0.024 A 
ENDROOT
BRANCH   5   7
HETATM    7  C9  UNL     1      23.405   1.052  52.235  1.00  0.00     0.039 C 
BRANCH   7   8
HETATM    8  C10 UNL     1      23.364   1.878  51.217  1.00  0.00     0.234 C 
HETATM    9  O1  UNL     1      23.568   2.585  50.208  1.00  0.00    -0.283 OA
ENDBRANCH   7   8
BRANCH   7  10
HETATM   10  C11 UNL     1      24.722   0.817  52.756  1.00  0.00    -0.021 A 
HETATM   11  C12 UNL     1      25.407  -0.378  52.792  1.00  0.00     0.014 A 
HETATM   12  C13 UNL     1      26.680  -0.504  53.318  1.00  0.00     0.022 A 
HETATM   13  C14 UNL     1      27.345   0.596  53.849  1.00  0.00     0.031 A 
HETATM   14  C16 UNL     1      26.683   1.804  53.827  1.00  0.00     0.022 A 
HETATM   15  C17 UNL     1      25.414   1.905  53.296  1.00  0.00     0.014 A 
BRANCH  13  16
HETATM   16  S1  UNL     1      28.949   0.598  54.548  1.00  0.00     0.045 S 
HETATM   17  C15 UNL     1      30.158  -0.303  53.583  1.00  0.00     0.133 C 
HETATM   18  O2  UNL     1      29.400   2.022  54.768  1.00  0.00    -0.253 OA
ENDBRANCH  13  16
ENDBRANCH   7  10
ENDBRANCH   5   7
BRANCH   1  19
HETATM   19  C3  UNL     1      18.716   0.028  51.370  1.00  0.00    -0.015 A 
HETATM   20  C2  UNL     1      17.444  -0.378  51.265  1.00  0.00    -0.018 A 
HETATM   21  C1  UNL     1      16.464  -1.145  52.065  1.00  0.00     0.052 C 
HETATM   22  C20 UNL     1      17.345   0.268  49.941  1.00  0.00     0.073 A 
HETATM   23  C19 UNL     1      18.620   0.664  50.069  1.00  0.00     0.050 A 
BRANCH  22  24
HETATM   24  O3  UNL     1      16.337   0.401  48.976  1.00  0.00    -0.360 OA
HETATM   25  H16 UNL     1      16.604   0.811  48.096  1.00  0.00     0.217 HD
ENDBRANCH  22  24
ENDBRANCH   1  19
TORSDOF 6
ENDMDL
MODEL 4
REMARK VINA RESULT:      -8.2      4.991      7.922
REMARK  6 active torsions:
REMARK  status: ('A' for Active; 'I' for Inactive)
REMARK    1  A    between atoms: C3_3  and  C4_4 
REMARK    2  A    between atoms: C8_8  and  C9_9 
REMARK    3  A    between atoms: C9_9  and  C10_10 
REMARK    4  A    between atoms: C9_9  and  C11_12 
REMARK    5  A    between atoms: C14_15  and  S1_16 
REMARK    6  A    between atoms: C20_23  and  O3_24 
ROOT
HETATM    1  C4  UNL     1      24.503   0.722  52.481  1.00  0.00    -0.024 A 
HETATM    2  C5  UNL     1      25.835   0.447  52.766  1.00  0.00     0.012 A 
HETATM    3  C6  UNL     1      26.833   1.172  52.111  1.00  0.00     0.002 A 
HETATM    4  C7  UNL     1      26.508   2.160  51.185  1.00  0.00     0.012 A 
HETATM    5  C8  UNL     1      25.204   2.448  50.889  1.00  0.00    -0.020 A 
HETATM    6  C18 UNL     1      24.256   1.704  51.561  1.00  0.00     0.024 A 
ENDROOT
BRANCH   5   7
HETATM    7  C9  UNL     1      24.808   3.452  49.944  1.00  0.00     0.039 C 
BRANCH   7   8
HETATM    8  C10 UNL     1      23.723   3.283  49.227  1.00  0.00     0.234 C 
HETATM    9  O1  UNL     1      22.811   3.275  48.373  1.00  0.00    -0.283 OA
ENDBRANCH   7   8
BRANCH   7  10
HETATM   10  C11 UNL     1      25.504   4.681  49.688  1.00  0.00    -0.021 A 
HETATM   11  C12 UNL     1      26.626   4.860  48.909  1.00  0.00     0.014 A 
HETATM   12  C13 UNL     1      27.227   6.092  48.721  1.00  0.00     0.022 A 
HETATM   13  C14 UNL     1      26.716   7.235  49.326  1.00  0.00     0.031 A 
HETATM   14  C16 UNL     1      25.595   7.084  50.112  1.00  0.00     0.022 A 
HETATM   15  C17 UNL     1      25.012   5.846  50.283  1.00  0.00     0.014 A 
BRANCH  13  16
HETATM   16  S1  UNL     1      27.361   8.855  49.189  1.00  0.00     0.045 S 
HETATM   17  C15 UNL     1      26.641   9.807  47.854  1.00  0.00     0.133 C 
HETATM   18  O2  UNL     1      27.195   9.577  50.505  1.00  0.00    -0.253 OA
ENDBRANCH  13  16
ENDBRANCH   7  10
ENDBRANCH   5   7
BRANCH   1  19
HETATM   19  C3  UNL     1      23.367   0.027  53.104  1.00  0.00    -0.015 A 
HETATM   20  C2  UNL     1      22.065  -0.193  52.878  1.00  0.00    -0.018 A 
HETATM   21  C1  UNL     1      21.053   0.153  51.856  1.00  0.00     0.052 C 
HETATM   22  C20 UNL     1      21.980  -0.980  54.124  1.00  0.00     0.073 A 
HETATM   23  C19 UNL     1      23.284  -0.747  54.329  1.00  0.00     0.050 A 
BRANCH  22  24
HETATM   24  O3  UNL     1      20.958  -1.671  54.790  1.00  0.00    -0.360 OA
HETATM   25  H16 UNL     1      20.208  -1.114  55.168  1.00  0.00     0.217 HD
ENDBRANCH  22  24
ENDBRANCH   1  19
TORSDOF 6
ENDMDL
MODEL 5
REMARK VINA RESULT:      -8.2      4.654      7.088
REMARK  6 active torsions:
REMARK  status: ('A' for Active; 'I' for Inactive)
REMARK    1  A    between atoms: C3_3  and  C4_4 
REMARK    2  A    between atoms: C8_8  and  C9_9 
REMARK    3  A    between atoms: C9_9  and  C10_10 
REMARK    4  A    between atoms: C9_9  and  C11_12 
REMARK    5  A    between atoms: C14_15  and  S1_16 
REMARK    6  A    between atoms: C20_23  and  O3_24 
ROOT
HETATM    1  C4  UNL     1      25.653   0.811  52.655  1.00  0.00    -0.024 A 
HETATM    2  C5  UNL     1      24.521   0.439  53.370  1.00  0.00     0.012 A 
HETATM    3  C6  UNL     1      23.269   0.890  52.942  1.00  0.00     0.002 A 
HETATM    4  C7  UNL     1      23.149   1.699  51.814  1.00  0.00     0.012 A 
HETATM    5  C8  UNL     1      24.249   2.076  51.095  1.00  0.00    -0.020 A 
HETATM    6  C18 UNL     1      25.460   1.607  51.559  1.00  0.00     0.024 A 
ENDROOT
BRANCH   5   7
HETATM    7  C9  UNL     1      24.187   2.907  49.928  1.00  0.00     0.039 C 
BRANCH   7   8
HETATM    8  C10 UNL     1      23.141   2.849  49.139  1.00  0.00     0.234 C 
HETATM    9  O1  UNL     1      22.322   2.791  48.198  1.00  0.00    -0.283 OA
ENDBRANCH   7   8
BRANCH   7  10
HETATM   10  C11 UNL     1      25.194   3.842  49.511  1.00  0.00    -0.021 A 
HETATM   11  C12 UNL     1      26.537   3.596  49.324  1.00  0.00     0.014 A 
HETATM   12  C13 UNL     1      27.433   4.568  48.918  1.00  0.00     0.022 A 
HETATM   13  C14 UNL     1      27.012   5.871  48.675  1.00  0.00     0.031 A 
HETATM   14  C16 UNL     1      25.674   6.145  48.856  1.00  0.00     0.022 A 
HETATM   15  C17 UNL     1      24.799   5.159  49.260  1.00  0.00     0.014 A 
BRANCH  13  16
HETATM   16  S1  UNL     1      28.019   7.206  48.161  1.00  0.00     0.045 S 
HETATM   17  C15 UNL     1      27.709   8.729  49.050  1.00  0.00     0.133 C 
HETATM   18  O2  UNL     1      29.473   6.812  48.275  1.00  0.00    -0.253 OA
ENDBRANCH  13  16
ENDBRANCH   7  10
ENDBRANCH   5   7
BRANCH   1  19
HETATM   19  C3  UNL     1      27.021   0.401  53.007  1.00  0.00    -0.015 A 
HETATM   20  C2  UNL     1      28.179   0.956  53.388  1.00  0.00    -0.018 A 
HETATM   21  C1  UNL     1      28.712   2.308  53.664  1.00  0.00     0.052 C 
HETATM   22  C20 UNL     1      28.803  -0.381  53.444  1.00  0.00     0.073 A 
HETATM   23  C19 UNL     1      27.633  -0.913  53.062  1.00  0.00     0.050 A 
BRANCH  22  24
HETATM   24  O3  UNL     1      30.079  -0.865  53.764  1.00  0.00    -0.360 OA
HETATM   25  H16 UNL     1      30.187  -1.287  54.673  1.00  0.00     0.217 HD
ENDBRANCH  22  24
ENDBRANCH   1  19
TORSDOF 6
ENDMDL
MODEL 6
REMARK VINA RESULT:      -8.2      3.374      7.672
REMARK  6 active torsions:
REMARK  status: ('A' for Active; 'I' for Inactive)
REMARK    1  A    between atoms: C3_3  and  C4_4 
REMARK    2  A    between atoms: C8_8  and  C9_9 
REMARK    3  A    between atoms: C9_9  and  C10_10 
REMARK    4  A    between atoms: C9_9  and  C11_12 
REMARK    5  A    between atoms: C14_15  and  S1_16 
REMARK    6  A    between atoms: C20_23  and  O3_24 
ROOT
HETATM    1  C4  UNL     1      21.050  -0.207  52.720  1.00  0.00    -0.024 A 
HETATM    2  C5  UNL     1      20.637  -0.961  53.812  1.00  0.00     0.012 A 
HETATM    3  C6  UNL     1      21.574  -1.309  54.789  1.00  0.00     0.002 A 
HETATM    4  C7  UNL     1      22.903  -0.908  54.680  1.00  0.00     0.012 A 
HETATM    5  C8  UNL     1      23.331  -0.165  53.614  1.00  0.00    -0.020 A 
HETATM    6  C18 UNL     1      22.370   0.151  52.677  1.00  0.00     0.024 A 
ENDROOT
BRANCH   5   7
HETATM    7  C9  UNL     1      24.685   0.275  53.447  1.00  0.00     0.039 C 
BRANCH   7   8
HETATM    8  C10 UNL     1      25.625  -0.189  54.234  1.00  0.00     0.234 C 
HETATM    9  O1  UNL     1      26.369  -0.541  55.174  1.00  0.00    -0.283 OA
ENDBRANCH   7   8
BRANCH   7  10
HETATM   10  C11 UNL     1      25.145   1.214  52.462  1.00  0.00    -0.021 A 
HETATM   11  C12 UNL     1      26.361   1.218  51.814  1.00  0.00     0.014 A 
HETATM   12  C13 UNL     1      26.714   2.171  50.876  1.00  0.00     0.022 A 
HETATM   13  C14 UNL     1      25.836   3.195  50.533  1.00  0.00     0.031 A 
HETATM   14  C16 UNL     1      24.614   3.214  51.167  1.00  0.00     0.022 A 
HETATM   15  C17 UNL     1      24.284   2.253  52.099  1.00  0.00     0.014 A 
BRANCH  13  16
HETATM   16  S1  UNL     1      26.135   4.468  49.372  1.00  0.00     0.045 S 
HETATM   17  C15 UNL     1      25.644   6.093  49.941  1.00  0.00     0.133 C 
HETATM   18  O2  UNL     1      27.594   4.461  48.982  1.00  0.00    -0.253 OA
ENDBRANCH  13  16
ENDBRANCH   7  10
ENDBRANCH   5   7
BRANCH   1  19
HETATM   19  C3  UNL     1      20.159   0.218  51.630  1.00  0.00    -0.015 A 
HETATM   20  C2  UNL     1      20.242   0.729  50.394  1.00  0.00    -0.018 A 
HETATM   21  C1  UNL     1      21.297   1.147  49.445  1.00  0.00     0.052 C 
HETATM   22  C20 UNL     1      18.769   0.731  50.295  1.00  0.00     0.073 A 
HETATM   23  C19 UNL     1      18.711   0.220  51.533  1.00  0.00     0.050 A 
BRANCH  22  24
HETATM   24  O3  UNL     1      17.843   1.110  49.313  1.00  0.00    -0.360 OA
HETATM   25  H16 UNL     1      17.121   1.754  49.596  1.00  0.00     0.217 HD
ENDBRANCH  22  24
ENDBRANCH   1  19
TORSDOF 6
ENDMDL
MODEL 7
REMARK VINA RESULT:      -8.0      4.337      7.556
REMARK  6 active torsions:
REMARK  status: ('A' for Active; 'I' for Inactive)
REMARK    1  A    between atoms: C3_3  and  C4_4 
REMARK    2  A    between atoms: C8_8  and  C9_9 
REMARK    3  A    between atoms: C9_9  and  C10_10 
REMARK    4  A    between atoms: C9_9  and  C11_12 
REMARK    5  A    between atoms: C14_15  and  S1_16 
REMARK    6  A    between atoms: C20_23  and  O3_24 
ROOT
HETATM    1  C4  UNL     1      24.528   4.295  49.160  1.00  0.00    -0.024 A 
HETATM    2  C5  UNL     1      23.325   4.484  48.491  1.00  0.00     0.012 A 
HETATM    3  C6  UNL     1      22.221   3.703  48.845  1.00  0.00     0.002 A 
HETATM    4  C7  UNL     1      22.316   2.749  49.854  1.00  0.00     0.012 A 
HETATM    5  C8  UNL     1      23.490   2.546  50.526  1.00  0.00    -0.020 A 
HETATM    6  C18 UNL     1      24.549   3.340  50.140  1.00  0.00     0.024 A 
ENDROOT
BRANCH   5   7
HETATM    7  C9  UNL     1      23.648   1.578  51.572  1.00  0.00     0.039 C 
BRANCH   7   8
HETATM    8  C10 UNL     1      22.666   0.755  51.856  1.00  0.00     0.234 C 
HETATM    9  O1  UNL     1      21.607   0.188  52.197  1.00  0.00    -0.283 OA
ENDBRANCH   7   8
BRANCH   7  10
HETATM   10  C11 UNL     1      24.821   1.403  52.381  1.00  0.00    -0.021 A 
HETATM   11  C12 UNL     1      25.267   2.221  53.396  1.00  0.00     0.014 A 
HETATM   12  C13 UNL     1      26.416   1.966  54.122  1.00  0.00     0.022 A 
HETATM   13  C14 UNL     1      27.195   0.846  53.855  1.00  0.00     0.031 A 
HETATM   14  C16 UNL     1      26.773   0.011  52.845  1.00  0.00     0.022 A 
HETATM   15  C17 UNL     1      25.623   0.285  52.135  1.00  0.00     0.014 A 
BRANCH  13  16
HETATM   16  S1  UNL     1      28.669   0.390  54.680  1.00  0.00     0.045 S 
HETATM   17  C15 UNL     1      29.769  -0.616  53.689  1.00  0.00     0.133 C 
HETATM   18  O2  UNL     1      29.379   1.632  55.166  1.00  0.00    -0.253 OA
ENDBRANCH  13  16
ENDBRANCH   7  10
ENDBRANCH   5   7
BRANCH   1  19
HETATM   19  C3  UNL     1      25.756   5.053  48.877  1.00  0.00    -0.015 A 
HETATM   20  C2  UNL     1      26.122   6.287  48.505  1.00  0.00    -0.018 A 
HETATM   21  C1  UNL     1      25.473   7.574  48.173  1.00  0.00     0.052 C 
HETATM   22  C20 UNL     1      27.541   5.879  48.544  1.00  0.00     0.073 A 
HETATM   23  C19 UNL     1      27.150   4.652  48.916  1.00  0.00     0.050 A 
BRANCH  22  24
HETATM   24  O3  UNL     1      28.762   6.520  48.295  1.00  0.00    -0.360 OA
HETATM   25  H16 UNL     1      29.257   6.242  47.462  1.00  0.00     0.217 HD
ENDBRANCH  22  24
ENDBRANCH   1  19
TORSDOF 6
ENDMDL
MODEL 8
REMARK VINA RESULT:      -8.0      3.620      5.896
REMARK  6 active torsions:
REMARK  status: ('A' for Active; 'I' for Inactive)
REMARK    1  A    between atoms: C3_3  and  C4_4 
REMARK    2  A    between atoms: C8_8  and  C9_9 
REMARK    3  A    between atoms: C9_9  and  C10_10 
REMARK    4  A    between atoms: C9_9  and  C11_12 
REMARK    5  A    between atoms: C14_15  and  S1_16 
REMARK    6  A    between atoms: C20_23  and  O3_24 
ROOT
HETATM    1  C4  UNL     1      24.201  -0.104  53.798  1.00  0.00    -0.024 A 
HETATM    2  C5  UNL     1      23.309  -1.017  54.347  1.00  0.00     0.012 A 
HETATM    3  C6  UNL     1      21.936  -0.791  54.208  1.00  0.00     0.002 A 
HETATM    4  C7  UNL     1      21.462   0.329  53.530  1.00  0.00     0.012 A 
HETATM    5  C8  UNL     1      22.322   1.240  52.982  1.00  0.00    -0.020 A 
HETATM    6  C18 UNL     1      23.665   0.973  53.147  1.00  0.00     0.024 A 
ENDROOT
BRANCH   5   7
HETATM    7  C9  UNL     1      21.893   2.411  52.274  1.00  0.00     0.039 C 
BRANCH   7   8
HETATM    8  C10 UNL     1      20.644   2.804  52.359  1.00  0.00     0.234 C 
HETATM    9  O1  UNL     1      19.537   3.380  52.297  1.00  0.00    -0.283 OA
ENDBRANCH   7   8
BRANCH   7  10
HETATM   10  C11 UNL     1      22.722   3.239  51.445  1.00  0.00    -0.021 A 
HETATM   11  C12 UNL     1      23.141   2.981  50.158  1.00  0.00     0.014 A 
HETATM   12  C13 UNL     1      23.943   3.846  49.437  1.00  0.00     0.022 A 
HETATM   13  C14 UNL     1      24.376   5.047  49.990  1.00  0.00     0.031 A 
HETATM   14  C16 UNL     1      23.972   5.330  51.276  1.00  0.00     0.022 A 
HETATM   15  C17 UNL     1      23.171   4.452  51.975  1.00  0.00     0.014 A 
BRANCH  13  16
HETATM   16  S1  UNL     1      25.390   6.240  49.209  1.00  0.00     0.045 S 
HETATM   17  C15 UNL     1      24.584   7.101  47.862  1.00  0.00     0.133 C 
HETATM   18  O2  UNL     1      25.896   7.221  50.239  1.00  0.00    -0.253 OA
ENDBRANCH  13  16
ENDBRANCH   7  10
ENDBRANCH   5   7
BRANCH   1  19
HETATM   19  C3  UNL     1      25.664  -0.232  53.880  1.00  0.00    -0.015 A 
HETATM   20  C2  UNL     1      26.653  -0.939  53.316  1.00  0.00    -0.018 A 
HETATM   21  C1  UNL     1      26.804  -1.990  52.286  1.00  0.00     0.052 C 
HETATM   22  C20 UNL     1      27.639  -0.236  54.161  1.00  0.00     0.073 A 
HETATM   23  C19 UNL     1      26.633   0.459  54.710  1.00  0.00     0.050 A 
BRANCH  22  24
HETATM   24  O3  UNL     1      29.032  -0.288  54.308  1.00  0.00    -0.360 OA
HETATM   25  H16 UNL     1      29.537  -0.841  53.634  1.00  0.00     0.217 HD
ENDBRANCH  22  24
ENDBRANCH   1  19
TORSDOF 6
ENDMDL
MODEL 9
REMARK VINA RESULT:      -8.0      4.092      5.297
REMARK  6 active torsions:
REMARK  status: ('A' for Active; 'I' for Inactive)
REMARK    1  A    between atoms: C3_3  and  C4_4 
REMARK    2  A    between atoms: C8_8  and  C9_9 
REMARK    3  A    between atoms: C9_9  and  C10_10 
REMARK    4  A    between atoms: C9_9  and  C11_12 
REMARK    5  A    between atoms: C14_15  and  S1_16 
REMARK    6  A    between atoms: C20_23  and  O3_24 
ROOT
HETATM    1  C4  UNL     1      25.596   0.365  52.539  1.00  0.00    -0.024 A 
HETATM    2  C5  UNL     1      24.506   0.547  53.381  1.00  0.00     0.012 A 
HETATM    3  C6  UNL     1      23.626   1.604  53.132  1.00  0.00     0.002 A 
HETATM    4  C7  UNL     1      23.831   2.466  52.058  1.00  0.00     0.012 A 
HETATM    5  C8  UNL     1      24.898   2.305  51.217  1.00  0.00    -0.020 A 
HETATM    6  C18 UNL     1      25.736   1.249  51.505  1.00  0.00     0.024 A 
ENDROOT
BRANCH   5   7
HETATM    7  C9  UNL     1      25.160   3.161  50.097  1.00  0.00     0.039 C 
BRANCH   7   8
HETATM    8  C10 UNL     1      26.393   3.507  49.814  1.00  0.00     0.234 C 
HETATM    9  O1  UNL     1      27.455   4.029  49.412  1.00  0.00    -0.283 OA
ENDBRANCH   7   8
BRANCH   7  10
HETATM   10  C11 UNL     1      24.172   3.705  49.208  1.00  0.00    -0.021 A 
HETATM   11  C12 UNL     1      24.005   5.024  48.850  1.00  0.00     0.014 A 
HETATM   12  C13 UNL     1      23.018   5.453  47.981  1.00  0.00     0.022 A 
HETATM   13  C14 UNL     1      22.124   4.549  47.416  1.00  0.00     0.031 A 
HETATM   14  C16 UNL     1      22.267   3.223  47.758  1.00  0.00     0.022 A 
HETATM   15  C17 UNL     1      23.261   2.820  48.625  1.00  0.00     0.014 A 
BRANCH  13  16
HETATM   16  S1  UNL     1      20.826   4.934  46.308  1.00  0.00     0.045 S 
HETATM   17  C15 UNL     1      21.353   5.874  44.878  1.00  0.00     0.133 C 
HETATM   18  O2  UNL     1      20.136   3.661  45.880  1.00  0.00    -0.253 OA
ENDBRANCH  13  16
ENDBRANCH   7  10
ENDBRANCH   5   7
BRANCH   1  19
HETATM   19  C3  UNL     1      26.589  -0.709  52.699  1.00  0.00    -0.015 A 
HETATM   20  C2  UNL     1      27.820  -0.886  53.198  1.00  0.00    -0.018 A 
HETATM   21  C1  UNL     1      28.861  -0.077  53.869  1.00  0.00     0.052 C 
HETATM   22  C20 UNL     1      27.775  -2.309  52.808  1.00  0.00     0.073 A 
HETATM   23  C19 UNL     1      26.544  -2.108  52.316  1.00  0.00     0.050 A 
BRANCH  22  24
HETATM   24  O3  UNL     1      28.657  -3.393  52.917  1.00  0.00    -0.360 OA
HETATM   25  H16 UNL     1      29.224  -3.598  52.109  1.00  0.00     0.217 HD
ENDBRANCH  22  24
ENDBRANCH   1  19
TORSDOF 6
ENDMDL
