MODEL 1
REMARK VINA RESULT:      -7.7      0.000      0.000
REMARK  2 active torsions:
REMARK  status: ('A' for Active; 'I' for Inactive)
REMARK       I    between atoms: C1_2  and  N1_3 
REMARK       I    between atoms: C1_2  and  N3_16 
REMARK    1  A    between atoms: N1_3  and  C2_4 
REMARK    2  A    between atoms: N3_16  and  C12_17 
ROOT
HETATM    1  C2  UNL     1      25.256   2.063  51.742  1.00  0.00     0.026 C 
HETATM    2  C3  UNL     1      24.172   1.358  51.573  1.00  0.00    -0.005 C 
HETATM    3  C4  UNL     1      23.795   0.612  52.598  1.00  0.00    -0.003 C 
HETATM    4  C5  UNL     1      24.068   0.095  53.970  1.00  0.00     0.131 C 
HETATM    5  C6  UNL     1      25.518  -0.143  54.212  1.00  0.00     0.223 C 
HETATM    6  O2  UNL     1      25.667  -1.203  54.907  1.00  0.00    -0.273 OA
HETATM    7  N2  UNL     1      26.785   0.421  53.924  1.00  0.00    -0.347 N 
HETATM    8  C7  UNL     1      28.009  -0.299  54.241  1.00  0.00     0.126 C 
HETATM    9  C8  UNL     1      28.952   0.837  54.583  1.00  0.00     0.022 C 
HETATM   10  C9  UNL     1      28.623   1.824  53.454  1.00  0.00     0.027 C 
HETATM   11  C10 UNL     1      27.143   1.709  53.310  1.00  0.00     0.092 C 
HETATM   12  C11 UNL     1      26.698   1.709  51.855  1.00  0.00     0.083 C 
ENDROOT
BRANCH   1  13
HETATM   13  N1  UNL     1      25.005   3.461  51.838  1.00  0.00    -0.312 N 
HETATM   14  C1  UNL     1      25.190   4.276  50.708  1.00  0.00     0.323 C 
HETATM   15  O1  UNL     1      25.571   3.818  49.611  1.00  0.00    -0.247 OA
HETATM   16  N3  UNL     1      24.930   5.667  50.833  1.00  0.00    -0.298 N 
HETATM   17  H14 UNL     1      24.607   6.093  51.744  1.00  0.00     0.168 HD
HETATM   18  H1  UNL     1      24.686   3.849  52.752  1.00  0.00     0.170 HD
BRANCH  16  19
HETATM   19  C12 UNL     1      25.108   6.558  49.688  1.00  0.00     0.360 A 
HETATM   20  N4  UNL     1      24.157   7.597  49.643  1.00  0.00    -0.250 NA
HETATM   21  C13 UNL     1      24.478   8.824  49.542  1.00  0.00     0.117 A 
HETATM   22  C14 UNL     1      25.816   9.342  49.461  1.00  0.00     0.043 A 
HETATM   23  C15 UNL     1      26.698   8.368  49.503  1.00  0.00     0.141 A 
HETATM   24  O3  UNL     1      26.417   7.033  49.610  1.00  0.00    -0.318 OA
ENDBRANCH  16  19
ENDBRANCH   1  13
TORSDOF 2
ENDMDL
MODEL 2
REMARK VINA RESULT:      -7.6      3.486      7.518
REMARK  2 active torsions:
REMARK  status: ('A' for Active; 'I' for Inactive)
REMARK       I    between atoms: C1_2  and  N1_3 
REMARK       I    between atoms: C1_2  and  N3_16 
REMARK    1  A    between atoms: N1_3  and  C2_4 
REMARK    2  A    between atoms: N3_16  and  C12_17 
ROOT
HETATM    1  C2  UNL     1      22.794   1.387  51.940  1.00  0.00     0.026 C 
HETATM    2  C3  UNL     1      21.996   0.388  51.685  1.00  0.00    -0.005 C 
HETATM    3  C4  UNL     1      21.225   0.515  50.617  1.00  0.00    -0.003 C 
HETATM    4  C5  UNL     1      20.741   1.355  49.485  1.00  0.00     0.131 C 
HETATM    5  C6  UNL     1      20.632   2.795  49.847  1.00  0.00     0.223 C 
HETATM    6  O2  UNL     1      19.593   3.296  49.302  1.00  0.00    -0.273 OA
HETATM    7  N2  UNL     1      21.303   3.791  50.599  1.00  0.00    -0.347 N 
HETATM    8  C7  UNL     1      20.695   5.094  50.818  1.00  0.00     0.126 C 
HETATM    9  C8  UNL     1      21.912   5.998  50.846  1.00  0.00     0.022 C 
HETATM   10  C9  UNL     1      22.860   5.165  51.719  1.00  0.00     0.027 C 
HETATM   11  C10 UNL     1      22.614   3.766  51.265  1.00  0.00     0.092 C 
HETATM   12  C11 UNL     1      22.569   2.779  52.422  1.00  0.00     0.083 C 
ENDROOT
BRANCH   1  13
HETATM   13  N1  UNL     1      24.165   1.081  51.710  1.00  0.00    -0.312 N 
HETATM   14  C1  UNL     1      24.926   0.497  52.737  1.00  0.00     0.323 C 
HETATM   15  O1  UNL     1      24.442   0.233  53.857  1.00  0.00    -0.247 OA
HETATM   16  N3  UNL     1      26.291   0.201  52.478  1.00  0.00    -0.298 N 
HETATM   17  H14 UNL     1      26.738   0.410  51.543  1.00  0.00     0.168 HD
HETATM   18  H1  UNL     1      24.575   1.299  50.775  1.00  0.00     0.170 HD
BRANCH  16  19
HETATM   19  C12 UNL     1      27.125  -0.406  53.513  1.00  0.00     0.360 A 
HETATM   20  N4  UNL     1      27.707  -1.624  53.110  1.00  0.00    -0.250 NA
HETATM   21  C13 UNL     1      28.955  -1.855  53.191  1.00  0.00     0.117 A 
HETATM   22  C14 UNL     1      29.951  -0.946  53.688  1.00  0.00     0.043 A 
HETATM   23  C15 UNL     1      29.401   0.189  54.063  1.00  0.00     0.141 A 
HETATM   24  O3  UNL     1      28.070   0.497  54.001  1.00  0.00    -0.318 OA
ENDBRANCH  16  19
ENDBRANCH   1  13
TORSDOF 2
ENDMDL
MODEL 3
REMARK VINA RESULT:      -7.5      1.121      1.267
REMARK  2 active torsions:
REMARK  status: ('A' for Active; 'I' for Inactive)
REMARK       I    between atoms: C1_2  and  N1_3 
REMARK       I    between atoms: C1_2  and  N3_16 
REMARK    1  A    between atoms: N1_3  and  C2_4 
REMARK    2  A    between atoms: N3_16  and  C12_17 
ROOT
HETATM    1  C2  UNL     1      25.194   2.834  51.049  1.00  0.00     0.026 C 
HETATM    2  C3  UNL     1      24.021   2.397  50.684  1.00  0.00    -0.005 C 
HETATM    3  C4  UNL     1      23.352   1.701  51.587  1.00  0.00    -0.003 C 
HETATM    4  C5  UNL     1      23.310   1.063  52.935  1.00  0.00     0.131 C 
HETATM    5  C6  UNL     1      24.626   0.497  53.340  1.00  0.00     0.223 C 
HETATM    6  O2  UNL     1      24.447  -0.605  53.957  1.00  0.00    -0.273 OA
HETATM    7  N2  UNL     1      26.013   0.781  53.264  1.00  0.00    -0.347 N 
HETATM    8  C7  UNL     1      26.998  -0.208  53.673  1.00  0.00     0.126 C 
HETATM    9  C8  UNL     1      28.102   0.671  54.226  1.00  0.00     0.022 C 
HETATM   10  C9  UNL     1      28.154   1.765  53.150  1.00  0.00     0.027 C 
HETATM   11  C10 UNL     1      26.719   1.988  52.809  1.00  0.00     0.092 C 
HETATM   12  C11 UNL     1      26.497   2.164  51.315  1.00  0.00     0.083 C 
ENDROOT
BRANCH   1  13
HETATM   13  N1  UNL     1      25.234   4.246  51.227  1.00  0.00    -0.312 N 
HETATM   14  C1  UNL     1      25.602   5.070  50.150  1.00  0.00     0.323 C 
HETATM   15  O1  UNL     1      25.899   4.608  49.028  1.00  0.00    -0.247 OA
HETATM   16  N3  UNL     1      25.632   6.475  50.356  1.00  0.00    -0.298 N 
HETATM   17  H14 UNL     1      25.388   6.905  51.291  1.00  0.00     0.168 HD
HETATM   18  H1  UNL     1      24.987   4.638  52.162  1.00  0.00     0.170 HD
BRANCH  16  19
HETATM   19  C12 UNL     1      26.009   7.375  49.268  1.00  0.00     0.360 A 
HETATM   20  N4  UNL     1      25.336   8.612  49.316  1.00  0.00    -0.250 NA
HETATM   21  C13 UNL     1      25.942   9.730  49.288  1.00  0.00     0.117 A 
HETATM   22  C14 UNL     1      27.364   9.918  49.206  1.00  0.00     0.043 A 
HETATM   23  C15 UNL     1      27.986   8.759  49.162  1.00  0.00     0.141 A 
HETATM   24  O3  UNL     1      27.393   7.527  49.188  1.00  0.00    -0.318 OA
ENDBRANCH  16  19
ENDBRANCH   1  13
TORSDOF 2
ENDMDL
MODEL 4
REMARK VINA RESULT:      -7.3      2.416      7.558
REMARK  2 active torsions:
REMARK  status: ('A' for Active; 'I' for Inactive)
REMARK       I    between atoms: C1_2  and  N1_3 
REMARK       I    between atoms: C1_2  and  N3_16 
REMARK    1  A    between atoms: N1_3  and  C2_4 
REMARK    2  A    between atoms: N3_16  and  C12_17 
ROOT
HETATM    1  C2  UNL     1      25.666   3.014  50.683  1.00  0.00     0.026 C 
HETATM    2  C3  UNL     1      26.615   3.257  49.824  1.00  0.00    -0.005 C 
HETATM    3  C4  UNL     1      26.563   4.429  49.213  1.00  0.00    -0.003 C 
HETATM    4  C5  UNL     1      25.841   5.710  48.967  1.00  0.00     0.131 C 
HETATM    5  C6  UNL     1      24.361   5.540  48.965  1.00  0.00     0.223 C 
HETATM    6  O2  UNL     1      23.846   6.280  48.062  1.00  0.00    -0.273 OA
HETATM    7  N2  UNL     1      23.338   4.825  49.636  1.00  0.00    -0.347 N 
HETATM    8  C7  UNL     1      21.969   4.850  49.145  1.00  0.00     0.126 C 
HETATM    9  C8  UNL     1      21.179   4.760  50.435  1.00  0.00     0.022 C 
HETATM   10  C9  UNL     1      21.970   3.670  51.172  1.00  0.00     0.027 C 
HETATM   11  C10 UNL     1      23.390   3.984  50.841  1.00  0.00     0.092 C 
HETATM   12  C11 UNL     1      24.208   2.737  50.546  1.00  0.00     0.083 C 
ENDROOT
BRANCH   1  13
HETATM   13  N1  UNL     1      26.119   3.012  52.033  1.00  0.00    -0.312 N 
HETATM   14  C1  UNL     1      26.808   1.893  52.531  1.00  0.00     0.323 C 
HETATM   15  O1  UNL     1      27.040   0.887  51.828  1.00  0.00    -0.247 OA
HETATM   16  N3  UNL     1      27.249   1.920  53.881  1.00  0.00    -0.298 N 
HETATM   17  H14 UNL     1      27.071   2.753  54.507  1.00  0.00     0.168 HD
HETATM   18  H1  UNL     1      25.927   3.850  52.624  1.00  0.00     0.170 HD
BRANCH  16  19
HETATM   19  C12 UNL     1      27.969   0.781  54.446  1.00  0.00     0.360 A 
HETATM   20  N4  UNL     1      27.387  -0.459  54.119  1.00  0.00    -0.250 NA
HETATM   21  C13 UNL     1      28.043  -1.414  53.595  1.00  0.00     0.117 A 
HETATM   22  C14 UNL     1      29.440  -1.394  53.259  1.00  0.00     0.043 A 
HETATM   23  C15 UNL     1      29.978  -0.234  53.567  1.00  0.00     0.141 A 
HETATM   24  O3  UNL     1      29.327   0.830  54.130  1.00  0.00    -0.318 OA
ENDBRANCH  16  19
ENDBRANCH   1  13
TORSDOF 2
ENDMDL
MODEL 5
REMARK VINA RESULT:      -7.2      4.749      7.242
REMARK  2 active torsions:
REMARK  status: ('A' for Active; 'I' for Inactive)
REMARK       I    between atoms: C1_2  and  N1_3 
REMARK       I    between atoms: C1_2  and  N3_16 
REMARK    1  A    between atoms: N1_3  and  C2_4 
REMARK    2  A    between atoms: N3_16  and  C12_17 
ROOT
HETATM    1  C2  UNL     1      22.623   0.139  53.348  1.00  0.00     0.026 C 
HETATM    2  C3  UNL     1      22.037  -0.124  54.483  1.00  0.00    -0.005 C 
HETATM    3  C4  UNL     1      20.818  -0.631  54.406  1.00  0.00    -0.003 C 
HETATM    4  C5  UNL     1      19.653  -1.035  53.567  1.00  0.00     0.131 C 
HETATM    5  C6  UNL     1      19.451  -0.133  52.399  1.00  0.00     0.223 C 
HETATM    6  O2  UNL     1      18.202   0.047  52.208  1.00  0.00    -0.273 OA
HETATM    7  N2  UNL     1      20.190   0.591  51.431  1.00  0.00    -0.347 N 
HETATM    8  C7  UNL     1      19.528   1.529  50.538  1.00  0.00     0.126 C 
HETATM    9  C8  UNL     1      20.362   1.395  49.280  1.00  0.00     0.022 C 
HETATM   10  C9  UNL     1      21.775   1.394  49.880  1.00  0.00     0.027 C 
HETATM   11  C10 UNL     1      21.628   0.581  51.121  1.00  0.00     0.092 C 
HETATM   12  C11 UNL     1      22.396   1.168  52.295  1.00  0.00     0.083 C 
ENDROOT
BRANCH   1  13
HETATM   13  N1  UNL     1      23.704  -0.741  53.059  1.00  0.00    -0.312 N 
HETATM   14  C1  UNL     1      25.025  -0.283  53.195  1.00  0.00     0.323 C 
HETATM   15  O1  UNL     1      25.293   0.880  53.564  1.00  0.00    -0.247 OA
HETATM   16  N3  UNL     1      26.084  -1.183  52.900  1.00  0.00    -0.298 N 
HETATM   17  H14 UNL     1      25.898  -2.175  52.585  1.00  0.00     0.168 HD
HETATM   18  H1  UNL     1      23.486  -1.714  52.750  1.00  0.00     0.170 HD
BRANCH  16  19
HETATM   19  C12 UNL     1      27.475  -0.755  53.026  1.00  0.00     0.360 A 
HETATM   20  N4  UNL     1      27.718   0.511  52.457  1.00  0.00    -0.250 NA
HETATM   21  C13 UNL     1      28.278   1.459  53.094  1.00  0.00     0.117 A 
HETATM   22  C14 UNL     1      28.741   1.405  54.453  1.00  0.00     0.043 A 
HETATM   23  C15 UNL     1      28.512   0.221  54.978  1.00  0.00     0.141 A 
HETATM   24  O3  UNL     1      27.916  -0.837  54.347  1.00  0.00    -0.318 OA
ENDBRANCH  16  19
ENDBRANCH   1  13
TORSDOF 2
ENDMDL
MODEL 6
REMARK VINA RESULT:      -7.0      2.288      3.611
REMARK  2 active torsions:
REMARK  status: ('A' for Active; 'I' for Inactive)
REMARK       I    between atoms: C1_2  and  N1_3 
REMARK       I    between atoms: C1_2  and  N3_16 
REMARK    1  A    between atoms: N1_3  and  C2_4 
REMARK    2  A    between atoms: N3_16  and  C12_17 
ROOT
HETATM    1  C2  UNL     1      24.951   2.412  51.836  1.00  0.00     0.026 C 
HETATM    2  C3  UNL     1      26.253   2.457  51.798  1.00  0.00    -0.005 C 
HETATM    3  C4  UNL     1      26.880   1.296  51.883  1.00  0.00    -0.003 C 
HETATM    4  C5  UNL     1      26.811  -0.181  52.077  1.00  0.00     0.131 C 
HETATM    5  C6  UNL     1      25.745  -0.583  53.035  1.00  0.00     0.223 C 
HETATM    6  O2  UNL     1      26.158  -1.552  53.755  1.00  0.00    -0.273 OA
HETATM    7  N2  UNL     1      24.421  -0.241  53.410  1.00  0.00    -0.347 N 
HETATM    8  C7  UNL     1      23.806  -0.831  54.589  1.00  0.00     0.126 C 
HETATM    9  C8  UNL     1      22.353  -0.913  54.167  1.00  0.00     0.022 C 
HETATM   10  C9  UNL     1      22.173   0.465  53.515  1.00  0.00     0.027 C 
HETATM   11  C10 UNL     1      23.456   0.677  52.786  1.00  0.00     0.092 C 
HETATM   12  C11 UNL     1      23.969   2.103  52.914  1.00  0.00     0.083 C 
ENDROOT
BRANCH   1  13
HETATM   13  N1  UNL     1      24.343   2.724  50.587  1.00  0.00    -0.312 N 
HETATM   14  C1  UNL     1      23.962   4.049  50.315  1.00  0.00     0.323 C 
HETATM   15  O1  UNL     1      24.136   4.975  51.134  1.00  0.00    -0.247 OA
HETATM   16  N3  UNL     1      23.359   4.331  49.060  1.00  0.00    -0.298 N 
HETATM   17  H14 UNL     1      23.194   3.575  48.339  1.00  0.00     0.168 HD
HETATM   18  H1  UNL     1      24.195   1.954  49.898  1.00  0.00     0.170 HD
BRANCH  16  19
HETATM   19  C12 UNL     1      22.944   5.692  48.728  1.00  0.00     0.360 A 
HETATM   20  N4  UNL     1      24.015   6.513  48.324  1.00  0.00    -0.250 NA
HETATM   21  C13 UNL     1      24.007   7.176  47.238  1.00  0.00     0.117 A 
HETATM   22  C14 UNL     1      22.945   7.198  46.271  1.00  0.00     0.043 A 
HETATM   23  C15 UNL     1      21.948   6.430  46.654  1.00  0.00     0.141 A 
HETATM   24  O3  UNL     1      21.896   5.695  47.807  1.00  0.00    -0.318 OA
ENDBRANCH  16  19
ENDBRANCH   1  13
TORSDOF 2
ENDMDL
MODEL 7
REMARK VINA RESULT:      -7.0      3.178      4.700
REMARK  2 active torsions:
REMARK  status: ('A' for Active; 'I' for Inactive)
REMARK       I    between atoms: C1_2  and  N1_3 
REMARK       I    between atoms: C1_2  and  N3_16 
REMARK    1  A    between atoms: N1_3  and  C2_4 
REMARK    2  A    between atoms: N3_16  and  C12_17 
ROOT
HETATM    1  C2  UNL     1      23.723   4.924  51.369  1.00  0.00     0.026 C 
HETATM    2  C3  UNL     1      23.678   4.721  52.657  1.00  0.00    -0.005 C 
HETATM    3  C4  UNL     1      23.780   3.464  53.053  1.00  0.00    -0.003 C 
HETATM    4  C5  UNL     1      23.875   2.018  52.702  1.00  0.00     0.131 C 
HETATM    5  C6  UNL     1      23.073   1.668  51.497  1.00  0.00     0.223 C 
HETATM    6  O2  UNL     1      22.528   0.526  51.661  1.00  0.00    -0.273 OA
HETATM    7  N2  UNL     1      22.716   2.189  50.229  1.00  0.00    -0.347 N 
HETATM    8  C7  UNL     1      21.707   1.531  49.412  1.00  0.00     0.126 C 
HETATM    9  C8  UNL     1      22.218   1.809  48.012  1.00  0.00     0.022 C 
HETATM   10  C9  UNL     1      22.606   3.288  48.144  1.00  0.00     0.027 C 
HETATM   11  C10 UNL     1      23.207   3.372  49.506  1.00  0.00     0.092 C 
HETATM   12  C11 UNL     1      22.781   4.626  50.254  1.00  0.00     0.083 C 
ENDROOT
BRANCH   1  13
HETATM   13  N1  UNL     1      24.922   5.563  50.945  1.00  0.00    -0.312 N 
HETATM   14  C1  UNL     1      24.945   6.959  50.789  1.00  0.00     0.323 C 
HETATM   15  O1  UNL     1      23.943   7.671  51.010  1.00  0.00    -0.247 OA
HETATM   16  N3  UNL     1      26.156   7.570  50.365  1.00  0.00    -0.298 N 
HETATM   17  H14 UNL     1      27.025   7.002  50.168  1.00  0.00     0.168 HD
HETATM   18  H1  UNL     1      25.763   4.973  50.759  1.00  0.00     0.170 HD
BRANCH  16  19
HETATM   19  C12 UNL     1      26.231   9.018  50.188  1.00  0.00     0.360 A 
HETATM   20  N4  UNL     1      27.542   9.521  50.298  1.00  0.00    -0.250 NA
HETATM   21  C13 UNL     1      28.077  10.257  49.409  1.00  0.00     0.117 A 
HETATM   22  C14 UNL     1      27.460  10.687  48.185  1.00  0.00     0.043 A 
HETATM   23  C15 UNL     1      26.236  10.214  48.089  1.00  0.00     0.141 A 
HETATM   24  O3  UNL     1      25.606   9.420  49.008  1.00  0.00    -0.318 OA
ENDBRANCH  16  19
ENDBRANCH   1  13
TORSDOF 2
ENDMDL
MODEL 8
REMARK VINA RESULT:      -6.9      1.796      8.346
REMARK  2 active torsions:
REMARK  status: ('A' for Active; 'I' for Inactive)
REMARK       I    between atoms: C1_2  and  N1_3 
REMARK       I    between atoms: C1_2  and  N3_16 
REMARK    1  A    between atoms: N1_3  and  C2_4 
REMARK    2  A    between atoms: N3_16  and  C12_17 
ROOT
HETATM    1  C2  UNL     1      26.094   5.554  49.086  1.00  0.00     0.026 C 
HETATM    2  C3  UNL     1      27.264   5.688  48.525  1.00  0.00    -0.005 C 
HETATM    3  C4  UNL     1      27.741   6.920  48.459  1.00  0.00    -0.003 C 
HETATM    4  C5  UNL     1      27.544   8.380  48.690  1.00  0.00     0.131 C 
HETATM    5  C6  UNL     1      26.141   8.813  48.443  1.00  0.00     0.223 C 
HETATM    6  O2  UNL     1      26.139   9.957  47.880  1.00  0.00    -0.273 OA
HETATM    7  N2  UNL     1      24.808   8.370  48.628  1.00  0.00    -0.347 N 
HETATM    8  C7  UNL     1      23.694   9.095  48.036  1.00  0.00     0.126 C 
HETATM    9  C8  UNL     1      22.606   8.880  49.068  1.00  0.00     0.022 C 
HETATM   10  C9  UNL     1      22.795   7.387  49.368  1.00  0.00     0.027 C 
HETATM   11  C10 UNL     1      24.276   7.215  49.368  1.00  0.00     0.092 C 
HETATM   12  C11 UNL     1      24.713   5.934  48.675  1.00  0.00     0.083 C 
ENDROOT
BRANCH   1  13
HETATM   13  N1  UNL     1      26.152   4.909  50.354  1.00  0.00    -0.312 N 
HETATM   14  C1  UNL     1      26.362   3.521  50.415  1.00  0.00     0.323 C 
HETATM   15  O1  UNL     1      26.500   2.821  49.390  1.00  0.00    -0.247 OA
HETATM   16  N3  UNL     1      26.416   2.904  51.694  1.00  0.00    -0.298 N 
HETATM   17  H14 UNL     1      26.304   3.462  52.585  1.00  0.00     0.168 HD
HETATM   18  H1  UNL     1      26.038   5.488  51.214  1.00  0.00     0.170 HD
BRANCH  16  19
HETATM   19  C12 UNL     1      26.631   1.464  51.812  1.00  0.00     0.360 A 
HETATM   20  N4  UNL     1      27.581   1.126  52.796  1.00  0.00    -0.250 NA
HETATM   21  C13 UNL     1      27.346   0.289  53.725  1.00  0.00     0.117 A 
HETATM   22  C14 UNL     1      26.117  -0.429  53.924  1.00  0.00     0.043 A 
HETATM   23  C15 UNL     1      25.235  -0.109  53.001  1.00  0.00     0.141 A 
HETATM   24  O3  UNL     1      25.427   0.781  51.980  1.00  0.00    -0.318 OA
ENDBRANCH  16  19
ENDBRANCH   1  13
TORSDOF 2
ENDMDL
MODEL 9
REMARK VINA RESULT:      -6.7      2.160      2.456
REMARK  2 active torsions:
REMARK  status: ('A' for Active; 'I' for Inactive)
REMARK       I    between atoms: C1_2  and  N1_3 
REMARK       I    between atoms: C1_2  and  N3_16 
REMARK    1  A    between atoms: N1_3  and  C2_4 
REMARK    2  A    between atoms: N3_16  and  C12_17 
ROOT
HETATM    1  C2  UNL     1      23.511   1.355  52.100  1.00  0.00     0.026 C 
HETATM    2  C3  UNL     1      22.599   0.429  52.207  1.00  0.00    -0.005 C 
HETATM    3  C4  UNL     1      22.640  -0.305  53.306  1.00  0.00    -0.003 C 
HETATM    4  C5  UNL     1      23.328  -0.658  54.582  1.00  0.00     0.131 C 
HETATM    5  C6  UNL     1      24.810  -0.571  54.475  1.00  0.00     0.223 C 
HETATM    6  O2  UNL     1      25.344  -1.524  55.133  1.00  0.00    -0.273 OA
HETATM    7  N2  UNL     1      25.823   0.224  53.882  1.00  0.00    -0.347 N 
HETATM    8  C7  UNL     1      27.214  -0.201  53.910  1.00  0.00     0.126 C 
HETATM    9  C8  UNL     1      27.937   1.128  53.995  1.00  0.00     0.022 C 
HETATM   10  C9  UNL     1      27.150   1.943  52.961  1.00  0.00     0.027 C 
HETATM   11  C10 UNL     1      25.738   1.512  53.177  1.00  0.00     0.092 C 
HETATM   12  C11 UNL     1      24.983   1.319  51.871  1.00  0.00     0.083 C 
ENDROOT
BRANCH   1  13
HETATM   13  N1  UNL     1      22.989   2.673  52.227  1.00  0.00    -0.312 N 
HETATM   14  C1  UNL     1      22.719   3.426  51.071  1.00  0.00     0.323 C 
HETATM   15  O1  UNL     1      22.923   2.979  49.923  1.00  0.00    -0.247 OA
HETATM   16  N3  UNL     1      22.197   4.737  51.229  1.00  0.00    -0.298 N 
HETATM   17  H14 UNL     1      22.011   5.151  52.184  1.00  0.00     0.168 HD
HETATM   18  H1  UNL     1      22.816   3.051  53.184  1.00  0.00     0.170 HD
BRANCH  16  19
HETATM   19  C12 UNL     1      21.900   5.561  50.059  1.00  0.00     0.360 A 
HETATM   20  N4  UNL     1      20.790   6.407  50.246  1.00  0.00    -0.250 NA
HETATM   21  C13 UNL     1      20.834   7.662  50.036  1.00  0.00     0.117 A 
HETATM   22  C14 UNL     1      21.981   8.403  49.590  1.00  0.00     0.043 A 
HETATM   23  C15 UNL     1      23.014   7.607  49.417  1.00  0.00     0.141 A 
HETATM   24  O3  UNL     1      23.030   6.254  49.624  1.00  0.00    -0.318 OA
ENDBRANCH  16  19
ENDBRANCH   1  13
TORSDOF 2
ENDMDL
