MODEL 1
REMARK VINA RESULT:      -8.5      0.000      0.000
REMARK  4 active torsions:
REMARK  status: ('A' for Active; 'I' for Inactive)
REMARK    1  A    between atoms: O1_2  and  C2_3 
REMARK    2  A    between atoms: C6_9  and  N3_10 
REMARK    3  A    between atoms: N3_10  and  C7_11 
REMARK    4  A    between atoms: C18_22  and  P1_23 
ROOT
HETATM    1  C2  UNL     1      21.055   0.675  51.663  1.00  0.00     0.081 A 
HETATM    2  C3  UNL     1      21.487   1.339  50.535  1.00  0.00     0.070 A 
HETATM    3  C4  UNL     1      22.707   1.978  50.525  1.00  0.00     0.074 A 
HETATM    4  N1  UNL     1      23.056   2.606  49.374  1.00  0.00    -0.241 NA
HETATM    5  C5  UNL     1      24.233   3.252  49.293  1.00  0.00     0.236 A 
HETATM    6  N2  UNL     1      25.033   3.252  50.363  1.00  0.00    -0.224 NA
HETATM    7  C6  UNL     1      24.773   2.662  51.533  1.00  0.00     0.142 A 
HETATM    8  C16 UNL     1      23.566   2.008  51.598  1.00  0.00     0.040 A 
HETATM    9  C17 UNL     1      23.086   1.335  52.689  1.00  0.00     0.032 A 
HETATM   10  C18 UNL     1      21.881   0.677  52.767  1.00  0.00     0.000 A 
ENDROOT
BRANCH   7  11
HETATM   11  N3  UNL     1      25.613   2.658  52.668  1.00  0.00    -0.340 N 
HETATM   12  H6  UNL     1      25.492   3.338  53.440  1.00  0.00     0.167 HD
BRANCH  11  13
HETATM   13  C7  UNL     1      26.698   1.808  52.971  1.00  0.00     0.034 A 
HETATM   14  C8  UNL     1      27.932   2.234  53.448  1.00  0.00     0.030 A 
HETATM   15  C9  UNL     1      28.989   1.410  53.739  1.00  0.00     0.010 A 
HETATM   16  C10 UNL     1      28.859   0.057  53.560  1.00  0.00    -0.052 A 
HETATM   17  C11 UNL     1      27.662  -0.452  53.088  1.00  0.00    -0.050 A 
HETATM   18  C15 UNL     1      29.844  -1.029  53.799  1.00  0.00     0.039 C 
HETATM   19  C12 UNL     1      26.642   0.442  52.816  1.00  0.00     0.037 A 
HETATM   20  C13 UNL     1      27.770  -1.951  52.979  1.00  0.00     0.039 C 
HETATM   21  C14 UNL     1      29.238  -2.225  53.088  1.00  0.00     0.009 C 
ENDBRANCH  11  13
ENDBRANCH   7  11
BRANCH  10  22
HETATM   22  P1  UNL     1      21.305  -0.197  54.246  1.00  0.00    -0.096 P 
HETATM   23  C19 UNL     1      22.622  -1.255  55.009  1.00  0.00     0.046 C 
HETATM   24  H17 UNL     1      20.819   0.715  55.266  1.00  0.00     0.062 HD
ENDBRANCH  10  22
BRANCH   1  25
HETATM   25  O1  UNL     1      19.834   0.049  51.640  1.00  0.00    -0.355 OA
HETATM   26  C1  UNL     1      18.762   0.535  50.829  1.00  0.00     0.210 C 
ENDBRANCH   1  25
TORSDOF 4
ENDMDL
MODEL 2
REMARK VINA RESULT:      -8.2      2.425      3.792
REMARK  4 active torsions:
REMARK  status: ('A' for Active; 'I' for Inactive)
REMARK    1  A    between atoms: O1_2  and  C2_3 
REMARK    2  A    between atoms: C6_9  and  N3_10 
REMARK    3  A    between atoms: N3_10  and  C7_11 
REMARK    4  A    between atoms: C18_22  and  P1_23 
ROOT
HETATM    1  C2  UNL     1      19.116  -0.158  52.264  1.00  0.00     0.081 A 
HETATM    2  C3  UNL     1      19.524  -0.827  53.398  1.00  0.00     0.070 A 
HETATM    3  C4  UNL     1      20.855  -0.846  53.756  1.00  0.00     0.074 A 
HETATM    4  N1  UNL     1      21.171  -1.527  54.886  1.00  0.00    -0.241 NA
HETATM    5  C5  UNL     1      22.451  -1.589  55.295  1.00  0.00     0.236 A 
HETATM    6  N2  UNL     1      23.382  -0.969  54.565  1.00  0.00    -0.224 NA
HETATM    7  C6  UNL     1      23.164  -0.277  53.443  1.00  0.00     0.142 A 
HETATM    8  C16 UNL     1      21.850  -0.225  53.040  1.00  0.00     0.040 A 
HETATM    9  C17 UNL     1      21.388   0.422  51.926  1.00  0.00     0.032 A 
HETATM   10  C18 UNL     1      20.078   0.482  51.512  1.00  0.00     0.000 A 
ENDROOT
BRANCH   7  11
HETATM   11  N3  UNL     1      24.142   0.381  52.667  1.00  0.00    -0.340 N 
HETATM   12  H6  UNL     1      23.913   0.825  51.760  1.00  0.00     0.167 HD
BRANCH  11  13
HETATM   13  C7  UNL     1      25.517   0.562  52.932  1.00  0.00     0.034 A 
HETATM   14  C8  UNL     1      26.132   1.792  53.129  1.00  0.00     0.030 A 
HETATM   15  C9  UNL     1      27.469   1.971  53.383  1.00  0.00     0.010 A 
HETATM   16  C10 UNL     1      28.294   0.878  53.456  1.00  0.00    -0.052 A 
HETATM   17  C11 UNL     1      27.760  -0.386  53.273  1.00  0.00    -0.050 A 
HETATM   18  C15 UNL     1      29.755   0.810  53.715  1.00  0.00     0.039 C 
HETATM   19  C12 UNL     1      26.404  -0.486  53.021  1.00  0.00     0.037 A 
HETATM   20  C13 UNL     1      28.859  -1.410  53.403  1.00  0.00     0.039 C 
HETATM   21  C14 UNL     1      30.122  -0.609  53.321  1.00  0.00     0.009 C 
ENDBRANCH  11  13
ENDBRANCH   7  11
BRANCH  10  22
HETATM   22  P1  UNL     1      19.532   1.358  50.023  1.00  0.00    -0.096 P 
HETATM   23  C19 UNL     1      19.723   3.196  50.165  1.00  0.00     0.046 C 
HETATM   24  H17 UNL     1      20.252   0.925  48.838  1.00  0.00     0.062 HD
ENDBRANCH  10  22
BRANCH   1  25
HETATM   25  O1  UNL     1      17.783  -0.158  51.936  1.00  0.00    -0.355 OA
HETATM   26  C1  UNL     1      16.831  -0.914  52.687  1.00  0.00     0.210 C 
ENDBRANCH   1  25
TORSDOF 4
ENDMDL
MODEL 3
REMARK VINA RESULT:      -8.0      3.131      6.054
REMARK  4 active torsions:
REMARK  status: ('A' for Active; 'I' for Inactive)
REMARK    1  A    between atoms: O1_2  and  C2_3 
REMARK    2  A    between atoms: C6_9  and  N3_10 
REMARK    3  A    between atoms: N3_10  and  C7_11 
REMARK    4  A    between atoms: C18_22  and  P1_23 
ROOT
HETATM    1  C2  UNL     1      23.069   0.772  53.060  1.00  0.00     0.081 A 
HETATM    2  C3  UNL     1      24.266   0.919  53.728  1.00  0.00     0.070 A 
HETATM    3  C4  UNL     1      25.361   1.458  53.088  1.00  0.00     0.074 A 
HETATM    4  N1  UNL     1      26.499   1.568  53.818  1.00  0.00    -0.241 NA
HETATM    5  C5  UNL     1      27.608   2.084  53.258  1.00  0.00     0.236 A 
HETATM    6  N2  UNL     1      27.550   2.479  51.983  1.00  0.00    -0.224 NA
HETATM    7  C6  UNL     1      26.477   2.410  51.191  1.00  0.00     0.142 A 
HETATM    8  C16 UNL     1      25.354   1.879  51.780  1.00  0.00     0.040 A 
HETATM    9  C17 UNL     1      24.143   1.709  51.167  1.00  0.00     0.032 A 
HETATM   10  C18 UNL     1      23.012   1.180  51.744  1.00  0.00     0.000 A 
ENDROOT
BRANCH   7  11
HETATM   11  N3  UNL     1      26.410   2.825  49.843  1.00  0.00    -0.340 N 
HETATM   12  H6  UNL     1      26.292   2.148  49.068  1.00  0.00     0.167 HD
BRANCH  11  13
HETATM   13  C7  UNL     1      26.481   4.129  49.307  1.00  0.00     0.034 A 
HETATM   14  C8  UNL     1      25.411   5.011  49.219  1.00  0.00     0.030 A 
HETATM   15  C9  UNL     1      25.477   6.277  48.695  1.00  0.00     0.010 A 
HETATM   16  C10 UNL     1      26.672   6.745  48.211  1.00  0.00    -0.052 A 
HETATM   17  C11 UNL     1      27.790   5.930  48.262  1.00  0.00    -0.050 A 
HETATM   18  C15 UNL     1      26.997   8.060  47.602  1.00  0.00     0.039 C 
HETATM   19  C12 UNL     1      27.643   4.666  48.804  1.00  0.00     0.037 A 
HETATM   20  C13 UNL     1      28.966   6.667  47.676  1.00  0.00     0.039 C 
HETATM   21  C14 UNL     1      28.355   7.833  46.963  1.00  0.00     0.009 C 
ENDBRANCH  11  13
ENDBRANCH   7  11
BRANCH  10  22
HETATM   22  P1  UNL     1      21.436   0.982  50.874  1.00  0.00    -0.096 P 
HETATM   23  C19 UNL     1      21.590   1.254  49.046  1.00  0.00     0.046 C 
HETATM   24  H17 UNL     1      20.856  -0.333  51.081  1.00  0.00     0.062 HD
ENDBRANCH  10  22
BRANCH   1  25
HETATM   25  O1  UNL     1      21.998   0.232  53.726  1.00  0.00    -0.355 OA
HETATM   26  C1  UNL     1      21.942  -1.161  54.043  1.00  0.00     0.210 C 
ENDBRANCH   1  25
TORSDOF 4
ENDMDL
MODEL 4
REMARK VINA RESULT:      -7.9      4.003      6.753
REMARK  4 active torsions:
REMARK  status: ('A' for Active; 'I' for Inactive)
REMARK    1  A    between atoms: O1_2  and  C2_3 
REMARK    2  A    between atoms: C6_9  and  N3_10 
REMARK    3  A    between atoms: N3_10  and  C7_11 
REMARK    4  A    between atoms: C18_22  and  P1_23 
ROOT
HETATM    1  C2  UNL     1      26.062   0.297  53.658  1.00  0.00     0.081 A 
HETATM    2  C3  UNL     1      24.855   0.520  53.031  1.00  0.00     0.070 A 
HETATM    3  C4  UNL     1      24.769   1.399  51.973  1.00  0.00     0.074 A 
HETATM    4  N1  UNL     1      23.544   1.560  51.413  1.00  0.00    -0.241 NA
HETATM    5  C5  UNL     1      23.387   2.403  50.377  1.00  0.00     0.236 A 
HETATM    6  N2  UNL     1      24.457   3.063  49.926  1.00  0.00    -0.224 NA
HETATM    7  C6  UNL     1      25.697   2.967  50.414  1.00  0.00     0.142 A 
HETATM    8  C16 UNL     1      25.839   2.102  51.472  1.00  0.00     0.040 A 
HETATM    9  C17 UNL     1      27.009   1.842  52.133  1.00  0.00     0.032 A 
HETATM   10  C18 UNL     1      27.165   0.979  53.192  1.00  0.00     0.000 A 
ENDROOT
BRANCH   7  11
HETATM   11  N3  UNL     1      26.832   3.661  49.943  1.00  0.00    -0.340 N 
HETATM   12  H6  UNL     1      27.794   3.316  50.113  1.00  0.00     0.167 HD
BRANCH  11  13
HETATM   13  C7  UNL     1      26.900   4.863  49.205  1.00  0.00     0.034 A 
HETATM   14  C8  UNL     1      25.833   5.729  48.997  1.00  0.00     0.030 A 
HETATM   15  C9  UNL     1      25.896   6.895  48.278  1.00  0.00     0.010 A 
HETATM   16  C10 UNL     1      27.084   7.271  47.705  1.00  0.00    -0.052 A 
HETATM   17  C11 UNL     1      28.198   6.465  47.864  1.00  0.00    -0.050 A 
HETATM   18  C15 UNL     1      27.404   8.471  46.889  1.00  0.00     0.039 C 
HETATM   19  C12 UNL     1      28.056   5.304  48.603  1.00  0.00     0.037 A 
HETATM   20  C13 UNL     1      29.367   7.091  47.148  1.00  0.00     0.039 C 
HETATM   21  C14 UNL     1      28.749   8.134  46.271  1.00  0.00     0.009 C 
ENDBRANCH  11  13
ENDBRANCH   7  11
BRANCH  10  22
HETATM   22  P1  UNL     1      28.747   0.680  54.022  1.00  0.00    -0.096 P 
HETATM   23  C19 UNL     1      29.516  -0.935  53.536  1.00  0.00     0.046 C 
HETATM   24  H17 UNL     1      29.713   1.731  53.756  1.00  0.00     0.062 HD
ENDBRANCH  10  22
BRANCH   1  25
HETATM   25  O1  UNL     1      26.112  -0.585  54.709  1.00  0.00    -0.355 OA
HETATM   26  C1  UNL     1      24.922  -1.049  55.350  1.00  0.00     0.210 C 
ENDBRANCH   1  25
TORSDOF 4
ENDMDL
MODEL 5
REMARK VINA RESULT:      -7.8      3.331      5.723
REMARK  4 active torsions:
REMARK  status: ('A' for Active; 'I' for Inactive)
REMARK    1  A    between atoms: O1_2  and  C2_3 
REMARK    2  A    between atoms: C6_9  and  N3_10 
REMARK    3  A    between atoms: N3_10  and  C7_11 
REMARK    4  A    between atoms: C18_22  and  P1_23 
ROOT
HETATM    1  C2  UNL     1      23.862   0.147  53.514  1.00  0.00     0.081 A 
HETATM    2  C3  UNL     1      22.772   0.914  53.164  1.00  0.00     0.070 A 
HETATM    3  C4  UNL     1      22.857   1.814  52.124  1.00  0.00     0.074 A 
HETATM    4  N1  UNL     1      21.738   2.529  51.844  1.00  0.00    -0.241 NA
HETATM    5  C5  UNL     1      21.749   3.427  50.843  1.00  0.00     0.236 A 
HETATM    6  N2  UNL     1      22.878   3.588  50.146  1.00  0.00    -0.224 NA
HETATM    7  C6  UNL     1      24.022   2.930  50.349  1.00  0.00     0.142 A 
HETATM    8  C16 UNL     1      23.993   2.018  51.377  1.00  0.00     0.040 A 
HETATM    9  C17 UNL     1      25.042   1.231  51.769  1.00  0.00     0.032 A 
HETATM   10  C18 UNL     1      25.026   0.314  52.794  1.00  0.00     0.000 A 
ENDROOT
BRANCH   7  11
HETATM   11  N3  UNL     1      25.218   3.095  49.617  1.00  0.00    -0.340 N 
HETATM   12  H6  UNL     1      25.783   2.285  49.304  1.00  0.00     0.167 HD
BRANCH  11  13
HETATM   13  C7  UNL     1      25.845   4.285  49.190  1.00  0.00     0.034 A 
HETATM   14  C8  UNL     1      25.195   5.495  48.980  1.00  0.00     0.030 A 
HETATM   15  C9  UNL     1      25.802   6.652  48.562  1.00  0.00     0.010 A 
HETATM   16  C10 UNL     1      27.153   6.656  48.321  1.00  0.00    -0.052 A 
HETATM   17  C11 UNL     1      27.877   5.491  48.507  1.00  0.00    -0.050 A 
HETATM   18  C15 UNL     1      28.030   7.765  47.867  1.00  0.00     0.039 C 
HETATM   19  C12 UNL     1      27.194   4.365  48.930  1.00  0.00     0.037 A 
HETATM   20  C13 UNL     1      29.325   5.753  48.182  1.00  0.00     0.039 C 
HETATM   21  C14 UNL     1      29.311   7.063  47.456  1.00  0.00     0.009 C 
ENDBRANCH  11  13
ENDBRANCH   7  11
BRANCH  10  22
HETATM   22  P1  UNL     1      26.453  -0.697  53.263  1.00  0.00    -0.096 P 
HETATM   23  C19 UNL     1      27.484   0.091  54.586  1.00  0.00     0.046 C 
HETATM   24  H17 UNL     1      26.061  -2.015  53.729  1.00  0.00     0.062 HD
ENDBRANCH  10  22
BRANCH   1  25
HETATM   25  O1  UNL     1      23.743  -0.740  54.555  1.00  0.00    -0.355 OA
HETATM   26  C1  UNL     1      22.467  -1.219  54.984  1.00  0.00     0.210 C 
ENDBRANCH   1  25
TORSDOF 4
ENDMDL
MODEL 6
REMARK VINA RESULT:      -7.5      3.153      6.938
REMARK  4 active torsions:
REMARK  status: ('A' for Active; 'I' for Inactive)
REMARK    1  A    between atoms: O1_2  and  C2_3 
REMARK    2  A    between atoms: C6_9  and  N3_10 
REMARK    3  A    between atoms: N3_10  and  C7_11 
REMARK    4  A    between atoms: C18_22  and  P1_23 
ROOT
HETATM    1  C2  UNL     1      25.631   3.674  50.518  1.00  0.00     0.081 A 
HETATM    2  C3  UNL     1      26.379   2.520  50.626  1.00  0.00     0.070 A 
HETATM    3  C4  UNL     1      26.003   1.525  51.502  1.00  0.00     0.074 A 
HETATM    4  N1  UNL     1      26.793   0.423  51.547  1.00  0.00    -0.241 NA
HETATM    5  C5  UNL     1      26.488  -0.588  52.379  1.00  0.00     0.236 A 
HETATM    6  N2  UNL     1      25.400  -0.473  53.146  1.00  0.00    -0.224 NA
HETATM    7  C6  UNL     1      24.566   0.570  53.168  1.00  0.00     0.142 A 
HETATM    8  C16 UNL     1      24.895   1.594  52.312  1.00  0.00     0.040 A 
HETATM    9  C17 UNL     1      24.192   2.759  52.163  1.00  0.00     0.032 A 
HETATM   10  C18 UNL     1      24.509   3.791  51.310  1.00  0.00     0.000 A 
ENDROOT
BRANCH   7  11
HETATM   11  N3  UNL     1      23.415   0.698  53.975  1.00  0.00    -0.340 N 
HETATM   12  H6  UNL     1      23.418   1.258  54.847  1.00  0.00     0.167 HD
BRANCH  11  13
HETATM   13  C7  UNL     1      22.129   0.146  53.789  1.00  0.00     0.034 A 
HETATM   14  C8  UNL     1      21.660  -1.003  54.414  1.00  0.00     0.030 A 
HETATM   15  C9  UNL     1      20.413  -1.544  54.232  1.00  0.00     0.010 A 
HETATM   16  C10 UNL     1      19.532  -0.934  53.375  1.00  0.00    -0.052 A 
HETATM   17  C11 UNL     1      19.920   0.216  52.711  1.00  0.00    -0.050 A 
HETATM   18  C15 UNL     1      18.144  -1.320  53.011  1.00  0.00     0.039 C 
HETATM   19  C12 UNL     1      21.194   0.701  52.947  1.00  0.00     0.037 A 
HETATM   20  C13 UNL     1      18.786   0.689  51.838  1.00  0.00     0.039 C 
HETATM   21  C14 UNL     1      17.849  -0.478  51.784  1.00  0.00     0.009 C 
ENDBRANCH  11  13
ENDBRANCH   7  11
BRANCH  10  22
HETATM   22  P1  UNL     1      23.534   5.310  51.161  1.00  0.00    -0.096 P 
HETATM   23  C19 UNL     1      22.491   5.342  49.628  1.00  0.00     0.046 C 
HETATM   24  H17 UNL     1      22.657   5.511  52.301  1.00  0.00     0.062 HD
ENDBRANCH  10  22
BRANCH   1  25
HETATM   25  O1  UNL     1      26.033   4.645  49.635  1.00  0.00    -0.355 OA
HETATM   26  C1  UNL     1      27.273   4.546  48.931  1.00  0.00     0.210 C 
ENDBRANCH   1  25
TORSDOF 4
ENDMDL
MODEL 7
REMARK VINA RESULT:      -7.4      1.743      2.117
REMARK  4 active torsions:
REMARK  status: ('A' for Active; 'I' for Inactive)
REMARK    1  A    between atoms: O1_2  and  C2_3 
REMARK    2  A    between atoms: C6_9  and  N3_10 
REMARK    3  A    between atoms: N3_10  and  C7_11 
REMARK    4  A    between atoms: C18_22  and  P1_23 
ROOT
HETATM    1  C2  UNL     1      21.381   3.449  49.930  1.00  0.00     0.081 A 
HETATM    2  C3  UNL     1      22.418   3.969  49.186  1.00  0.00     0.070 A 
HETATM    3  C4  UNL     1      23.714   3.897  49.650  1.00  0.00     0.074 A 
HETATM    4  N1  UNL     1      24.675   4.433  48.855  1.00  0.00    -0.241 NA
HETATM    5  C5  UNL     1      25.962   4.400  49.245  1.00  0.00     0.236 A 
HETATM    6  N2  UNL     1      26.256   3.832  50.418  1.00  0.00    -0.224 NA
HETATM    7  C6  UNL     1      25.379   3.281  51.262  1.00  0.00     0.142 A 
HETATM    8  C16 UNL     1      24.069   3.325  50.847  1.00  0.00     0.040 A 
HETATM    9  C17 UNL     1      23.001   2.827  51.543  1.00  0.00     0.032 A 
HETATM   10  C18 UNL     1      21.686   2.864  51.140  1.00  0.00     0.000 A 
ENDROOT
BRANCH   7  11
HETATM   11  N3  UNL     1      25.683   2.680  52.502  1.00  0.00    -0.340 N 
HETATM   12  H6  UNL     1      25.139   2.889  53.359  1.00  0.00     0.167 HD
BRANCH  11  13
HETATM   13  C7  UNL     1      26.697   1.750  52.817  1.00  0.00     0.034 A 
HETATM   14  C8  UNL     1      27.953   2.081  53.313  1.00  0.00     0.030 A 
HETATM   15  C9  UNL     1      28.941   1.179  53.616  1.00  0.00     0.010 A 
HETATM   16  C10 UNL     1      28.712  -0.161  53.430  1.00  0.00    -0.052 A 
HETATM   17  C11 UNL     1      27.486  -0.577  52.940  1.00  0.00    -0.050 A 
HETATM   18  C15 UNL     1      29.609  -1.318  53.679  1.00  0.00     0.039 C 
HETATM   19  C12 UNL     1      26.540   0.392  52.657  1.00  0.00     0.037 A 
HETATM   20  C13 UNL     1      27.483  -2.080  52.828  1.00  0.00     0.039 C 
HETATM   21  C14 UNL     1      28.925  -2.463  52.956  1.00  0.00     0.009 C 
ENDBRANCH  11  13
ENDBRANCH   7  11
BRANCH  10  22
HETATM   22  P1  UNL     1      20.316   2.184  52.112  1.00  0.00    -0.096 P 
HETATM   23  C19 UNL     1      20.861   0.851  53.279  1.00  0.00     0.046 C 
HETATM   24  H17 UNL     1      19.636   3.206  52.888  1.00  0.00     0.062 HD
ENDBRANCH  10  22
BRANCH   1  25
HETATM   25  O1  UNL     1      20.102   3.537  49.439  1.00  0.00    -0.355 OA
HETATM   26  C1  UNL     1      19.790   3.148  48.100  1.00  0.00     0.210 C 
ENDBRANCH   1  25
TORSDOF 4
ENDMDL
MODEL 8
REMARK VINA RESULT:      -7.4      2.238      2.603
REMARK  4 active torsions:
REMARK  status: ('A' for Active; 'I' for Inactive)
REMARK    1  A    between atoms: O1_2  and  C2_3 
REMARK    2  A    between atoms: C6_9  and  N3_10 
REMARK    3  A    between atoms: N3_10  and  C7_11 
REMARK    4  A    between atoms: C18_22  and  P1_23 
ROOT
HETATM    1  C2  UNL     1      19.089   2.624  51.606  1.00  0.00     0.081 A 
HETATM    2  C3  UNL     1      19.912   3.725  51.721  1.00  0.00     0.070 A 
HETATM    3  C4  UNL     1      21.236   3.573  52.070  1.00  0.00     0.074 A 
HETATM    4  N1  UNL     1      21.975   4.707  52.160  1.00  0.00    -0.241 NA
HETATM    5  C5  UNL     1      23.275   4.634  52.498  1.00  0.00     0.236 A 
HETATM    6  N2  UNL     1      23.804   3.431  52.735  1.00  0.00    -0.224 NA
HETATM    7  C6  UNL     1      23.155   2.265  52.670  1.00  0.00     0.142 A 
HETATM    8  C16 UNL     1      21.827   2.359  52.324  1.00  0.00     0.040 A 
HETATM    9  C17 UNL     1      20.965   1.304  52.196  1.00  0.00     0.032 A 
HETATM   10  C18 UNL     1      19.636   1.383  51.852  1.00  0.00     0.000 A 
ENDROOT
BRANCH   7  11
HETATM   11  N3  UNL     1      23.707   0.990  52.919  1.00  0.00    -0.340 N 
HETATM   12  H6  UNL     1      23.125   0.133  52.921  1.00  0.00     0.167 HD
BRANCH  11  13
HETATM   13  C7  UNL     1      25.046   0.636  53.193  1.00  0.00     0.034 A 
HETATM   14  C8  UNL     1      25.976   1.465  53.808  1.00  0.00     0.030 A 
HETATM   15  C9  UNL     1      27.279   1.125  54.072  1.00  0.00     0.010 A 
HETATM   16  C10 UNL     1      27.736  -0.119  53.718  1.00  0.00    -0.052 A 
HETATM   17  C11 UNL     1      26.873  -1.008  53.101  1.00  0.00    -0.050 A 
HETATM   18  C15 UNL     1      29.085  -0.717  53.893  1.00  0.00     0.039 C 
HETATM   19  C12 UNL     1      25.574  -0.591  52.868  1.00  0.00     0.037 A 
HETATM   20  C13 UNL     1      27.607  -2.293  52.817  1.00  0.00     0.039 C 
HETATM   21  C14 UNL     1      29.051  -1.942  52.998  1.00  0.00     0.009 C 
ENDBRANCH  11  13
ENDBRANCH   7  11
BRANCH  10  22
HETATM   22  P1  UNL     1      18.548  -0.057  51.699  1.00  0.00    -0.096 P 
HETATM   23  C19 UNL     1      18.452  -1.049  53.263  1.00  0.00     0.046 C 
HETATM   24  H17 UNL     1      17.195   0.316  51.325  1.00  0.00     0.062 HD
ENDBRANCH  10  22
BRANCH   1  25
HETATM   25  O1  UNL     1      17.775   2.811  51.257  1.00  0.00    -0.355 OA
HETATM   26  C1  UNL     1      17.056   3.980  51.656  1.00  0.00     0.210 C 
ENDBRANCH   1  25
TORSDOF 4
ENDMDL
MODEL 9
REMARK VINA RESULT:      -7.3      2.334      6.604
REMARK  4 active torsions:
REMARK  status: ('A' for Active; 'I' for Inactive)
REMARK    1  A    between atoms: O1_2  and  C2_3 
REMARK    2  A    between atoms: C6_9  and  N3_10 
REMARK    3  A    between atoms: N3_10  and  C7_11 
REMARK    4  A    between atoms: C18_22  and  P1_23 
ROOT
HETATM    1  C2  UNL     1      26.759   0.018  53.366  1.00  0.00     0.081 A 
HETATM    2  C3  UNL     1      27.143   0.830  52.321  1.00  0.00     0.070 A 
HETATM    3  C4  UNL     1      26.258   1.737  51.780  1.00  0.00     0.074 A 
HETATM    4  N1  UNL     1      26.717   2.498  50.754  1.00  0.00    -0.241 NA
HETATM    5  C5  UNL     1      25.907   3.404  50.177  1.00  0.00     0.236 A 
HETATM    6  N2  UNL     1      24.660   3.527  50.640  1.00  0.00    -0.224 NA
HETATM    7  C6  UNL     1      24.125   2.825  51.642  1.00  0.00     0.142 A 
HETATM    8  C16 UNL     1      24.967   1.903  52.219  1.00  0.00     0.040 A 
HETATM    9  C17 UNL     1      24.641   1.072  53.256  1.00  0.00     0.032 A 
HETATM   10  C18 UNL     1      25.472   0.147  53.843  1.00  0.00     0.000 A 
ENDROOT
BRANCH   7  11
HETATM   11  N3  UNL     1      22.809   2.950  52.137  1.00  0.00    -0.340 N 
HETATM   12  H6  UNL     1      22.554   3.671  52.836  1.00  0.00     0.167 HD
BRANCH  11  13
HETATM   13  C7  UNL     1      21.660   2.194  51.817  1.00  0.00     0.034 A 
HETATM   14  C8  UNL     1      20.941   2.304  50.633  1.00  0.00     0.030 A 
HETATM   15  C9  UNL     1      19.823   1.573  50.322  1.00  0.00     0.010 A 
HETATM   16  C10 UNL     1      19.346   0.654  51.222  1.00  0.00    -0.052 A 
HETATM   17  C11 UNL     1      20.004   0.481  52.427  1.00  0.00    -0.050 A 
HETATM   18  C15 UNL     1      18.169  -0.247  51.121  1.00  0.00     0.039 C 
HETATM   19  C12 UNL     1      21.125   1.255  52.668  1.00  0.00     0.037 A 
HETATM   20  C13 UNL     1      19.292  -0.576  53.232  1.00  0.00     0.039 C 
HETATM   21  C14 UNL     1      17.973  -0.740  52.543  1.00  0.00     0.009 C 
ENDBRANCH  11  13
ENDBRANCH   7  11
BRANCH  10  22
HETATM   22  P1  UNL     1      24.976  -0.925  55.216  1.00  0.00    -0.096 P 
HETATM   23  C19 UNL     1      23.154  -1.266  55.234  1.00  0.00     0.046 C 
HETATM   24  H17 UNL     1      25.668  -2.202  55.192  1.00  0.00     0.062 HD
ENDBRANCH  10  22
BRANCH   1  25
HETATM   25  O1  UNL     1      27.666  -0.875  53.882  1.00  0.00    -0.355 OA
HETATM   26  C1  UNL     1      29.010  -0.488  54.173  1.00  0.00     0.210 C 
ENDBRANCH   1  25
TORSDOF 4
ENDMDL
