MODEL 1
REMARK VINA RESULT:      -9.4      0.000      0.000
REMARK  3 active torsions:
REMARK  status: ('A' for Active; 'I' for Inactive)
REMARK    1  A    between atoms: C1_2  and  C2_3 
REMARK    2  A    between atoms: C2_3  and  C3_4 
REMARK    3  A    between atoms: C3_4  and  C4_5 
ROOT
HETATM    1  C4  UNL     1      27.524   2.098  53.174  1.00  0.00     0.123 A 
HETATM    2  N1  UNL     1      26.501   2.153  53.943  1.00  0.00    -0.237 NA
HETATM    3  C5  UNL     1      25.327   2.181  53.144  1.00  0.00     0.167 A 
HETATM    4  C6  UNL     1      24.538   0.930  53.455  1.00  0.00     0.056 C 
HETATM    5  C7  UNL     1      23.631  -0.061  53.634  1.00  0.00     0.006 C 
HETATM    6  C8  UNL     1      22.170  -0.204  53.342  1.00  0.00     0.015 C 
HETATM    7  C9  UNL     1      20.869  -0.027  52.957  1.00  0.00     0.096 A 
HETATM    8  C10 UNL     1      20.039   1.023  52.328  1.00  0.00    -0.005 A 
HETATM    9 BR1  UNL     1      18.946  -0.518  52.708  1.00  0.00    -0.121 Br
HETATM   10  C11 UNL     1      19.592   2.130  51.765  1.00  0.00     0.047 C 
HETATM   11  C12 UNL     1      20.119   3.406  51.359  1.00  0.00     0.071 A 
HETATM   12  N2  UNL     1      19.279   4.091  50.582  1.00  0.00    -0.241 NA
HETATM   13  C13 UNL     1      19.502   5.287  50.035  1.00  0.00     0.234 A 
HETATM   14  N3  UNL     1      20.663   5.929  50.240  1.00  0.00    -0.241 NA
HETATM   15  C14 UNL     1      21.572   5.282  51.029  1.00  0.00     0.070 A 
HETATM   16  C15 UNL     1      22.758   5.955  51.208  1.00  0.00     0.035 A 
HETATM   17  C16 UNL     1      23.783   5.397  51.981  1.00  0.00     0.031 A 
HETATM   18  C17 UNL     1      23.620   4.143  52.585  1.00  0.00     0.031 A 
HETATM   19  C18 UNL     1      22.385   3.666  52.280  1.00  0.00     0.045 A 
HETATM   20  C19 UNL     1      21.299   4.051  51.572  1.00  0.00     0.024 A 
HETATM   21  N4  UNL     1      24.542   3.394  53.370  1.00  0.00    -0.357 N 
HETATM   22  C20 UNL     1      25.838   2.131  51.754  1.00  0.00     0.147 A 
HETATM   23  N5  UNL     1      27.147   2.082  51.801  1.00  0.00    -0.245 NA
HETATM   24  H15 UNL     1      24.435   4.071  54.156  1.00  0.00     0.162 HD
ENDROOT
BRANCH   1  25
HETATM   25  C3  UNL     1      28.931   2.055  53.656  1.00  0.00     0.087 C 
BRANCH  25  26
HETATM   26  C2  UNL     1      29.134   0.865  54.585  1.00  0.00     0.077 C 
BRANCH  26  27
HETATM   27  C1  UNL     1      29.139  -0.416  53.821  1.00  0.00     0.231 C 
HETATM   28  O1  UNL     1      28.268  -1.282  53.833  1.00  0.00    -0.307 OA
ENDBRANCH  26  27
ENDBRANCH  25  26
ENDBRANCH   1  25
TORSDOF 3
ENDMDL
MODEL 2
REMARK VINA RESULT:      -9.4      2.456      4.042
REMARK  3 active torsions:
REMARK  status: ('A' for Active; 'I' for Inactive)
REMARK    1  A    between atoms: C1_2  and  C2_3 
REMARK    2  A    between atoms: C2_3  and  C3_4 
REMARK    3  A    between atoms: C3_4  and  C4_5 
ROOT
HETATM    1  C4  UNL     1      27.803   0.631  53.811  1.00  0.00     0.123 A 
HETATM    2  N1  UNL     1      27.346   0.509  52.621  1.00  0.00    -0.237 NA
HETATM    3  C5  UNL     1      26.262   1.411  52.451  1.00  0.00     0.167 A 
HETATM    4  C6  UNL     1      26.657   2.397  51.376  1.00  0.00     0.056 C 
HETATM    5  C7  UNL     1      26.758   3.324  50.393  1.00  0.00     0.006 C 
HETATM    6  C8  UNL     1      25.768   4.147  49.629  1.00  0.00     0.015 C 
HETATM    7  C9  UNL     1      24.645   4.741  49.123  1.00  0.00     0.096 A 
HETATM    8  C10 UNL     1      23.182   4.692  49.334  1.00  0.00    -0.005 A 
HETATM    9 BR1  UNL     1      23.586   5.954  47.936  1.00  0.00    -0.121 Br
HETATM   10  C11 UNL     1      21.962   4.420  49.759  1.00  0.00     0.047 C 
HETATM   11  C12 UNL     1      21.341   3.572  50.741  1.00  0.00     0.071 A 
HETATM   12  N2  UNL     1      20.059   3.872  50.952  1.00  0.00    -0.241 NA
HETATM   13  C13 UNL     1      19.236   3.279  51.818  1.00  0.00     0.234 A 
HETATM   14  N3  UNL     1      19.668   2.270  52.591  1.00  0.00    -0.241 NA
HETATM   15  C14 UNL     1      20.976   1.909  52.427  1.00  0.00     0.070 A 
HETATM   16  C15 UNL     1      21.395   0.885  53.244  1.00  0.00     0.035 A 
HETATM   17  C16 UNL     1      22.717   0.427  53.190  1.00  0.00     0.031 A 
HETATM   18  C17 UNL     1      23.637   1.005  52.305  1.00  0.00     0.031 A 
HETATM   19  C18 UNL     1      23.013   1.986  51.601  1.00  0.00     0.045 A 
HETATM   20  C19 UNL     1      21.786   2.549  51.521  1.00  0.00     0.024 A 
HETATM   21  N4  UNL     1      25.019   0.713  52.124  1.00  0.00    -0.357 N 
HETATM   22  C20 UNL     1      26.157   2.095  53.761  1.00  0.00     0.147 A 
HETATM   23  N5  UNL     1      27.085   1.613  54.550  1.00  0.00    -0.245 NA
HETATM   24  H15 UNL     1      24.776  -0.199  51.679  1.00  0.00     0.162 HD
ENDROOT
BRANCH   1  25
HETATM   25  C3  UNL     1      28.945  -0.155  54.352  1.00  0.00     0.087 C 
BRANCH  25  26
HETATM   26  C2  UNL     1      29.610  -0.954  53.239  1.00  0.00     0.077 C 
BRANCH  26  27
HETATM   27  C1  UNL     1      29.242  -2.397  53.321  1.00  0.00     0.231 C 
HETATM   28  O1  UNL     1      28.180  -2.905  52.972  1.00  0.00    -0.307 OA
ENDBRANCH  26  27
ENDBRANCH  25  26
ENDBRANCH   1  25
TORSDOF 3
ENDMDL
MODEL 3
REMARK VINA RESULT:      -9.2      2.178      2.262
REMARK  3 active torsions:
REMARK  status: ('A' for Active; 'I' for Inactive)
REMARK    1  A    between atoms: C1_2  and  C2_3 
REMARK    2  A    between atoms: C2_3  and  C3_4 
REMARK    3  A    between atoms: C3_4  and  C4_5 
ROOT
HETATM    1  C4  UNL     1      27.301   0.139  53.864  1.00  0.00     0.123 A 
HETATM    2  N1  UNL     1      26.255   0.741  54.293  1.00  0.00    -0.237 NA
HETATM    3  C5  UNL     1      25.196   0.536  53.370  1.00  0.00     0.167 A 
HETATM    4  C6  UNL     1      24.112  -0.235  54.088  1.00  0.00     0.056 C 
HETATM    5  C7  UNL     1      22.987  -0.837  54.546  1.00  0.00     0.006 C 
HETATM    6  C8  UNL     1      21.565  -0.881  54.081  1.00  0.00     0.015 C 
HETATM    7  C9  UNL     1      20.380  -0.727  53.414  1.00  0.00     0.096 A 
HETATM    8  C10 UNL     1      19.876  -0.036  52.207  1.00  0.00    -0.005 A 
HETATM    9 BR1  UNL     1      18.425  -0.969  53.065  1.00  0.00    -0.121 Br
HETATM   10  C11 UNL     1      19.752   0.676  51.103  1.00  0.00     0.047 C 
HETATM   11  C12 UNL     1      20.596   1.460  50.241  1.00  0.00     0.071 A 
HETATM   12  N2  UNL     1      20.011   1.769  49.083  1.00  0.00    -0.241 NA
HETATM   13  C13 UNL     1      20.553   2.461  48.079  1.00  0.00     0.234 A 
HETATM   14  N3  UNL     1      21.809   2.927  48.168  1.00  0.00    -0.241 NA
HETATM   15  C14 UNL     1      22.469   2.645  49.332  1.00  0.00     0.070 A 
HETATM   16  C15 UNL     1      23.759   3.120  49.389  1.00  0.00     0.035 A 
HETATM   17  C16 UNL     1      24.553   2.888  50.518  1.00  0.00     0.031 A 
HETATM   18  C17 UNL     1      24.050   2.168  51.610  1.00  0.00     0.031 A 
HETATM   19  C18 UNL     1      22.769   1.801  51.341  1.00  0.00     0.045 A 
HETATM   20  C19 UNL     1      21.869   1.930  50.339  1.00  0.00     0.024 A 
HETATM   21  N4  UNL     1      24.698   1.797  52.822  1.00  0.00    -0.357 N 
HETATM   22  C20 UNL     1      25.802  -0.302  52.309  1.00  0.00     0.147 A 
HETATM   23  N5  UNL     1      27.054  -0.523  52.627  1.00  0.00    -0.245 NA
HETATM   24  H15 UNL     1      24.683   2.790  53.143  1.00  0.00     0.162 HD
ENDROOT
BRANCH   1  25
HETATM   25  C3  UNL     1      28.611   0.132  54.569  1.00  0.00     0.087 C 
BRANCH  25  26
HETATM   26  C2  UNL     1      29.721  -0.292  53.616  1.00  0.00     0.077 C 
BRANCH  26  27
HETATM   27  C1  UNL     1      30.047  -1.737  53.783  1.00  0.00     0.231 C 
HETATM   28  O1  UNL     1      29.312  -2.690  53.536  1.00  0.00    -0.307 OA
ENDBRANCH  26  27
ENDBRANCH  25  26
ENDBRANCH   1  25
TORSDOF 3
ENDMDL
MODEL 4
REMARK VINA RESULT:      -8.9      2.653      4.227
REMARK  3 active torsions:
REMARK  status: ('A' for Active; 'I' for Inactive)
REMARK    1  A    between atoms: C1_2  and  C2_3 
REMARK    2  A    between atoms: C2_3  and  C3_4 
REMARK    3  A    between atoms: C3_4  and  C4_5 
ROOT
HETATM    1  C4  UNL     1      27.295   2.067  53.385  1.00  0.00     0.123 A 
HETATM    2  N1  UNL     1      26.857   1.448  52.353  1.00  0.00    -0.237 NA
HETATM    3  C5  UNL     1      25.447   1.603  52.287  1.00  0.00     0.167 A 
HETATM    4  C6  UNL     1      25.133   2.361  51.019  1.00  0.00     0.056 C 
HETATM    5  C7  UNL     1      24.615   2.943  49.910  1.00  0.00     0.006 C 
HETATM    6  C8  UNL     1      23.265   2.938  49.262  1.00  0.00     0.015 C 
HETATM    7  C9  UNL     1      21.955   2.738  48.927  1.00  0.00     0.096 A 
HETATM    8  C10 UNL     1      20.781   2.006  49.452  1.00  0.00    -0.005 A 
HETATM    9 BR1  UNL     1      20.293   2.919  47.828  1.00  0.00    -0.121 Br
HETATM   10  C11 UNL     1      19.954   1.265  50.166  1.00  0.00     0.047 C 
HETATM   11  C12 UNL     1      19.996   0.485  51.374  1.00  0.00     0.071 A 
HETATM   12  N2  UNL     1      18.784   0.134  51.807  1.00  0.00    -0.241 NA
HETATM   13  C13 UNL     1      18.508  -0.566  52.909  1.00  0.00     0.234 A 
HETATM   14  N3  UNL     1      19.493  -0.996  53.713  1.00  0.00    -0.241 NA
HETATM   15  C14 UNL     1      20.763  -0.671  53.327  1.00  0.00     0.070 A 
HETATM   16  C15 UNL     1      21.751  -1.109  54.178  1.00  0.00     0.035 A 
HETATM   17  C16 UNL     1      23.097  -0.830  53.910  1.00  0.00     0.031 A 
HETATM   18  C17 UNL     1      23.461  -0.099  52.772  1.00  0.00     0.031 A 
HETATM   19  C18 UNL     1      22.338   0.227  52.080  1.00  0.00     0.045 A 
HETATM   20  C19 UNL     1      21.000   0.051  52.183  1.00  0.00     0.024 A 
HETATM   21  N4  UNL     1      24.754   0.316  52.343  1.00  0.00    -0.357 N 
HETATM   22  C20 UNL     1      25.123   2.432  53.472  1.00  0.00     0.147 A 
HETATM   23  N5  UNL     1      26.240   2.693  54.106  1.00  0.00    -0.245 NA
HETATM   24  H15 UNL     1      24.999  -0.669  52.102  1.00  0.00     0.162 HD
ENDROOT
BRANCH   1  25
HETATM   25  C3  UNL     1      28.728   2.125  53.779  1.00  0.00     0.087 C 
BRANCH  25  26
HETATM   26  C2  UNL     1      29.085   0.927  54.650  1.00  0.00     0.077 C 
BRANCH  26  27
HETATM   27  C1  UNL     1      29.423  -0.261  53.814  1.00  0.00     0.231 C 
HETATM   28  O1  UNL     1      28.845  -1.344  53.808  1.00  0.00    -0.307 OA
ENDBRANCH  26  27
ENDBRANCH  25  26
ENDBRANCH   1  25
TORSDOF 3
ENDMDL
MODEL 5
REMARK VINA RESULT:      -8.6      3.840      6.577
REMARK  3 active torsions:
REMARK  status: ('A' for Active; 'I' for Inactive)
REMARK    1  A    between atoms: C1_2  and  C2_3 
REMARK    2  A    between atoms: C2_3  and  C3_4 
REMARK    3  A    between atoms: C3_4  and  C4_5 
ROOT
HETATM    1  C4  UNL     1      23.344   5.545  48.408  1.00  0.00     0.123 A 
HETATM    2  N1  UNL     1      23.927   5.467  49.545  1.00  0.00    -0.237 NA
HETATM    3  C5  UNL     1      23.811   4.138  50.031  1.00  0.00     0.167 A 
HETATM    4  C6  UNL     1      25.207   3.570  50.135  1.00  0.00     0.056 C 
HETATM    5  C7  UNL     1      26.352   2.890  50.390  1.00  0.00     0.006 C 
HETATM    6  C8  UNL     1      26.697   1.708  51.240  1.00  0.00     0.015 C 
HETATM    7  C9  UNL     1      26.688   0.636  52.089  1.00  0.00     0.096 A 
HETATM    8  C10 UNL     1      25.712  -0.112  52.912  1.00  0.00    -0.005 A 
HETATM    9 BR1  UNL     1      27.461  -0.891  53.126  1.00  0.00    -0.121 Br
HETATM   10  C11 UNL     1      24.623  -0.552  53.515  1.00  0.00     0.047 C 
HETATM   11  C12 UNL     1      23.226  -0.215  53.568  1.00  0.00     0.071 A 
HETATM   12  N2  UNL     1      22.485  -1.162  54.147  1.00  0.00    -0.241 NA
HETATM   13  C13 UNL     1      21.162  -1.142  54.315  1.00  0.00     0.234 A 
HETATM   14  N3  UNL     1      20.432  -0.100  53.887  1.00  0.00    -0.241 NA
HETATM   15  C14 UNL     1      21.130   0.909  53.283  1.00  0.00     0.070 A 
HETATM   16  C15 UNL     1      20.355   1.955  52.838  1.00  0.00     0.035 A 
HETATM   17  C16 UNL     1      20.940   3.047  52.187  1.00  0.00     0.031 A 
HETATM   18  C17 UNL     1      22.324   3.094  51.974  1.00  0.00     0.031 A 
HETATM   19  C18 UNL     1      22.886   1.969  52.490  1.00  0.00     0.045 A 
HETATM   20  C19 UNL     1      22.493   0.845  53.132  1.00  0.00     0.024 A 
HETATM   21  N4  UNL     1      23.101   4.084  51.308  1.00  0.00    -0.357 N 
HETATM   22  C20 UNL     1      23.050   3.435  48.971  1.00  0.00     0.147 A 
HETATM   23  N5  UNL     1      22.785   4.295  48.019  1.00  0.00    -0.245 NA
HETATM   24  H15 UNL     1      22.942   4.749  52.096  1.00  0.00     0.162 HD
ENDROOT
BRANCH   1  25
HETATM   25  C3  UNL     1      23.261   6.788  47.594  1.00  0.00     0.087 C 
BRANCH  25  26
HETATM   26  C2  UNL     1      24.612   7.491  47.566  1.00  0.00     0.077 C 
BRANCH  26  27
HETATM   27  C1  UNL     1      24.568   8.769  48.333  1.00  0.00     0.231 C 
HETATM   28  O1  UNL     1      25.231   9.052  49.327  1.00  0.00    -0.307 OA
ENDBRANCH  26  27
ENDBRANCH  25  26
ENDBRANCH   1  25
TORSDOF 3
ENDMDL
MODEL 6
REMARK VINA RESULT:      -8.4      7.785      9.423
REMARK  3 active torsions:
REMARK  status: ('A' for Active; 'I' for Inactive)
REMARK    1  A    between atoms: C1_2  and  C2_3 
REMARK    2  A    between atoms: C2_3  and  C3_4 
REMARK    3  A    between atoms: C3_4  and  C4_5 
ROOT
HETATM    1  C4  UNL     1      32.240   5.001  47.792  1.00  0.00     0.123 A 
HETATM    2  N1  UNL     1      31.445   5.204  48.775  1.00  0.00    -0.237 NA
HETATM    3  C5  UNL     1      30.513   6.211  48.411  1.00  0.00     0.167 A 
HETATM    4  C6  UNL     1      29.139   5.583  48.424  1.00  0.00     0.056 C 
HETATM    5  C7  UNL     1      27.822   5.263  48.453  1.00  0.00     0.006 C 
HETATM    6  C8  UNL     1      26.557   6.057  48.549  1.00  0.00     0.015 C 
HETATM    7  C9  UNL     1      25.610   7.039  48.642  1.00  0.00     0.096 A 
HETATM    8  C10 UNL     1      25.556   8.515  48.726  1.00  0.00    -0.005 A 
HETATM    9 BR1  UNL     1      23.766   7.805  48.772  1.00  0.00    -0.121 Br
HETATM   10  C11 UNL     1      25.848   9.801  48.782  1.00  0.00     0.047 C 
HETATM   11  C12 UNL     1      27.025  10.629  48.769  1.00  0.00     0.071 A 
HETATM   12  N2  UNL     1      26.750  11.921  48.585  1.00  0.00    -0.241 NA
HETATM   13  C13 UNL     1      27.634  12.916  48.502  1.00  0.00     0.234 A 
HETATM   14  N3  UNL     1      28.950  12.674  48.605  1.00  0.00    -0.241 NA
HETATM   15  C14 UNL     1      29.303  11.367  48.795  1.00  0.00     0.070 A 
HETATM   16  C15 UNL     1      30.658  11.146  48.881  1.00  0.00     0.035 A 
HETATM   17  C16 UNL     1      31.158   9.851  49.059  1.00  0.00     0.031 A 
HETATM   18  C17 UNL     1      30.288   8.756  49.153  1.00  0.00     0.031 A 
HETATM   19  C18 UNL     1      29.009   9.201  49.046  1.00  0.00     0.045 A 
HETATM   20  C19 UNL     1      28.358  10.375  48.875  1.00  0.00     0.024 A 
HETATM   21  N4  UNL     1      30.592   7.373  49.297  1.00  0.00    -0.357 N 
HETATM   22  C20 UNL     1      30.898   6.573  47.027  1.00  0.00     0.147 A 
HETATM   23  N5  UNL     1      31.927   5.838  46.684  1.00  0.00    -0.245 NA
HETATM   24  H15 UNL     1      30.904   7.535  50.279  1.00  0.00     0.162 HD
ENDROOT
BRANCH   1  25
HETATM   25  C3  UNL     1      33.352   4.012  47.806  1.00  0.00     0.087 C 
BRANCH  25  26
HETATM   26  C2  UNL     1      34.673   4.699  47.484  1.00  0.00     0.077 C 
BRANCH  26  27
HETATM   27  C1  UNL     1      35.016   5.713  48.522  1.00  0.00     0.231 C 
HETATM   28  O1  UNL     1      35.717   5.539  49.515  1.00  0.00    -0.307 OA
ENDBRANCH  26  27
ENDBRANCH  25  26
ENDBRANCH   1  25
TORSDOF 3
ENDMDL
MODEL 7
REMARK VINA RESULT:      -7.9      7.829      9.861
REMARK  3 active torsions:
REMARK  status: ('A' for Active; 'I' for Inactive)
REMARK    1  A    between atoms: C1_2  and  C2_3 
REMARK    2  A    between atoms: C2_3  and  C3_4 
REMARK    3  A    between atoms: C3_4  and  C4_5 
ROOT
HETATM    1  C4  UNL     1      33.503   5.554  47.875  1.00  0.00     0.123 A 
HETATM    2  N1  UNL     1      32.792   6.284  47.098  1.00  0.00    -0.237 NA
HETATM    3  C5  UNL     1      31.747   6.877  47.854  1.00  0.00     0.167 A 
HETATM    4  C6  UNL     1      31.952   8.373  47.813  1.00  0.00     0.056 C 
HETATM    5  C7  UNL     1      31.886   9.727  47.843  1.00  0.00     0.006 C 
HETATM    6  C8  UNL     1      30.800  10.713  48.138  1.00  0.00     0.015 C 
HETATM    7  C9  UNL     1      29.626  11.340  48.456  1.00  0.00     0.096 A 
HETATM    8  C10 UNL     1      28.243  10.970  48.826  1.00  0.00    -0.005 A 
HETATM    9 BR1  UNL     1      28.401  12.889  48.778  1.00  0.00    -0.121 Br
HETATM   10  C11 UNL     1      27.132  10.323  49.126  1.00  0.00     0.047 C 
HETATM   11  C12 UNL     1      26.694   8.958  49.250  1.00  0.00     0.071 A 
HETATM   12  N2  UNL     1      25.506   8.845  49.844  1.00  0.00    -0.241 NA
HETATM   13  C13 UNL     1      24.860   7.711  50.119  1.00  0.00     0.234 A 
HETATM   14  N3  UNL     1      25.395   6.523  49.795  1.00  0.00    -0.241 NA
HETATM   15  C14 UNL     1      26.615   6.565  49.181  1.00  0.00     0.070 A 
HETATM   16  C15 UNL     1      27.147   5.333  48.876  1.00  0.00     0.035 A 
HETATM   17  C16 UNL     1      28.399   5.231  48.260  1.00  0.00     0.031 A 
HETATM   18  C17 UNL     1      29.135   6.381  47.943  1.00  0.00     0.031 A 
HETATM   19  C18 UNL     1      28.427   7.475  48.327  1.00  0.00     0.045 A 
HETATM   20  C19 UNL     1      27.242   7.757  48.917  1.00  0.00     0.024 A 
HETATM   21  N4  UNL     1      30.427   6.491  47.355  1.00  0.00    -0.357 N 
HETATM   22  C20 UNL     1      31.964   6.367  49.228  1.00  0.00     0.147 A 
HETATM   23  N5  UNL     1      33.015   5.584  49.213  1.00  0.00    -0.245 NA
HETATM   24  H15 UNL     1      30.046   6.172  46.438  1.00  0.00     0.162 HD
ENDROOT
BRANCH   1  25
HETATM   25  C3  UNL     1      34.691   4.774  47.435  1.00  0.00     0.087 C 
BRANCH  25  26
HETATM   26  C2  UNL     1      34.498   3.296  47.750  1.00  0.00     0.077 C 
BRANCH  26  27
HETATM   27  C1  UNL     1      33.440   2.698  46.886  1.00  0.00     0.231 C 
HETATM   28  O1  UNL     1      32.720   1.742  47.161  1.00  0.00    -0.307 OA
ENDBRANCH  26  27
ENDBRANCH  25  26
ENDBRANCH   1  25
TORSDOF 3
ENDMDL
MODEL 8
REMARK VINA RESULT:      -7.8      3.824      5.726
REMARK  3 active torsions:
REMARK  status: ('A' for Active; 'I' for Inactive)
REMARK    1  A    between atoms: C1_2  and  C2_3 
REMARK    2  A    between atoms: C2_3  and  C3_4 
REMARK    3  A    between atoms: C3_4  and  C4_5 
ROOT
HETATM    1  C4  UNL     1      24.009   1.375  52.477  1.00  0.00     0.123 A 
HETATM    2  N1  UNL     1      24.132   1.580  51.219  1.00  0.00    -0.237 NA
HETATM    3  C5  UNL     1      24.257   2.975  50.991  1.00  0.00     0.167 A 
HETATM    4  C6  UNL     1      25.621   3.216  50.387  1.00  0.00     0.056 C 
HETATM    5  C7  UNL     1      26.742   3.654  49.765  1.00  0.00     0.006 C 
HETATM    6  C8  UNL     1      27.096   4.891  48.998  1.00  0.00     0.015 C 
HETATM    7  C9  UNL     1      27.105   6.104  48.367  1.00  0.00     0.096 A 
HETATM    8  C10 UNL     1      26.173   7.226  48.121  1.00  0.00    -0.005 A 
HETATM    9 BR1  UNL     1      27.871   7.611  47.297  1.00  0.00    -0.121 Br
HETATM   10  C11 UNL     1      25.129   8.032  48.082  1.00  0.00     0.047 C 
HETATM   11  C12 UNL     1      23.776   8.048  48.572  1.00  0.00     0.071 A 
HETATM   12  N2  UNL     1      23.201   9.247  48.473  1.00  0.00    -0.241 NA
HETATM   13  C13 UNL     1      21.969   9.571  48.867  1.00  0.00     0.234 A 
HETATM   14  N3  UNL     1      21.166   8.654  49.430  1.00  0.00    -0.241 NA
HETATM   15  C14 UNL     1      21.693   7.400  49.562  1.00  0.00     0.070 A 
HETATM   16  C15 UNL     1      20.855   6.486  50.157  1.00  0.00     0.035 A 
HETATM   17  C16 UNL     1      21.276   5.168  50.370  1.00  0.00     0.031 A 
HETATM   18  C17 UNL     1      22.558   4.756  49.982  1.00  0.00     0.031 A 
HETATM   19  C18 UNL     1      23.206   5.810  49.420  1.00  0.00     0.045 A 
HETATM   20  C19 UNL     1      22.967   7.112  49.141  1.00  0.00     0.024 A 
HETATM   21  N4  UNL     1      23.183   3.487  50.139  1.00  0.00    -0.357 N 
HETATM   22  C20 UNL     1      24.186   3.568  52.347  1.00  0.00     0.147 A 
HETATM   23  N5  UNL     1      24.039   2.594  53.212  1.00  0.00    -0.245 NA
HETATM   24  H15 UNL     1      22.555   3.078  49.414  1.00  0.00     0.162 HD
ENDROOT
BRANCH   1  25
HETATM   25  C3  UNL     1      23.854   0.030  53.094  1.00  0.00     0.087 C 
BRANCH  25  26
HETATM   26  C2  UNL     1      25.208  -0.660  53.201  1.00  0.00     0.077 C 
BRANCH  26  27
HETATM   27  C1  UNL     1      25.917  -0.257  54.450  1.00  0.00     0.231 C 
HETATM   28  O1  UNL     1      25.754  -0.728  55.572  1.00  0.00    -0.307 OA
ENDBRANCH  26  27
ENDBRANCH  25  26
ENDBRANCH   1  25
TORSDOF 3
ENDMDL
MODEL 9
REMARK VINA RESULT:      -7.4      3.021      4.580
REMARK  3 active torsions:
REMARK  status: ('A' for Active; 'I' for Inactive)
REMARK    1  A    between atoms: C1_2  and  C2_3 
REMARK    2  A    between atoms: C2_3  and  C3_4 
REMARK    3  A    between atoms: C3_4  and  C4_5 
ROOT
HETATM    1  C4  UNL     1      25.806   0.777  53.068  1.00  0.00     0.123 A 
HETATM    2  N1  UNL     1      25.700   0.910  51.798  1.00  0.00    -0.237 NA
HETATM    3  C5  UNL     1      25.055   2.143  51.517  1.00  0.00     0.167 A 
HETATM    4  C6  UNL     1      26.035   3.004  50.755  1.00  0.00     0.056 C 
HETATM    5  C7  UNL     1      26.704   3.906  49.997  1.00  0.00     0.006 C 
HETATM    6  C8  UNL     1      26.292   5.076  49.159  1.00  0.00     0.015 C 
HETATM    7  C9  UNL     1      25.612   6.060  48.496  1.00  0.00     0.096 A 
HETATM    8  C10 UNL     1      24.213   6.511  48.326  1.00  0.00    -0.005 A 
HETATM    9 BR1  UNL     1      25.383   7.649  47.303  1.00  0.00    -0.121 Br
HETATM   10  C11 UNL     1      22.902   6.652  48.383  1.00  0.00     0.047 C 
HETATM   11  C12 UNL     1      21.788   6.006  49.024  1.00  0.00     0.071 A 
HETATM   12  N2  UNL     1      20.663   6.720  48.956  1.00  0.00    -0.241 NA
HETATM   13  C13 UNL     1      19.481   6.390  49.479  1.00  0.00     0.234 A 
HETATM   14  N3  UNL     1      19.328   5.241  50.156  1.00  0.00    -0.241 NA
HETATM   15  C14 UNL     1      20.444   4.459  50.264  1.00  0.00     0.070 A 
HETATM   16  C15 UNL     1      20.262   3.296  50.977  1.00  0.00     0.035 A 
HETATM   17  C16 UNL     1      21.327   2.410  51.178  1.00  0.00     0.031 A 
HETATM   18  C17 UNL     1      22.598   2.692  50.658  1.00  0.00     0.031 A 
HETATM   19  C18 UNL     1      22.548   3.878  49.995  1.00  0.00     0.045 A 
HETATM   20  C19 UNL     1      21.640   4.838  49.708  1.00  0.00     0.024 A 
HETATM   21  N4  UNL     1      23.806   1.950  50.780  1.00  0.00    -0.357 N 
HETATM   22  C20 UNL     1      24.795   2.725  52.855  1.00  0.00     0.147 A 
HETATM   23  N5  UNL     1      25.252   1.893  53.759  1.00  0.00    -0.245 NA
HETATM   24  H15 UNL     1      23.428   1.215  50.143  1.00  0.00     0.162 HD
ENDROOT
BRANCH   1  25
HETATM   25  C3  UNL     1      26.431  -0.395  53.737  1.00  0.00     0.087 C 
BRANCH  25  26
HETATM   26  C2  UNL     1      27.486   0.067  54.734  1.00  0.00     0.077 C 
BRANCH  26  27
HETATM   27  C1  UNL     1      28.850  -0.362  54.308  1.00  0.00     0.231 C 
HETATM   28  O1  UNL     1      29.158  -1.441  53.808  1.00  0.00    -0.307 OA
ENDBRANCH  26  27
ENDBRANCH  25  26
ENDBRANCH   1  25
TORSDOF 3
ENDMDL
