MODEL 1
REMARK VINA RESULT:      -8.2      0.000      0.000
REMARK  4 active torsions:
REMARK  status: ('A' for Active; 'I' for Inactive)
REMARK    1  A    between atoms: C7_7  and  N1_8 
REMARK    2  A    between atoms: N1_8  and  C8_9 
REMARK    3  A    between atoms: C12_15  and  O1_16 
REMARK    4  A    between atoms: C15_19  and  O2_20 
ROOT
HETATM    1  C1  UNL     1      29.736  -2.059  53.442  1.00  0.00     0.018 C 
HETATM    2  C2  UNL     1      28.903  -1.174  53.374  1.00  0.00    -0.078 C 
HETATM    3  C3  UNL     1      27.919  -0.115  53.269  1.00  0.00     0.019 A 
HETATM    4  C4  UNL     1      28.381   1.127  53.593  1.00  0.00     0.021 A 
HETATM    5  C5  UNL     1      27.525   2.202  53.529  1.00  0.00     0.004 A 
HETATM    6  C6  UNL     1      26.237   1.945  53.134  1.00  0.00     0.029 A 
HETATM    7  C7  UNL     1      25.696   0.711  52.790  1.00  0.00     0.035 A 
HETATM    8  C18 UNL     1      26.614  -0.324  52.877  1.00  0.00     0.050 A 
ENDROOT
BRANCH   7   9
HETATM    9  N1  UNL     1      24.370   0.420  52.365  1.00  0.00    -0.340 N 
HETATM   10  H5  UNL     1      24.415   0.729  51.383  1.00  0.00     0.167 HD
BRANCH   9  11
HETATM   11  C8  UNL     1      23.401  -0.150  53.217  1.00  0.00     0.144 A 
HETATM   12  N2  UNL     1      23.752  -0.737  54.362  1.00  0.00    -0.223 NA
HETATM   13  C9  UNL     1      22.877  -1.288  55.213  1.00  0.00     0.236 A 
HETATM   14  N3  UNL     1      21.561  -1.286  54.962  1.00  0.00    -0.241 NA
HETATM   15  C10 UNL     1      21.138  -0.711  53.826  1.00  0.00     0.077 A 
HETATM   16  C11 UNL     1      19.785  -0.717  53.589  1.00  0.00     0.069 A 
HETATM   17  C17 UNL     1      22.070  -0.156  52.979  1.00  0.00     0.072 A 
HETATM   18  C12 UNL     1      19.271  -0.145  52.446  1.00  0.00     0.073 A 
HETATM   19  C14 UNL     1      20.200   0.418  51.583  1.00  0.00     0.074 A 
HETATM   20  C15 UNL     1      21.562   0.417  51.836  1.00  0.00     0.087 A 
BRANCH  18  21
HETATM   21  O1  UNL     1      17.933  -0.118  52.151  1.00  0.00    -0.356 OA
HETATM   22  C13 UNL     1      16.978  -1.024  52.600  1.00  0.00     0.210 C 
ENDBRANCH  18  21
BRANCH  20  23
HETATM   23  O2  UNL     1      22.326   1.011  50.885  1.00  0.00    -0.355 OA
HETATM   24  C16 UNL     1      21.927   1.646  49.711  1.00  0.00     0.210 C 
ENDBRANCH  20  23
ENDBRANCH   9  11
ENDBRANCH   7   9
TORSDOF 4
ENDMDL
MODEL 2
REMARK VINA RESULT:      -7.9      3.956      5.523
REMARK  4 active torsions:
REMARK  status: ('A' for Active; 'I' for Inactive)
REMARK    1  A    between atoms: C7_7  and  N1_8 
REMARK    2  A    between atoms: N1_8  and  C8_9 
REMARK    3  A    between atoms: C12_15  and  O1_16 
REMARK    4  A    between atoms: C15_19  and  O2_20 
ROOT
HETATM    1  C1  UNL     1      30.425   5.644  47.827  1.00  0.00     0.018 C 
HETATM    2  C2  UNL     1      29.256   5.602  48.163  1.00  0.00    -0.078 C 
HETATM    3  C3  UNL     1      27.856   5.550  48.538  1.00  0.00     0.019 A 
HETATM    4  C4  UNL     1      27.193   6.736  48.432  1.00  0.00     0.021 A 
HETATM    5  C5  UNL     1      25.859   6.795  48.767  1.00  0.00     0.004 A 
HETATM    6  C6  UNL     1      25.277   5.629  49.192  1.00  0.00     0.029 A 
HETATM    7  C7  UNL     1      25.887   4.386  49.326  1.00  0.00     0.035 A 
HETATM    8  C18 UNL     1      27.227   4.402  48.971  1.00  0.00     0.050 A 
ENDROOT
BRANCH   7   9
HETATM    9  N1  UNL     1      25.304   3.161  49.752  1.00  0.00    -0.340 N 
HETATM   10  H5  UNL     1      24.628   3.001  48.991  1.00  0.00     0.167 HD
BRANCH   9  11
HETATM   11  C8  UNL     1      25.694   2.496  50.932  1.00  0.00     0.144 A 
HETATM   12  N2  UNL     1      26.939   2.600  51.399  1.00  0.00    -0.223 NA
HETATM   13  C9  UNL     1      27.366   1.998  52.517  1.00  0.00     0.236 A 
HETATM   14  N3  UNL     1      26.550   1.235  53.256  1.00  0.00    -0.241 NA
HETATM   15  C10 UNL     1      25.282   1.087  52.843  1.00  0.00     0.077 A 
HETATM   16  C11 UNL     1      24.460   0.303  53.616  1.00  0.00     0.069 A 
HETATM   17  C17 UNL     1      24.883   1.723  51.689  1.00  0.00     0.072 A 
HETATM   18  C12 UNL     1      23.144   0.104  53.261  1.00  0.00     0.073 A 
HETATM   19  C14 UNL     1      22.731   0.739  52.099  1.00  0.00     0.074 A 
HETATM   20  C15 UNL     1      23.570   1.528  51.330  1.00  0.00     0.087 A 
BRANCH  18  21
HETATM   21  O1  UNL     1      22.274  -0.666  53.988  1.00  0.00    -0.356 OA
HETATM   22  C13 UNL     1      22.553  -1.294  55.197  1.00  0.00     0.210 C 
ENDBRANCH  18  21
BRANCH  20  23
HETATM   23  O2  UNL     1      23.000   2.072  50.226  1.00  0.00    -0.355 OA
HETATM   24  C16 UNL     1      22.020   1.538  49.392  1.00  0.00     0.210 C 
ENDBRANCH  20  23
ENDBRANCH   9  11
ENDBRANCH   7   9
TORSDOF 4
ENDMDL
MODEL 3
REMARK VINA RESULT:      -7.7      2.097      3.298
REMARK  4 active torsions:
REMARK  status: ('A' for Active; 'I' for Inactive)
REMARK    1  A    between atoms: C7_7  and  N1_8 
REMARK    2  A    between atoms: N1_8  and  C8_9 
REMARK    3  A    between atoms: C12_15  and  O1_16 
REMARK    4  A    between atoms: C15_19  and  O2_20 
ROOT
HETATM    1  C1  UNL     1      27.267  -2.104  52.675  1.00  0.00     0.018 C 
HETATM    2  C2  UNL     1      26.701  -1.042  52.492  1.00  0.00    -0.078 C 
HETATM    3  C3  UNL     1      26.020   0.215  52.251  1.00  0.00     0.019 A 
HETATM    4  C4  UNL     1      26.754   1.139  51.568  1.00  0.00     0.021 A 
HETATM    5  C5  UNL     1      26.199   2.368  51.290  1.00  0.00     0.004 A 
HETATM    6  C6  UNL     1      24.918   2.582  51.729  1.00  0.00     0.029 A 
HETATM    7  C7  UNL     1      24.111   1.691  52.429  1.00  0.00     0.035 A 
HETATM    8  C18 UNL     1      24.734   0.476  52.673  1.00  0.00     0.050 A 
ENDROOT
BRANCH   7   9
HETATM    9  N1  UNL     1      22.777   1.883  52.883  1.00  0.00    -0.340 N 
HETATM   10  H5  UNL     1      22.946   2.093  53.877  1.00  0.00     0.167 HD
BRANCH   9  11
HETATM   11  C8  UNL     1      21.656   1.778  52.034  1.00  0.00     0.144 A 
HETATM   12  N2  UNL     1      21.552   2.531  50.938  1.00  0.00    -0.223 NA
HETATM   13  C9  UNL     1      20.515   2.471  50.091  1.00  0.00     0.236 A 
HETATM   14  N3  UNL     1      19.493   1.631  50.296  1.00  0.00    -0.241 NA
HETATM   15  C10 UNL     1      19.534   0.843  51.381  1.00  0.00     0.077 A 
HETATM   16  C11 UNL     1      18.477  -0.014  51.572  1.00  0.00     0.069 A 
HETATM   17  C17 UNL     1      20.617   0.935  52.226  1.00  0.00     0.072 A 
HETATM   18  C12 UNL     1      18.445  -0.857  52.661  1.00  0.00     0.073 A 
HETATM   19  C14 UNL     1      19.531  -0.772  53.520  1.00  0.00     0.074 A 
HETATM   20  C15 UNL     1      20.590   0.096  53.315  1.00  0.00     0.087 A 
BRANCH  18  21
HETATM   21  O1  UNL     1      17.422  -1.734  52.907  1.00  0.00    -0.356 OA
HETATM   22  C13 UNL     1      17.510  -2.905  53.652  1.00  0.00     0.210 C 
ENDBRANCH  18  21
BRANCH  20  23
HETATM   23  O2  UNL     1      21.567   0.047  54.255  1.00  0.00    -0.355 OA
HETATM   24  C16 UNL     1      22.105  -1.062  54.903  1.00  0.00     0.210 C 
ENDBRANCH  20  23
ENDBRANCH   9  11
ENDBRANCH   7   9
TORSDOF 4
ENDMDL
MODEL 4
REMARK VINA RESULT:      -7.7      2.183      7.375
REMARK  4 active torsions:
REMARK  status: ('A' for Active; 'I' for Inactive)
REMARK    1  A    between atoms: C7_7  and  N1_8 
REMARK    2  A    between atoms: N1_8  and  C8_9 
REMARK    3  A    between atoms: C12_15  and  O1_16 
REMARK    4  A    between atoms: C15_19  and  O2_20 
ROOT
HETATM    1  C1  UNL     1      17.255  -1.284  52.917  1.00  0.00     0.018 C 
HETATM    2  C2  UNL     1      18.164  -0.640  52.426  1.00  0.00    -0.078 C 
HETATM    3  C3  UNL     1      19.233   0.148  51.845  1.00  0.00     0.019 A 
HETATM    4  C4  UNL     1      19.054   0.473  50.533  1.00  0.00     0.021 A 
HETATM    5  C5  UNL     1      20.013   1.218  49.887  1.00  0.00     0.004 A 
HETATM    6  C6  UNL     1      21.108   1.591  50.624  1.00  0.00     0.029 A 
HETATM    7  C7  UNL     1      21.359   1.298  51.960  1.00  0.00     0.035 A 
HETATM    8  C18 UNL     1      20.352   0.546  52.546  1.00  0.00     0.050 A 
ENDROOT
BRANCH   7   9
HETATM    9  N1  UNL     1      22.477   1.682  52.750  1.00  0.00    -0.340 N 
HETATM   10  H5  UNL     1      22.027   1.796  53.670  1.00  0.00     0.167 HD
BRANCH   9  11
HETATM   11  C8  UNL     1      23.779   1.809  52.223  1.00  0.00     0.144 A 
HETATM   12  N2  UNL     1      24.084   2.789  51.372  1.00  0.00    -0.223 NA
HETATM   13  C9  UNL     1      25.304   2.963  50.845  1.00  0.00     0.236 A 
HETATM   14  N3  UNL     1      26.319   2.144  51.147  1.00  0.00    -0.241 NA
HETATM   15  C10 UNL     1      26.082   1.136  51.999  1.00  0.00     0.077 A 
HETATM   16  C11 UNL     1      27.138   0.308  52.298  1.00  0.00     0.069 A 
HETATM   17  C17 UNL     1      24.815   0.991  52.518  1.00  0.00     0.072 A 
HETATM   18  C12 UNL     1      26.976  -0.749  53.166  1.00  0.00     0.073 A 
HETATM   19  C14 UNL     1      25.703  -0.905  53.695  1.00  0.00     0.074 A 
HETATM   20  C15 UNL     1      24.648  -0.063  53.385  1.00  0.00     0.087 A 
BRANCH  18  21
HETATM   21  O1  UNL     1      27.988  -1.609  53.505  1.00  0.00    -0.356 OA
HETATM   22  C13 UNL     1      29.349  -1.331  53.450  1.00  0.00     0.210 C 
ENDBRANCH  18  21
BRANCH  20  23
HETATM   23  O2  UNL     1      23.473  -0.363  53.993  1.00  0.00    -0.355 OA
HETATM   24  C16 UNL     1      23.235  -1.216  55.068  1.00  0.00     0.210 C 
ENDBRANCH  20  23
ENDBRANCH   9  11
ENDBRANCH   7   9
TORSDOF 4
ENDMDL
MODEL 5
REMARK VINA RESULT:      -7.7      3.892      6.018
REMARK  4 active torsions:
REMARK  status: ('A' for Active; 'I' for Inactive)
REMARK    1  A    between atoms: C7_7  and  N1_8 
REMARK    2  A    between atoms: N1_8  and  C8_9 
REMARK    3  A    between atoms: C12_15  and  O1_16 
REMARK    4  A    between atoms: C15_19  and  O2_20 
ROOT
HETATM    1  C1  UNL     1      24.131   8.678  49.329  1.00  0.00     0.018 C 
HETATM    2  C2  UNL     1      24.790   7.656  49.261  1.00  0.00    -0.078 C 
HETATM    3  C3  UNL     1      25.587   6.447  49.200  1.00  0.00     0.019 A 
HETATM    4  C4  UNL     1      26.803   6.595  48.602  1.00  0.00     0.021 A 
HETATM    5  C5  UNL     1      27.637   5.505  48.491  1.00  0.00     0.004 A 
HETATM    6  C6  UNL     1      27.176   4.320  49.003  1.00  0.00     0.029 A 
HETATM    7  C7  UNL     1      25.952   4.093  49.624  1.00  0.00     0.035 A 
HETATM    8  C18 UNL     1      25.167   5.233  49.700  1.00  0.00     0.050 A 
ENDROOT
BRANCH   7   9
HETATM    9  N1  UNL     1      25.457   2.879  50.174  1.00  0.00    -0.340 N 
HETATM   10  H5  UNL     1      24.710   2.658  49.499  1.00  0.00     0.167 HD
BRANCH   9  11
HETATM   11  C8  UNL     1      25.991   2.291  51.339  1.00  0.00     0.144 A 
HETATM   12  N2  UNL     1      27.245   2.538  51.720  1.00  0.00    -0.223 NA
HETATM   13  C9  UNL     1      27.805   2.015  52.819  1.00  0.00     0.236 A 
HETATM   14  N3  UNL     1      27.124   1.190  53.625  1.00  0.00    -0.241 NA
HETATM   15  C10 UNL     1      25.855   0.899  53.301  1.00  0.00     0.077 A 
HETATM   16  C11 UNL     1      25.173   0.053  54.143  1.00  0.00     0.069 A 
HETATM   17  C17 UNL     1      25.317   1.458  52.163  1.00  0.00     0.072 A 
HETATM   18  C12 UNL     1      23.865  -0.292  53.880  1.00  0.00     0.073 A 
HETATM   19  C14 UNL     1      23.313   0.264  52.736  1.00  0.00     0.074 A 
HETATM   20  C15 UNL     1      24.012   1.115  51.897  1.00  0.00     0.087 A 
BRANCH  18  21
HETATM   21  O1  UNL     1      23.131  -1.130  54.679  1.00  0.00    -0.356 OA
HETATM   22  C13 UNL     1      21.761  -1.352  54.588  1.00  0.00     0.210 C 
ENDBRANCH  18  21
BRANCH  20  23
HETATM   23  O2  UNL     1      23.317   1.566  50.822  1.00  0.00    -0.355 OA
HETATM   24  C16 UNL     1      22.000   1.301  50.456  1.00  0.00     0.210 C 
ENDBRANCH  20  23
ENDBRANCH   9  11
ENDBRANCH   7   9
TORSDOF 4
ENDMDL
MODEL 6
REMARK VINA RESULT:      -7.4      1.534      3.147
REMARK  4 active torsions:
REMARK  status: ('A' for Active; 'I' for Inactive)
REMARK    1  A    between atoms: C7_7  and  N1_8 
REMARK    2  A    between atoms: N1_8  and  C8_9 
REMARK    3  A    between atoms: C12_15  and  O1_16 
REMARK    4  A    between atoms: C15_19  and  O2_20 
ROOT
HETATM    1  C1  UNL     1      29.772   2.114  54.592  1.00  0.00     0.018 C 
HETATM    2  C2  UNL     1      28.841   1.443  54.185  1.00  0.00    -0.078 C 
HETATM    3  C3  UNL     1      27.732   0.632  53.723  1.00  0.00     0.019 A 
HETATM    4  C4  UNL     1      28.084  -0.594  53.242  1.00  0.00     0.021 A 
HETATM    5  C5  UNL     1      27.105  -1.441  52.775  1.00  0.00     0.004 A 
HETATM    6  C6  UNL     1      25.813  -0.983  52.830  1.00  0.00     0.029 A 
HETATM    7  C7  UNL     1      25.380   0.250  53.305  1.00  0.00     0.035 A 
HETATM    8  C18 UNL     1      26.418   1.049  53.757  1.00  0.00     0.050 A 
ENDROOT
BRANCH   7   9
HETATM    9  N1  UNL     1      24.048   0.743  53.384  1.00  0.00    -0.340 N 
HETATM   10  H5  UNL     1      23.895   0.707  54.402  1.00  0.00     0.167 HD
BRANCH   9  11
HETATM   11  C8  UNL     1      23.308   1.134  52.249  1.00  0.00     0.144 A 
HETATM   12  N2  UNL     1      23.866   1.862  51.281  1.00  0.00    -0.223 NA
HETATM   13  C9  UNL     1      23.216   2.257  50.179  1.00  0.00     0.236 A 
HETATM   14  N3  UNL     1      21.932   1.938  49.973  1.00  0.00    -0.241 NA
HETATM   15  C10 UNL     1      21.308   1.206  50.907  1.00  0.00     0.077 A 
HETATM   16  C11 UNL     1      19.991   0.887  50.676  1.00  0.00     0.069 A 
HETATM   17  C17 UNL     1      22.012   0.820  52.026  1.00  0.00     0.072 A 
HETATM   18  C12 UNL     1      19.281   0.137  51.587  1.00  0.00     0.073 A 
HETATM   19  C14 UNL     1      19.979  -0.257  52.718  1.00  0.00     0.074 A 
HETATM   20  C15 UNL     1      21.307   0.071  52.938  1.00  0.00     0.087 A 
BRANCH  18  21
HETATM   21  O1  UNL     1      17.967  -0.215  51.415  1.00  0.00    -0.356 OA
HETATM   22  C13 UNL     1      17.141  -0.784  52.378  1.00  0.00     0.210 C 
ENDBRANCH  18  21
BRANCH  20  23
HETATM   23  O2  UNL     1      21.832  -0.397  54.098  1.00  0.00    -0.355 OA
HETATM   24  C16 UNL     1      21.757  -1.678  54.641  1.00  0.00     0.210 C 
ENDBRANCH  20  23
ENDBRANCH   9  11
ENDBRANCH   7   9
TORSDOF 4
ENDMDL
MODEL 7
REMARK VINA RESULT:      -7.4      4.235      6.112
REMARK  4 active torsions:
REMARK  status: ('A' for Active; 'I' for Inactive)
REMARK    1  A    between atoms: C7_7  and  N1_8 
REMARK    2  A    between atoms: N1_8  and  C8_9 
REMARK    3  A    between atoms: C12_15  and  O1_16 
REMARK    4  A    between atoms: C15_19  and  O2_20 
ROOT
HETATM    1  C1  UNL     1      25.832   9.438  48.680  1.00  0.00     0.018 C 
HETATM    2  C2  UNL     1      26.033   8.249  48.842  1.00  0.00    -0.078 C 
HETATM    3  C3  UNL     1      26.289   6.837  49.052  1.00  0.00     0.019 A 
HETATM    4  C4  UNL     1      27.373   6.348  48.384  1.00  0.00     0.021 A 
HETATM    5  C5  UNL     1      27.701   5.019  48.515  1.00  0.00     0.004 A 
HETATM    6  C6  UNL     1      26.898   4.260  49.327  1.00  0.00     0.029 A 
HETATM    7  C7  UNL     1      25.781   4.687  50.037  1.00  0.00     0.035 A 
HETATM    8  C18 UNL     1      25.511   6.035  49.859  1.00  0.00     0.050 A 
ENDROOT
BRANCH   7   9
HETATM    9  N1  UNL     1      24.941   3.925  50.895  1.00  0.00    -0.340 N 
HETATM   10  H5  UNL     1      25.324   4.187  51.815  1.00  0.00     0.167 HD
BRANCH   9  11
HETATM   11  C8  UNL     1      23.905   3.097  50.415  1.00  0.00     0.144 A 
HETATM   12  N2  UNL     1      23.457   3.212  49.164  1.00  0.00    -0.223 NA
HETATM   13  C9  UNL     1      22.482   2.450  48.650  1.00  0.00     0.236 A 
HETATM   14  N3  UNL     1      21.880   1.501  49.378  1.00  0.00    -0.241 NA
HETATM   15  C10 UNL     1      22.283   1.330  50.646  1.00  0.00     0.077 A 
HETATM   16  C11 UNL     1      21.654   0.349  51.375  1.00  0.00     0.069 A 
HETATM   17  C17 UNL     1      23.288   2.134  51.136  1.00  0.00     0.072 A 
HETATM   18  C12 UNL     1      22.012   0.111  52.684  1.00  0.00     0.073 A 
HETATM   19  C14 UNL     1      23.023   0.915  53.189  1.00  0.00     0.074 A 
HETATM   20  C15 UNL     1      23.648   1.900  52.442  1.00  0.00     0.087 A 
BRANCH  18  21
HETATM   21  O1  UNL     1      21.425  -0.851  53.464  1.00  0.00    -0.356 OA
HETATM   22  C13 UNL     1      21.871  -1.278  54.710  1.00  0.00     0.210 C 
ENDBRANCH  18  21
BRANCH  20  23
HETATM   23  O2  UNL     1      24.615   2.592  53.095  1.00  0.00    -0.355 OA
HETATM   24  C16 UNL     1      25.720   2.109  53.792  1.00  0.00     0.210 C 
ENDBRANCH  20  23
ENDBRANCH   9  11
ENDBRANCH   7   9
TORSDOF 4
ENDMDL
MODEL 8
REMARK VINA RESULT:      -7.3      2.471      7.034
REMARK  4 active torsions:
REMARK  status: ('A' for Active; 'I' for Inactive)
REMARK    1  A    between atoms: C7_7  and  N1_8 
REMARK    2  A    between atoms: N1_8  and  C8_9 
REMARK    3  A    between atoms: C12_15  and  O1_16 
REMARK    4  A    between atoms: C15_19  and  O2_20 
ROOT
HETATM    1  C1  UNL     1      16.377   1.150  49.194  1.00  0.00     0.018 C 
HETATM    2  C2  UNL     1      17.373   1.447  49.828  1.00  0.00    -0.078 C 
HETATM    3  C3  UNL     1      18.547   1.793  50.605  1.00  0.00     0.019 A 
HETATM    4  C4  UNL     1      18.511   3.034  51.170  1.00  0.00     0.021 A 
HETATM    5  C5  UNL     1      19.579   3.461  51.926  1.00  0.00     0.004 A 
HETATM    6  C6  UNL     1      20.628   2.589  52.063  1.00  0.00     0.029 A 
HETATM    7  C7  UNL     1      20.736   1.313  51.518  1.00  0.00     0.035 A 
HETATM    8  C18 UNL     1      19.626   0.951  50.770  1.00  0.00     0.050 A 
ENDROOT
BRANCH   7   9
HETATM    9  N1  UNL     1      21.805   0.386  51.654  1.00  0.00    -0.340 N 
HETATM   10  H5  UNL     1      22.190   0.401  50.699  1.00  0.00     0.167 HD
BRANCH   9  11
HETATM   11  C8  UNL     1      22.101  -0.269  52.868  1.00  0.00     0.144 A 
HETATM   12  N2  UNL     1      21.164  -0.950  53.528  1.00  0.00    -0.223 NA
HETATM   13  C9  UNL     1      21.387  -1.597  54.680  1.00  0.00     0.236 A 
HETATM   14  N3  UNL     1      22.595  -1.600  55.256  1.00  0.00    -0.241 NA
HETATM   15  C10 UNL     1      23.586  -0.934  54.645  1.00  0.00     0.077 A 
HETATM   16  C11 UNL     1      24.819  -0.951  55.252  1.00  0.00     0.069 A 
HETATM   17  C17 UNL     1      23.315  -0.282  53.463  1.00  0.00     0.072 A 
HETATM   18  C12 UNL     1      25.888  -0.293  54.686  1.00  0.00     0.073 A 
HETATM   19  C14 UNL     1      25.628   0.368  53.495  1.00  0.00     0.074 A 
HETATM   20  C15 UNL     1      24.379   0.377  52.894  1.00  0.00     0.087 A 
BRANCH  18  21
HETATM   21  O1  UNL     1      27.142  -0.273  55.240  1.00  0.00    -0.356 OA
HETATM   22  C13 UNL     1      28.321   0.059  54.582  1.00  0.00     0.210 C 
ENDBRANCH  18  21
BRANCH  20  23
HETATM   23  O2  UNL     1      24.303   1.074  51.732  1.00  0.00    -0.355 OA
HETATM   24  C16 UNL     1      24.594   2.415  51.493  1.00  0.00     0.210 C 
ENDBRANCH  20  23
ENDBRANCH   9  11
ENDBRANCH   7   9
TORSDOF 4
ENDMDL
MODEL 9
REMARK VINA RESULT:      -7.2      4.110      5.684
REMARK  4 active torsions:
REMARK  status: ('A' for Active; 'I' for Inactive)
REMARK    1  A    between atoms: C7_7  and  N1_8 
REMARK    2  A    between atoms: N1_8  and  C8_9 
REMARK    3  A    between atoms: C12_15  and  O1_16 
REMARK    4  A    between atoms: C15_19  and  O2_20 
ROOT
HETATM    1  C1  UNL     1      30.347   5.499  47.873  1.00  0.00     0.018 C 
HETATM    2  C2  UNL     1      29.177   5.478  48.207  1.00  0.00    -0.078 C 
HETATM    3  C3  UNL     1      27.776   5.449  48.582  1.00  0.00     0.019 A 
HETATM    4  C4  UNL     1      27.120   6.635  48.427  1.00  0.00     0.021 A 
HETATM    5  C5  UNL     1      25.787   6.715  48.756  1.00  0.00     0.004 A 
HETATM    6  C6  UNL     1      25.196   5.571  49.228  1.00  0.00     0.029 A 
HETATM    7  C7  UNL     1      25.799   4.331  49.412  1.00  0.00     0.035 A 
HETATM    8  C18 UNL     1      27.140   4.324  49.060  1.00  0.00     0.050 A 
ENDROOT
BRANCH   7   9
HETATM    9  N1  UNL     1      25.207   3.128  49.887  1.00  0.00    -0.340 N 
HETATM   10  H5  UNL     1      26.015   2.490  49.840  1.00  0.00     0.167 HD
BRANCH   9  11
HETATM   11  C8  UNL     1      23.854   3.041  50.277  1.00  0.00     0.144 A 
HETATM   12  N2  UNL     1      22.912   3.745  49.648  1.00  0.00    -0.223 NA
HETATM   13  C9  UNL     1      21.612   3.699  49.969  1.00  0.00     0.236 A 
HETATM   14  N3  UNL     1      21.165   2.924  50.966  1.00  0.00    -0.241 NA
HETATM   15  C10 UNL     1      22.060   2.188  51.641  1.00  0.00     0.077 A 
HETATM   16  C11 UNL     1      21.582   1.398  52.658  1.00  0.00     0.069 A 
HETATM   17  C17 UNL     1      23.387   2.264  51.280  1.00  0.00     0.072 A 
HETATM   18  C12 UNL     1      22.437   0.611  53.397  1.00  0.00     0.073 A 
HETATM   19  C14 UNL     1      23.777   0.680  53.043  1.00  0.00     0.074 A 
HETATM   20  C15 UNL     1      24.246   1.481  52.015  1.00  0.00     0.087 A 
BRANCH  18  21
HETATM   21  O1  UNL     1      22.023  -0.198  54.423  1.00  0.00    -0.356 OA
HETATM   22  C13 UNL     1      22.733  -1.268  54.958  1.00  0.00     0.210 C 
ENDBRANCH  18  21
BRANCH  20  23
HETATM   23  O2  UNL     1      25.585   1.426  51.805  1.00  0.00    -0.355 OA
HETATM   24  C16 UNL     1      26.611   1.260  52.732  1.00  0.00     0.210 C 
ENDBRANCH  20  23
ENDBRANCH   9  11
ENDBRANCH   7   9
TORSDOF 4
ENDMDL
