MODEL 1
REMARK VINA RESULT:      -9.7      0.000      0.000
REMARK  0 active torsions:
REMARK  status: ('A' for Active; 'I' for Inactive)
ROOT
HETATM    1  O1  UNL     1      24.319   3.527  48.980  1.00  0.00    -0.271 OA
HETATM    2  C1  UNL     1      23.130   3.181  49.213  1.00  0.00     0.244 C 
HETATM    3  C2  UNL     1      22.533   2.755  47.936  1.00  0.00     0.278 C 
HETATM    4  O2  UNL     1      21.216   2.180  48.089  1.00  0.00    -0.340 OA
HETATM    5  C3  UNL     1      20.579   1.896  49.274  1.00  0.00     0.096 C 
HETATM    6  C4  UNL     1      21.059   1.804  50.501  1.00  0.00     0.032 C 
HETATM    7  C5  UNL     1      21.540   3.039  51.157  1.00  0.00     0.155 C 
HETATM    8  N1  UNL     1      22.842   3.343  50.610  1.00  0.00    -0.347 N 
HETATM    9  C6  UNL     1      23.832   3.825  51.495  1.00  0.00     0.127 C 
HETATM   10  C7  UNL     1      24.694   2.810  52.187  1.00  0.00     0.040 C 
HETATM   11  C8  UNL     1      23.869   1.889  53.011  1.00  0.00     0.124 C 
HETATM   12  N2  UNL     1      24.641   0.881  53.762  1.00  0.00    -0.380 N 
HETATM   13  C9  UNL     1      25.968   1.328  54.005  1.00  0.00     0.149 C 
HETATM   14  C10 UNL     1      26.889   0.167  54.290  1.00  0.00     0.187 C 
HETATM   15  O3  UNL     1      26.187  -0.979  53.923  1.00  0.00    -0.384 OA
HETATM   16  C11 UNL     1      25.002  -1.058  54.669  1.00  0.00     0.224 C 
HETATM   17  C12 UNL     1      23.888  -0.255  54.065  1.00  0.00     0.031 C 
HETATM   18  C13 UNL     1      22.869  -0.996  54.151  1.00  0.00     0.027 C 
HETATM   19  C14 UNL     1      21.500  -0.838  53.788  1.00  0.00     0.003 C 
HETATM   20  C15 UNL     1      20.426  -1.534  53.859  1.00  0.00     0.020 C 
HETATM   21  C16 UNL     1      19.052  -1.517  53.553  1.00  0.00     0.015 A 
HETATM   22 CL1  UNL     1      17.962  -2.794  53.891  1.00  0.00    -0.174 Cl
HETATM   23  C17 UNL     1      18.015  -0.911  53.065  1.00  0.00     0.132 A 
HETATM   24  C18 UNL     1      16.689  -0.499  52.597  1.00  0.00     0.146 C 
HETATM   25  N3  UNL     1      16.601  -0.212  51.184  1.00  0.00    -0.373 N 
HETATM   26  C19 UNL     1      17.175   0.701  50.292  1.00  0.00     0.127 A 
HETATM   27  C20 UNL     1      18.542   0.741  50.261  1.00  0.00     0.084 A 
HETATM   28  C21 UNL     1      19.180   1.625  49.446  1.00  0.00     0.095 A 
HETATM   29  N4  UNL     1      18.504   2.484  48.644  1.00  0.00    -0.239 NA
HETATM   30  C22 UNL     1      17.130   2.449  48.665  1.00  0.00     0.236 A 
HETATM   31  N5  UNL     1      16.539   1.565  49.484  1.00  0.00    -0.225 NA
HETATM   32  H24 UNL     1      15.983  -0.746  50.521  1.00  0.00     0.161 HD
ENDROOT
TORSDOF 0
ENDMDL
MODEL 2
REMARK VINA RESULT:      -9.4      3.459      6.267
REMARK  0 active torsions:
REMARK  status: ('A' for Active; 'I' for Inactive)
ROOT
HETATM    1  O1  UNL     1      19.686   6.114  49.170  1.00  0.00    -0.271 OA
HETATM    2  C1  UNL     1      20.002   5.113  49.868  1.00  0.00     0.244 C 
HETATM    3  C2  UNL     1      19.187   3.976  49.408  1.00  0.00     0.278 C 
HETATM    4  O2  UNL     1      19.566   2.723  50.020  1.00  0.00    -0.340 OA
HETATM    5  C3  UNL     1      20.647   2.506  50.841  1.00  0.00     0.096 C 
HETATM    6  C4  UNL     1      21.720   3.246  51.053  1.00  0.00     0.032 C 
HETATM    7  C5  UNL     1      21.551   4.532  51.763  1.00  0.00     0.155 C 
HETATM    8  N1  UNL     1      21.014   5.483  50.816  1.00  0.00    -0.347 N 
HETATM    9  C6  UNL     1      21.505   6.806  50.862  1.00  0.00     0.127 C 
HETATM   10  C7  UNL     1      22.716   7.123  50.032  1.00  0.00     0.040 C 
HETATM   11  C8  UNL     1      23.870   6.279  50.438  1.00  0.00     0.124 C 
HETATM   12  N2  UNL     1      25.118   6.552  49.700  1.00  0.00    -0.380 N 
HETATM   13  C9  UNL     1      25.134   7.882  49.196  1.00  0.00     0.149 C 
HETATM   14  C10 UNL     1      26.107   8.016  48.049  1.00  0.00     0.187 C 
HETATM   15  O3  UNL     1      26.441   6.717  47.676  1.00  0.00    -0.384 OA
HETATM   16  C11 UNL     1      27.013   6.051  48.770  1.00  0.00     0.224 C 
HETATM   17  C12 UNL     1      25.984   5.458  49.684  1.00  0.00     0.031 C 
HETATM   18  C13 UNL     1      26.425   4.309  49.971  1.00  0.00     0.027 C 
HETATM   19  C14 UNL     1      25.952   3.247  50.796  1.00  0.00     0.003 C 
HETATM   20  C15 UNL     1      26.351   2.078  51.136  1.00  0.00     0.020 C 
HETATM   21  C16 UNL     1      26.007   0.953  51.910  1.00  0.00     0.015 A 
HETATM   22 CL1  UNL     1      26.963  -0.461  52.052  1.00  0.00    -0.174 Cl
HETATM   23  C17 UNL     1      25.192   0.348  52.715  1.00  0.00     0.132 A 
HETATM   24  C18 UNL     1      24.488  -0.576  53.608  1.00  0.00     0.146 C 
HETATM   25  N3  UNL     1      23.175  -0.980  53.161  1.00  0.00    -0.373 N 
HETATM   26  C19 UNL     1      21.955  -0.351  52.885  1.00  0.00     0.127 A 
HETATM   27  C20 UNL     1      21.993   0.682  51.989  1.00  0.00     0.084 A 
HETATM   28  C21 UNL     1      20.856   1.368  51.691  1.00  0.00     0.095 A 
HETATM   29  N4  UNL     1      19.661   1.064  52.254  1.00  0.00    -0.239 NA
HETATM   30  C22 UNL     1      19.612   0.026  53.153  1.00  0.00     0.236 A 
HETATM   31  N5  UNL     1      20.755  -0.625  53.422  1.00  0.00    -0.225 NA
HETATM   32  H24 UNL     1      22.916  -1.976  52.945  1.00  0.00     0.161 HD
ENDROOT
TORSDOF 0
ENDMDL
MODEL 3
REMARK VINA RESULT:      -9.3      2.783      6.697
REMARK  0 active torsions:
REMARK  status: ('A' for Active; 'I' for Inactive)
ROOT
HETATM    1  O1  UNL     1      19.022   4.838  49.088  1.00  0.00    -0.271 OA
HETATM    2  C1  UNL     1      20.224   4.514  49.282  1.00  0.00     0.244 C 
HETATM    3  C2  UNL     1      20.947   5.723  49.712  1.00  0.00     0.278 C 
HETATM    4  O2  UNL     1      22.306   5.455  50.123  1.00  0.00    -0.340 OA
HETATM    5  C3  UNL     1      22.891   4.219  50.262  1.00  0.00     0.096 C 
HETATM    6  C4  UNL     1      22.345   3.019  50.337  1.00  0.00     0.032 C 
HETATM    7  C5  UNL     1      21.690   2.475  49.128  1.00  0.00     0.155 C 
HETATM    8  N1  UNL     1      20.400   3.116  49.007  1.00  0.00    -0.347 N 
HETATM    9  C6  UNL     1      19.308   2.324  48.589  1.00  0.00     0.127 C 
HETATM   10  C7  UNL     1      18.519   1.619  49.653  1.00  0.00     0.040 C 
HETATM   11  C8  UNL     1      19.385   0.688  50.424  1.00  0.00     0.124 C 
HETATM   12  N2  UNL     1      18.681  -0.080  51.468  1.00  0.00    -0.380 N 
HETATM   13  C9  UNL     1      17.299  -0.215  51.161  1.00  0.00     0.149 C 
HETATM   14  C10 UNL     1      16.494  -0.522  52.401  1.00  0.00     0.187 C 
HETATM   15  O3  UNL     1      17.340  -0.273  53.479  1.00  0.00    -0.384 OA
HETATM   16  C11 UNL     1      18.476  -1.090  53.378  1.00  0.00     0.224 C 
HETATM   17  C12 UNL     1      19.532  -0.501  52.491  1.00  0.00     0.031 C 
HETATM   18  C13 UNL     1      20.619  -0.695  53.104  1.00  0.00     0.027 C 
HETATM   19  C14 UNL     1      21.983  -0.403  52.813  1.00  0.00     0.003 C 
HETATM   20  C15 UNL     1      23.120  -0.583  53.378  1.00  0.00     0.020 C 
HETATM   21  C16 UNL     1      24.501  -0.357  53.222  1.00  0.00     0.015 A 
HETATM   22 CL1  UNL     1      25.700  -0.842  54.344  1.00  0.00    -0.174 Cl
HETATM   23  C17 UNL     1      25.495   0.108  52.532  1.00  0.00     0.132 A 
HETATM   24  C18 UNL     1      26.795   0.524  52.000  1.00  0.00     0.146 C 
HETATM   25  N3  UNL     1      26.944   1.945  51.789  1.00  0.00    -0.373 N 
HETATM   26  C19 UNL     1      26.332   2.927  51.001  1.00  0.00     0.127 A 
HETATM   27  C20 UNL     1      24.974   3.040  51.118  1.00  0.00     0.084 A 
HETATM   28  C21 UNL     1      24.298   3.948  50.362  1.00  0.00     0.095 A 
HETATM   29  N4  UNL     1      24.926   4.764  49.481  1.00  0.00    -0.239 NA
HETATM   30  C22 UNL     1      26.291   4.660  49.357  1.00  0.00     0.236 A 
HETATM   31  N5  UNL     1      26.921   3.751  50.119  1.00  0.00    -0.225 NA
HETATM   32  H24 UNL     1      27.659   2.534  52.287  1.00  0.00     0.161 HD
ENDROOT
TORSDOF 0
ENDMDL
MODEL 4
REMARK VINA RESULT:      -9.2      3.457      5.743
REMARK  0 active torsions:
REMARK  status: ('A' for Active; 'I' for Inactive)
ROOT
HETATM    1  O1  UNL     1      21.922  -0.810  55.215  1.00  0.00    -0.271 OA
HETATM    2  C1  UNL     1      21.624  -0.136  54.192  1.00  0.00     0.244 C 
HETATM    3  C2  UNL     1      20.468   0.709  54.538  1.00  0.00     0.278 C 
HETATM    4  O2  UNL     1      20.124   1.651  53.498  1.00  0.00    -0.340 OA
HETATM    5  C3  UNL     1      20.833   1.894  52.345  1.00  0.00     0.096 C 
HETATM    6  C4  UNL     1      22.074   1.577  52.022  1.00  0.00     0.032 C 
HETATM    7  C5  UNL     1      22.396   0.149  51.815  1.00  0.00     0.155 C 
HETATM    8  N1  UNL     1      22.519  -0.463  53.119  1.00  0.00    -0.347 N 
HETATM    9  C6  UNL     1      23.546  -1.414  53.306  1.00  0.00     0.127 C 
HETATM   10  C7  UNL     1      24.886  -0.906  53.752  1.00  0.00     0.040 C 
HETATM   11  C8  UNL     1      25.441   0.058  52.766  1.00  0.00     0.124 C 
HETATM   12  N2  UNL     1      26.779   0.579  53.105  1.00  0.00    -0.380 N 
HETATM   13  C9  UNL     1      27.485  -0.328  53.942  1.00  0.00     0.149 C 
HETATM   14  C10 UNL     1      28.587   0.374  54.698  1.00  0.00     0.187 C 
HETATM   15  O3  UNL     1      28.347   1.738  54.546  1.00  0.00    -0.384 OA
HETATM   16  C11 UNL     1      28.360   2.063  53.181  1.00  0.00     0.224 C 
HETATM   17  C12 UNL     1      27.037   1.819  52.518  1.00  0.00     0.031 C 
HETATM   18  C13 UNL     1      26.850   2.827  51.782  1.00  0.00     0.027 C 
HETATM   19  C14 UNL     1      25.814   3.214  50.882  1.00  0.00     0.003 C 
HETATM   20  C15 UNL     1      25.572   4.204  50.104  1.00  0.00     0.020 C 
HETATM   21  C16 UNL     1      24.629   4.711  49.191  1.00  0.00     0.015 A 
HETATM   22 CL1  UNL     1      24.793   6.187  48.339  1.00  0.00    -0.174 Cl
HETATM   23  C17 UNL     1      23.505   4.599  48.554  1.00  0.00     0.132 A 
HETATM   24  C18 UNL     1      22.319   4.758  47.708  1.00  0.00     0.146 C 
HETATM   25  N3  UNL     1      21.062   4.802  48.419  1.00  0.00    -0.373 N 
HETATM   26  C19 UNL     1      20.329   3.943  49.246  1.00  0.00     0.127 A 
HETATM   27  C20 UNL     1      20.984   3.451  50.342  1.00  0.00     0.084 A 
HETATM   28  C21 UNL     1      20.354   2.582  51.179  1.00  0.00     0.095 A 
HETATM   29  N4  UNL     1      19.078   2.177  50.972  1.00  0.00    -0.239 NA
HETATM   30  C22 UNL     1      18.410   2.667  49.875  1.00  0.00     0.236 A 
HETATM   31  N5  UNL     1      19.067   3.520  49.072  1.00  0.00    -0.225 NA
HETATM   32  H24 UNL     1      20.416   5.632  48.405  1.00  0.00     0.161 HD
ENDROOT
TORSDOF 0
ENDMDL
MODEL 5
REMARK VINA RESULT:      -8.9      3.306      7.387
REMARK  0 active torsions:
REMARK  status: ('A' for Active; 'I' for Inactive)
ROOT
HETATM    1  O1  UNL     1      16.666   2.319  49.917  1.00  0.00    -0.271 OA
HETATM    2  C1  UNL     1      17.632   1.897  50.607  1.00  0.00     0.244 C 
HETATM    3  C2  UNL     1      17.582   0.425  50.589  1.00  0.00     0.278 C 
HETATM    4  O2  UNL     1      18.731  -0.189  51.214  1.00  0.00    -0.340 OA
HETATM    5  C3  UNL     1      19.856   0.455  51.671  1.00  0.00     0.096 C 
HETATM    6  C4  UNL     1      20.300   1.675  51.429  1.00  0.00     0.032 C 
HETATM    7  C5  UNL     1      19.533   2.817  51.973  1.00  0.00     0.155 C 
HETATM    8  N1  UNL     1      18.378   3.007  51.126  1.00  0.00    -0.347 N 
HETATM    9  C6  UNL     1      17.989   4.333  50.833  1.00  0.00     0.127 C 
HETATM   10  C7  UNL     1      18.603   4.983  49.627  1.00  0.00     0.040 C 
HETATM   11  C8  UNL     1      20.083   5.045  49.756  1.00  0.00     0.124 C 
HETATM   12  N2  UNL     1      20.768   5.708  48.630  1.00  0.00    -0.380 N 
HETATM   13  C9  UNL     1      19.904   6.624  47.971  1.00  0.00     0.149 C 
HETATM   14  C10 UNL     1      20.382   6.909  46.568  1.00  0.00     0.187 C 
HETATM   15  O3  UNL     1      21.347   5.945  46.288  1.00  0.00    -0.384 OA
HETATM   16  C11 UNL     1      22.387   6.042  47.224  1.00  0.00     0.224 C 
HETATM   17  C12 UNL     1      22.094   5.293  48.490  1.00  0.00     0.031 C 
HETATM   18  C13 UNL     1      23.172   4.700  48.775  1.00  0.00     0.027 C 
HETATM   19  C14 UNL     1      23.577   3.848  49.844  1.00  0.00     0.003 C 
HETATM   20  C15 UNL     1      24.645   3.232  50.196  1.00  0.00     0.020 C 
HETATM   21  C16 UNL     1      25.179   2.384  51.184  1.00  0.00     0.015 A 
HETATM   22 CL1  UNL     1      26.793   1.811  51.207  1.00  0.00    -0.174 Cl
HETATM   23  C17 UNL     1      25.042   1.707  52.281  1.00  0.00     0.132 A 
HETATM   24  C18 UNL     1      25.196   0.864  53.469  1.00  0.00     0.146 C 
HETATM   25  N3  UNL     1      24.323  -0.287  53.520  1.00  0.00    -0.373 N 
HETATM   26  C19 UNL     1      22.943  -0.517  53.563  1.00  0.00     0.127 A 
HETATM   27  C20 UNL     1      22.201   0.060  52.569  1.00  0.00     0.084 A 
HETATM   28  C21 UNL     1      20.847  -0.087  52.558  1.00  0.00     0.095 A 
HETATM   29  N4  UNL     1      20.190  -0.797  53.506  1.00  0.00    -0.239 NA
HETATM   30  C22 UNL     1      20.927  -1.383  54.507  1.00  0.00     0.236 A 
HETATM   31  N5  UNL     1      22.259  -1.213  54.485  1.00  0.00    -0.225 NA
HETATM   32  H24 UNL     1      24.671  -1.279  53.535  1.00  0.00     0.161 HD
ENDROOT
TORSDOF 0
ENDMDL
MODEL 6
REMARK VINA RESULT:      -8.8     10.004     12.743
REMARK  0 active torsions:
REMARK  status: ('A' for Active; 'I' for Inactive)
ROOT
HETATM    1  O1  UNL     1      33.906  10.594  45.281  1.00  0.00    -0.271 OA
HETATM    2  C1  UNL     1      32.796  10.672  45.873  1.00  0.00     0.244 C 
HETATM    3  C2  UNL     1      31.908  11.504  45.044  1.00  0.00     0.278 C 
HETATM    4  O2  UNL     1      30.548  11.542  45.531  1.00  0.00    -0.340 OA
HETATM    5  C3  UNL     1      30.027  10.798  46.564  1.00  0.00     0.096 C 
HETATM    6  C4  UNL     1      30.500   9.720  47.164  1.00  0.00     0.032 C 
HETATM    7  C5  UNL     1      31.715   9.861  47.994  1.00  0.00     0.155 C 
HETATM    8  N1  UNL     1      32.847   9.929  47.100  1.00  0.00    -0.347 N 
HETATM    9  C6  UNL     1      34.026   9.250  47.478  1.00  0.00     0.127 C 
HETATM   10  C7  UNL     1      34.164   7.815  47.056  1.00  0.00     0.040 C 
HETATM   11  C8  UNL     1      33.059   6.992  47.614  1.00  0.00     0.124 C 
HETATM   12  N2  UNL     1      33.138   5.557  47.282  1.00  0.00    -0.380 N 
HETATM   13  C9  UNL     1      34.477   5.165  47.014  1.00  0.00     0.149 C 
HETATM   14  C10 UNL     1      34.519   3.895  46.198  1.00  0.00     0.187 C 
HETATM   15  O3  UNL     1      33.223   3.698  45.729  1.00  0.00    -0.384 OA
HETATM   16  C11 UNL     1      32.345   3.591  46.817  1.00  0.00     0.224 C 
HETATM   17  C12 UNL     1      31.893   4.927  47.325  1.00  0.00     0.031 C 
HETATM   18  C13 UNL     1      30.654   4.794  47.536  1.00  0.00     0.027 C 
HETATM   19  C14 UNL     1      29.638   5.661  48.032  1.00  0.00     0.003 C 
HETATM   20  C15 UNL     1      28.383   5.586  48.280  1.00  0.00     0.020 C 
HETATM   21  C16 UNL     1      27.284   6.329  48.751  1.00  0.00     0.015 A 
HETATM   22 CL1  UNL     1      25.693   5.716  48.919  1.00  0.00    -0.174 Cl
HETATM   23  C17 UNL     1      26.785   7.434  49.210  1.00  0.00     0.132 A 
HETATM   24  C18 UNL     1      25.945   8.515  49.732  1.00  0.00     0.146 C 
HETATM   25  N3  UNL     1      25.873   9.692  48.897  1.00  0.00    -0.373 N 
HETATM   26  C19 UNL     1      26.768  10.652  48.411  1.00  0.00     0.127 A 
HETATM   27  C20 UNL     1      27.855  10.178  47.728  1.00  0.00     0.084 A 
HETATM   28  C21 UNL     1      28.791  11.045  47.252  1.00  0.00     0.095 A 
HETATM   29  N4  UNL     1      28.690  12.384  47.427  1.00  0.00    -0.239 NA
HETATM   30  C22 UNL     1      27.601  12.871  48.109  1.00  0.00     0.236 A 
HETATM   31  N5  UNL     1      26.700  11.985  48.564  1.00  0.00    -0.225 NA
HETATM   32  H24 UNL     1      24.980  10.046  48.469  1.00  0.00     0.161 HD
ENDROOT
TORSDOF 0
ENDMDL
MODEL 7
REMARK VINA RESULT:      -8.7      3.204      6.365
REMARK  0 active torsions:
REMARK  status: ('A' for Active; 'I' for Inactive)
ROOT
HETATM    1  O1  UNL     1      27.809   2.698  52.132  1.00  0.00    -0.271 OA
HETATM    2  C1  UNL     1      26.659   2.192  52.230  1.00  0.00     0.244 C 
HETATM    3  C2  UNL     1      26.491   1.737  53.621  1.00  0.00     0.278 C 
HETATM    4  O2  UNL     1      25.151   1.281  53.910  1.00  0.00    -0.340 OA
HETATM    5  C3  UNL     1      24.060   1.362  53.077  1.00  0.00     0.096 C 
HETATM    6  C4  UNL     1      23.871   2.080  51.985  1.00  0.00     0.032 C 
HETATM    7  C5  UNL     1      24.655   1.735  50.779  1.00  0.00     0.155 C 
HETATM    8  N1  UNL     1      25.988   2.262  50.963  1.00  0.00    -0.347 N 
HETATM    9  C6  UNL     1      26.628   2.839  49.844  1.00  0.00     0.127 C 
HETATM   10  C7  UNL     1      26.409   4.305  49.603  1.00  0.00     0.040 C 
HETATM   11  C8  UNL     1      24.965   4.598  49.404  1.00  0.00     0.124 C 
HETATM   12  N2  UNL     1      24.662   6.013  49.119  1.00  0.00    -0.380 N 
HETATM   13  C9  UNL     1      25.781   6.671  48.539  1.00  0.00     0.149 C 
HETATM   14  C10 UNL     1      25.684   8.167  48.716  1.00  0.00     0.187 C 
HETATM   15  O3  UNL     1      24.675   8.378  49.653  1.00  0.00    -0.384 OA
HETATM   16  C11 UNL     1      23.475   7.829  49.176  1.00  0.00     0.224 C 
HETATM   17  C12 UNL     1      23.357   6.363  49.468  1.00  0.00     0.031 C 
HETATM   18  C13 UNL     1      22.166   6.204  49.858  1.00  0.00     0.027 C 
HETATM   19  C14 UNL     1      21.405   5.071  50.268  1.00  0.00     0.003 C 
HETATM   20  C15 UNL     1      20.205   4.840  50.657  1.00  0.00     0.020 C 
HETATM   21  C16 UNL     1      19.338   3.816  51.083  1.00  0.00     0.015 A 
HETATM   22 CL1  UNL     1      17.695   4.043  51.507  1.00  0.00    -0.174 Cl
HETATM   23  C17 UNL     1      19.119   2.567  51.355  1.00  0.00     0.132 A 
HETATM   24  C18 UNL     1      18.574   1.262  51.734  1.00  0.00     0.146 C 
HETATM   25  N3  UNL     1      19.230   0.626  52.853  1.00  0.00    -0.373 N 
HETATM   26  C19 UNL     1      20.513   0.149  53.145  1.00  0.00     0.127 A 
HETATM   27  C20 UNL     1      21.541   1.039  52.990  1.00  0.00     0.084 A 
HETATM   28  C21 UNL     1      22.823   0.646  53.220  1.00  0.00     0.095 A 
HETATM   29  N4  UNL     1      23.133  -0.615  53.608  1.00  0.00    -0.239 NA
HETATM   30  C22 UNL     1      22.108  -1.516  53.770  1.00  0.00     0.236 A 
HETATM   31  N5  UNL     1      20.857  -1.090  53.531  1.00  0.00    -0.225 NA
HETATM   32  H24 UNL     1      18.743   0.395  53.757  1.00  0.00     0.161 HD
ENDROOT
TORSDOF 0
ENDMDL
MODEL 8
REMARK VINA RESULT:      -8.6      9.274     13.117
REMARK  0 active torsions:
REMARK  status: ('A' for Active; 'I' for Inactive)
ROOT
HETATM    1  O1  UNL     1      26.219  12.238  48.580  1.00  0.00    -0.271 OA
HETATM    2  C1  UNL     1      27.326  11.783  48.186  1.00  0.00     0.244 C 
HETATM    3  C2  UNL     1      28.387  12.537  48.876  1.00  0.00     0.278 C 
HETATM    4  O2  UNL     1      29.709  12.007  48.633  1.00  0.00    -0.340 OA
HETATM    5  C3  UNL     1      30.016  10.847  47.962  1.00  0.00     0.096 C 
HETATM    6  C4  UNL     1      29.249   9.824  47.629  1.00  0.00     0.032 C 
HETATM    7  C5  UNL     1      28.207  10.039  46.601  1.00  0.00     0.155 C 
HETATM    8  N1  UNL     1      27.108  10.730  47.236  1.00  0.00    -0.347 N 
HETATM    9  C6  UNL     1      25.796  10.348  46.878  1.00  0.00     0.127 C 
HETATM   10  C7  UNL     1      25.159   9.241  47.667  1.00  0.00     0.040 C 
HETATM   11  C8  UNL     1      25.957   7.991  47.564  1.00  0.00     0.124 C 
HETATM   12  N2  UNL     1      25.381   6.836  48.278  1.00  0.00    -0.380 N 
HETATM   13  C9  UNL     1      23.974   6.972  48.420  1.00  0.00     0.149 C 
HETATM   14  C10 UNL     1      23.456   6.112  49.549  1.00  0.00     0.187 C 
HETATM   15  O3  UNL     1      24.578   5.704  50.265  1.00  0.00    -0.384 OA
HETATM   16  C11 UNL     1      25.438   4.990  49.417  1.00  0.00     0.224 C 
HETATM   17  C12 UNL     1      26.343   5.887  48.628  1.00  0.00     0.031 C 
HETATM   18  C13 UNL     1      27.476   5.330  48.675  1.00  0.00     0.027 C 
HETATM   19  C14 UNL     1      28.754   5.644  48.127  1.00  0.00     0.003 C 
HETATM   20  C15 UNL     1      29.925   5.122  48.125  1.00  0.00     0.020 C 
HETATM   21  C16 UNL     1      31.237   5.306  47.650  1.00  0.00     0.015 A 
HETATM   22 CL1  UNL     1      32.537   4.229  47.935  1.00  0.00    -0.174 Cl
HETATM   23  C17 UNL     1      32.106   5.999  46.982  1.00  0.00     0.132 A 
HETATM   24  C18 UNL     1      33.291   6.548  46.319  1.00  0.00     0.146 C 
HETATM   25  N3  UNL     1      33.699   7.855  46.777  1.00  0.00    -0.373 N 
HETATM   26  C19 UNL     1      33.149   9.142  46.808  1.00  0.00     0.127 A 
HETATM   27  C20 UNL     1      31.925   9.264  47.407  1.00  0.00     0.084 A 
HETATM   28  C21 UNL     1      31.304  10.475  47.448  1.00  0.00     0.095 A 
HETATM   29  N4  UNL     1      31.860  11.589  46.914  1.00  0.00    -0.239 NA
HETATM   30  C22 UNL     1      33.090  11.478  46.313  1.00  0.00     0.236 A 
HETATM   31  N5  UNL     1      33.669  10.266  46.290  1.00  0.00    -0.225 NA
HETATM   32  H24 UNL     1      34.630   8.048  47.228  1.00  0.00     0.161 HD
ENDROOT
TORSDOF 0
ENDMDL
MODEL 9
REMARK VINA RESULT:      -8.5      2.320      6.466
REMARK  0 active torsions:
REMARK  status: ('A' for Active; 'I' for Inactive)
ROOT
HETATM    1  O1  UNL     1      24.305   4.332  50.249  1.00  0.00    -0.271 OA
HETATM    2  C1  UNL     1      23.737   3.363  50.821  1.00  0.00     0.244 C 
HETATM    3  C2  UNL     1      24.042   3.455  52.259  1.00  0.00     0.278 C 
HETATM    4  O2  UNL     1      23.318   2.491  53.056  1.00  0.00    -0.340 OA
HETATM    5  C3  UNL     1      22.329   1.643  52.616  1.00  0.00     0.096 C 
HETATM    6  C4  UNL     1      21.616   1.666  51.504  1.00  0.00     0.032 C 
HETATM    7  C5  UNL     1      22.306   1.381  50.228  1.00  0.00     0.155 C 
HETATM    8  N1  UNL     1      23.033   2.572  49.852  1.00  0.00    -0.347 N 
HETATM    9  C6  UNL     1      23.048   2.931  48.486  1.00  0.00     0.127 C 
HETATM   10  C7  UNL     1      21.942   3.818  47.993  1.00  0.00     0.040 C 
HETATM   11  C8  UNL     1      20.618   3.175  48.199  1.00  0.00     0.124 C 
HETATM   12  N2  UNL     1      19.472   3.961  47.703  1.00  0.00    -0.380 N 
HETATM   13  C9  UNL     1      19.869   4.845  46.663  1.00  0.00     0.149 C 
HETATM   14  C10 UNL     1      18.884   5.979  46.508  1.00  0.00     0.187 C 
HETATM   15  O3  UNL     1      18.073   5.940  47.640  1.00  0.00    -0.384 OA
HETATM   16  C11 UNL     1      17.430   4.696  47.709  1.00  0.00     0.224 C 
HETATM   17  C12 UNL     1      18.280   3.644  48.357  1.00  0.00     0.031 C 
HETATM   18  C13 UNL     1      17.498   3.021  49.129  1.00  0.00     0.027 C 
HETATM   19  C14 UNL     1      17.656   1.913  50.011  1.00  0.00     0.003 C 
HETATM   20  C15 UNL     1      16.911   1.233  50.802  1.00  0.00     0.020 C 
HETATM   21  C16 UNL     1      16.921   0.154  51.706  1.00  0.00     0.015 A 
HETATM   22 CL1  UNL     1      15.551  -0.412  52.563  1.00  0.00    -0.174 Cl
HETATM   23  C17 UNL     1      17.556  -0.798  52.316  1.00  0.00     0.132 A 
HETATM   24  C18 UNL     1      17.985  -1.930  53.141  1.00  0.00     0.146 C 
HETATM   25  N3  UNL     1      19.012  -1.626  54.110  1.00  0.00    -0.373 N 
HETATM   26  C19 UNL     1      20.336  -1.173  54.083  1.00  0.00     0.127 A 
HETATM   27  C20 UNL     1      20.564  -0.005  53.408  1.00  0.00     0.084 A 
HETATM   28  C21 UNL     1      21.829   0.487  53.305  1.00  0.00     0.095 A 
HETATM   29  N4  UNL     1      22.895  -0.142  53.857  1.00  0.00    -0.239 NA
HETATM   30  C22 UNL     1      22.676  -1.314  54.540  1.00  0.00     0.236 A 
HETATM   31  N5  UNL     1      21.415  -1.768  54.617  1.00  0.00    -0.225 NA
HETATM   32  H24 UNL     1      18.877  -1.724  55.149  1.00  0.00     0.161 HD
ENDROOT
TORSDOF 0
ENDMDL
