MODEL 1
REMARK VINA RESULT:      -8.3      0.000      0.000
REMARK  3 active torsions:
REMARK  status: ('A' for Active; 'I' for Inactive)
REMARK    1  A    between atoms: C2_2  and  C3_3 
REMARK    2  A    between atoms: N1_6  and  C6_7 
REMARK    3  A    between atoms: N4_13  and  C10_14 
ROOT
HETATM    1  C6  UNL     1      24.001   1.138  52.630  1.00  0.00     0.134 C 
HETATM    2  C7  UNL     1      23.313   0.329  53.385  1.00  0.00     0.126 A 
HETATM    3  N2  UNL     1      23.915  -0.557  54.322  1.00  0.00    -0.357 N 
HETATM    4  C8  UNL     1      23.239  -1.480  55.191  1.00  0.00     0.273 A 
HETATM    5  N3  UNL     1      21.801  -1.421  55.015  1.00  0.00    -0.265 NA
HETATM    6  C9  UNL     1      21.226  -0.628  54.174  1.00  0.00     0.212 A 
HETATM    7  N4  UNL     1      21.911   0.281  53.319  1.00  0.00    -0.291 N 
HETATM    8  H10 UNL     1      24.951  -0.590  54.439  1.00  0.00     0.162 HD
ENDROOT
BRANCH   7   9
HETATM    9  C10 UNL     1      21.229   1.138  52.406  1.00  0.00     0.043 A 
HETATM   10  C11 UNL     1      20.427   2.166  52.855  1.00  0.00     0.032 A 
HETATM   11  C12 UNL     1      19.782   2.976  51.965  1.00  0.00     0.033 A 
HETATM   12  C13 UNL     1      19.910   2.795  50.613  1.00  0.00     0.044 A 
HETATM   13  C14 UNL     1      20.682   1.803  50.149  1.00  0.00    -0.004 A 
HETATM   14  N5  UNL     1      19.258   3.612  49.720  1.00  0.00    -0.351 N 
HETATM   15  C15 UNL     1      20.779   1.660  48.731  1.00  0.00     0.048 A 
HETATM   16  C17 UNL     1      21.328   0.993  51.052  1.00  0.00     0.044 A 
HETATM   17  P1  UNL     1      19.785   2.917  48.052  1.00  0.00     0.063 P 
HETATM   18  C16 UNL     1      18.377   4.730  49.879  1.00  0.00     0.155 C 
ENDBRANCH   7   9
BRANCH   1  19
HETATM   19  N1  UNL     1      25.421   1.213  52.672  1.00  0.00    -0.387 N 
HETATM   20  C5  UNL     1      26.343   0.613  51.713  1.00  0.00     0.123 C 
HETATM   21  C4  UNL     1      27.160  -0.405  52.505  1.00  0.00     0.028 C 
HETATM   22  C3  UNL     1      28.016   0.400  53.466  1.00  0.00     0.010 C 
HETATM   23  C19 UNL     1      27.076   1.052  54.459  1.00  0.00     0.028 C 
HETATM   24  C18 UNL     1      26.072   1.950  53.760  1.00  0.00     0.123 C 
BRANCH  22  25
HETATM   25  C2  UNL     1      28.945  -0.458  54.235  1.00  0.00    -0.032 C 
HETATM   26  C1  UNL     1      29.808  -1.281  53.644  1.00  0.00     0.007 C 
ENDBRANCH  22  25
ENDBRANCH   1  19
TORSDOF 3
ENDMDL
MODEL 2
REMARK VINA RESULT:      -8.1      2.031      2.666
REMARK  3 active torsions:
REMARK  status: ('A' for Active; 'I' for Inactive)
REMARK    1  A    between atoms: C2_2  and  C3_3 
REMARK    2  A    between atoms: N1_6  and  C6_7 
REMARK    3  A    between atoms: N4_13  and  C10_14 
ROOT
HETATM    1  C6  UNL     1      24.113   0.398  52.954  1.00  0.00     0.134 C 
HETATM    2  C7  UNL     1      22.913  -0.042  53.211  1.00  0.00     0.126 A 
HETATM    3  N2  UNL     1      22.658  -1.123  54.100  1.00  0.00    -0.357 N 
HETATM    4  C8  UNL     1      21.376  -1.673  54.442  1.00  0.00     0.273 A 
HETATM    5  N3  UNL     1      20.301  -0.983  53.755  1.00  0.00    -0.265 NA
HETATM    6  C9  UNL     1      20.501   0.001  52.943  1.00  0.00     0.212 A 
HETATM    7  N4  UNL     1      21.779   0.534  52.615  1.00  0.00    -0.291 N 
HETATM    8  H10 UNL     1      23.440  -1.612  54.588  1.00  0.00     0.162 HD
ENDROOT
BRANCH   7   9
HETATM    9  C10 UNL     1      21.948   1.623  51.711  1.00  0.00     0.043 A 
HETATM   10  C11 UNL     1      22.151   1.407  50.364  1.00  0.00     0.032 A 
HETATM   11  C12 UNL     1      22.310   2.464  49.513  1.00  0.00     0.033 A 
HETATM   12  C13 UNL     1      22.273   3.757  49.966  1.00  0.00     0.044 A 
HETATM   13  C14 UNL     1      22.078   3.995  51.270  1.00  0.00    -0.004 A 
HETATM   14  N5  UNL     1      22.435   4.817  49.106  1.00  0.00    -0.351 N 
HETATM   15  C15 UNL     1      22.049   5.361  51.687  1.00  0.00     0.048 A 
HETATM   16  C17 UNL     1      21.919   2.926  52.119  1.00  0.00     0.044 A 
HETATM   17  P1  UNL     1      22.297   6.308  50.248  1.00  0.00     0.063 P 
HETATM   18  C16 UNL     1      22.660   4.908  47.695  1.00  0.00     0.155 C 
ENDBRANCH   7   9
BRANCH   1  19
HETATM   19  N1  UNL     1      25.282  -0.161  53.541  1.00  0.00    -0.387 N 
HETATM   20  C5  UNL     1      25.886   0.240  54.807  1.00  0.00     0.123 C 
HETATM   21  C4  UNL     1      27.272   0.772  54.455  1.00  0.00     0.028 C 
HETATM   22  C3  UNL     1      28.069  -0.426  53.969  1.00  0.00     0.010 C 
HETATM   23  C19 UNL     1      27.445  -0.876  52.664  1.00  0.00     0.028 C 
HETATM   24  C18 UNL     1      25.986  -1.247  52.851  1.00  0.00     0.123 C 
BRANCH  22  25
HETATM   25  C2  UNL     1      29.480  -0.078  53.687  1.00  0.00    -0.032 C 
HETATM   26  C1  UNL     1      30.460  -0.976  53.746  1.00  0.00     0.007 C 
ENDBRANCH  22  25
ENDBRANCH   1  19
TORSDOF 3
ENDMDL
MODEL 3
REMARK VINA RESULT:      -7.9      3.653      4.319
REMARK  3 active torsions:
REMARK  status: ('A' for Active; 'I' for Inactive)
REMARK    1  A    between atoms: C2_2  and  C3_3 
REMARK    2  A    between atoms: N1_6  and  C6_7 
REMARK    3  A    between atoms: N4_13  and  C10_14 
ROOT
HETATM    1  C6  UNL     1      24.793   1.885  52.775  1.00  0.00     0.134 C 
HETATM    2  C7  UNL     1      23.489   1.910  52.763  1.00  0.00     0.126 A 
HETATM    3  N2  UNL     1      22.689   0.880  53.329  1.00  0.00    -0.357 N 
HETATM    4  C8  UNL     1      21.253   0.824  53.360  1.00  0.00     0.273 A 
HETATM    5  N3  UNL     1      20.662   1.985  52.724  1.00  0.00    -0.265 NA
HETATM    6  C9  UNL     1      21.362   2.935  52.201  1.00  0.00     0.212 A 
HETATM    7  N4  UNL     1      22.784   2.975  52.179  1.00  0.00    -0.291 N 
HETATM    8  H10 UNL     1      23.126   0.050  53.784  1.00  0.00     0.162 HD
ENDROOT
BRANCH   7   9
HETATM    9  C10 UNL     1      23.513   4.050  51.589  1.00  0.00     0.043 A 
HETATM   10  C11 UNL     1      23.241   5.362  51.918  1.00  0.00     0.032 A 
HETATM   11  C12 UNL     1      23.949   6.378  51.343  1.00  0.00     0.033 A 
HETATM   12  C13 UNL     1      24.941   6.129  50.430  1.00  0.00     0.044 A 
HETATM   13  C14 UNL     1      25.225   4.863  50.092  1.00  0.00    -0.004 A 
HETATM   14  N5  UNL     1      25.651   7.154  49.853  1.00  0.00    -0.351 N 
HETATM   15  C15 UNL     1      26.267   4.662  49.136  1.00  0.00     0.048 A 
HETATM   16  C17 UNL     1      24.507   3.848  50.676  1.00  0.00     0.044 A 
HETATM   17  P1  UNL     1      26.846   6.249  48.714  1.00  0.00     0.063 P 
HETATM   18  C16 UNL     1      25.597   8.579  49.986  1.00  0.00     0.155 C 
ENDBRANCH   7   9
BRANCH   1  19
HETATM   19  N1  UNL     1      25.538   0.823  53.359  1.00  0.00    -0.387 N 
HETATM   20  C5  UNL     1      26.320   0.895  54.588  1.00  0.00     0.123 C 
HETATM   21  C4  UNL     1      27.766   0.630  54.175  1.00  0.00     0.028 C 
HETATM   22  C3  UNL     1      27.815  -0.821  53.729  1.00  0.00     0.010 C 
HETATM   23  C19 UNL     1      26.988  -0.924  52.464  1.00  0.00     0.028 C 
HETATM   24  C18 UNL     1      25.555  -0.490  52.705  1.00  0.00     0.123 C 
BRANCH  22  25
HETATM   25  C2  UNL     1      29.190  -1.253  53.394  1.00  0.00    -0.032 C 
HETATM   26  C1  UNL     1      30.242  -0.450  53.533  1.00  0.00     0.007 C 
ENDBRANCH  22  25
ENDBRANCH   1  19
TORSDOF 3
ENDMDL
MODEL 4
REMARK VINA RESULT:      -7.9      4.716      6.157
REMARK  3 active torsions:
REMARK  status: ('A' for Active; 'I' for Inactive)
REMARK    1  A    between atoms: C2_2  and  C3_3 
REMARK    2  A    between atoms: N1_6  and  C6_7 
REMARK    3  A    between atoms: N4_13  and  C10_14 
ROOT
HETATM    1  C6  UNL     1      25.456   3.013  51.775  1.00  0.00     0.134 C 
HETATM    2  C7  UNL     1      24.227   3.414  51.610  1.00  0.00     0.126 A 
HETATM    3  N2  UNL     1      23.112   2.766  52.210  1.00  0.00    -0.357 N 
HETATM    4  C8  UNL     1      21.730   3.136  52.085  1.00  0.00     0.273 A 
HETATM    5  N3  UNL     1      21.567   4.302  51.238  1.00  0.00    -0.265 NA
HETATM    6  C9  UNL     1      22.558   4.912  50.679  1.00  0.00     0.212 A 
HETATM    7  N4  UNL     1      23.923   4.531  50.815  1.00  0.00    -0.291 N 
HETATM    8  H10 UNL     1      23.242   1.927  52.817  1.00  0.00     0.162 HD
ENDROOT
BRANCH   7   9
HETATM    9  C10 UNL     1      24.984   5.239  50.177  1.00  0.00     0.043 A 
HETATM   10  C11 UNL     1      25.836   4.605  49.296  1.00  0.00     0.032 A 
HETATM   11  C12 UNL     1      26.846   5.300  48.695  1.00  0.00     0.033 A 
HETATM   12  C13 UNL     1      27.043   6.632  48.944  1.00  0.00     0.044 A 
HETATM   13  C14 UNL     1      26.231   7.273  49.796  1.00  0.00    -0.004 A 
HETATM   14  N5  UNL     1      28.062   7.327  48.337  1.00  0.00    -0.351 N 
HETATM   15  C15 UNL     1      26.482   8.661  50.019  1.00  0.00     0.048 A 
HETATM   16  C17 UNL     1      25.216   6.566  50.397  1.00  0.00     0.044 A 
HETATM   17  P1  UNL     1      27.859   9.065  49.034  1.00  0.00     0.063 P 
HETATM   18  C16 UNL     1      29.083   6.954  47.406  1.00  0.00     0.155 C 
ENDBRANCH   7   9
BRANCH   1  19
HETATM   19  N1  UNL     1      25.798   1.886  52.574  1.00  0.00    -0.387 N 
HETATM   20  C5  UNL     1      26.435   1.924  53.886  1.00  0.00     0.123 C 
HETATM   21  C4  UNL     1      27.778   1.219  53.716  1.00  0.00     0.028 C 
HETATM   22  C3  UNL     1      27.455  -0.240  53.446  1.00  0.00     0.010 C 
HETATM   23  C19 UNL     1      26.771  -0.301  52.096  1.00  0.00     0.028 C 
HETATM   24  C18 UNL     1      25.506   0.536  52.081  1.00  0.00     0.123 C 
BRANCH  22  25
HETATM   25  C2  UNL     1      28.675  -1.073  53.361  1.00  0.00    -0.032 C 
HETATM   26  C1  UNL     1      29.897  -0.561  53.486  1.00  0.00     0.007 C 
ENDBRANCH  22  25
ENDBRANCH   1  19
TORSDOF 3
ENDMDL
MODEL 5
REMARK VINA RESULT:      -7.9      2.926      7.067
REMARK  3 active torsions:
REMARK  status: ('A' for Active; 'I' for Inactive)
REMARK    1  A    between atoms: C2_2  and  C3_3 
REMARK    2  A    between atoms: N1_6  and  C6_7 
REMARK    3  A    between atoms: N4_13  and  C10_14 
ROOT
HETATM    1  C6  UNL     1      22.509   1.351  51.167  1.00  0.00     0.134 C 
HETATM    2  C7  UNL     1      21.929   0.669  52.115  1.00  0.00     0.126 A 
HETATM    3  N2  UNL     1      20.543   0.352  52.106  1.00  0.00    -0.357 N 
HETATM    4  C8  UNL     1      19.822  -0.390  53.103  1.00  0.00     0.273 A 
HETATM    5  N3  UNL     1      20.692  -0.811  54.185  1.00  0.00    -0.265 NA
HETATM    6  C9  UNL     1      21.953  -0.538  54.222  1.00  0.00     0.212 A 
HETATM    7  N4  UNL     1      22.652   0.199  53.224  1.00  0.00    -0.291 N 
HETATM    8  H10 UNL     1      19.927   0.661  51.323  1.00  0.00     0.162 HD
ENDROOT
BRANCH   7   9
HETATM    9  C10 UNL     1      24.048   0.474  53.310  1.00  0.00     0.043 A 
HETATM   10  C11 UNL     1      24.512   1.756  53.518  1.00  0.00     0.032 A 
HETATM   11  C12 UNL     1      25.853   2.000  53.598  1.00  0.00     0.033 A 
HETATM   12  C13 UNL     1      26.770   0.989  53.476  1.00  0.00     0.044 A 
HETATM   13  C14 UNL     1      26.348  -0.266  53.272  1.00  0.00    -0.004 A 
HETATM   14  N5  UNL     1      28.120   1.239  53.556  1.00  0.00    -0.351 N 
HETATM   15  C15 UNL     1      27.347  -1.280  53.151  1.00  0.00     0.048 A 
HETATM   16  C17 UNL     1      24.996  -0.502  53.194  1.00  0.00     0.044 A 
HETATM   17  P1  UNL     1      28.878  -0.469  53.323  1.00  0.00     0.063 P 
HETATM   18  C16 UNL     1      28.884   2.432  53.756  1.00  0.00     0.155 C 
ENDBRANCH   7   9
BRANCH   1  19
HETATM   19  N1  UNL     1      21.807   1.841  50.031  1.00  0.00    -0.387 N 
HETATM   20  C5  UNL     1      21.547   1.107  48.797  1.00  0.00     0.123 C 
HETATM   21  C4  UNL     1      22.274   1.875  47.697  1.00  0.00     0.028 C 
HETATM   22  C3  UNL     1      21.545   3.200  47.559  1.00  0.00     0.010 C 
HETATM   23  C19 UNL     1      21.782   3.972  48.841  1.00  0.00     0.028 C 
HETATM   24  C18 UNL     1      21.272   3.207  50.048  1.00  0.00     0.123 C 
BRANCH  22  25
HETATM   25  C2  UNL     1      22.081   4.016  46.447  1.00  0.00    -0.032 C 
HETATM   26  C1  UNL     1      21.643   3.889  45.196  1.00  0.00     0.007 C 
ENDBRANCH  22  25
ENDBRANCH   1  19
TORSDOF 3
ENDMDL
MODEL 6
REMARK VINA RESULT:      -7.7      4.819      6.285
REMARK  3 active torsions:
REMARK  status: ('A' for Active; 'I' for Inactive)
REMARK    1  A    between atoms: C2_2  and  C3_3 
REMARK    2  A    between atoms: N1_6  and  C6_7 
REMARK    3  A    between atoms: N4_13  and  C10_14 
ROOT
HETATM    1  C6  UNL     1      25.884   2.884  51.357  1.00  0.00     0.134 C 
HETATM    2  C7  UNL     1      24.787   2.826  50.655  1.00  0.00     0.126 A 
HETATM    3  N2  UNL     1      23.792   1.829  50.850  1.00  0.00    -0.357 N 
HETATM    4  C8  UNL     1      22.559   1.688  50.127  1.00  0.00     0.273 A 
HETATM    5  N3  UNL     1      22.414   2.720  49.118  1.00  0.00    -0.265 NA
HETATM    6  C9  UNL     1      23.299   3.639  48.917  1.00  0.00     0.212 A 
HETATM    7  N4  UNL     1      24.516   3.763  49.644  1.00  0.00    -0.291 N 
HETATM    8  H10 UNL     1      23.908   1.091  51.578  1.00  0.00     0.162 HD
ENDROOT
BRANCH   7   9
HETATM    9  C10 UNL     1      25.462   4.797  49.384  1.00  0.00     0.043 A 
HETATM   10  C11 UNL     1      25.152   6.122  49.610  1.00  0.00     0.032 A 
HETATM   11  C12 UNL     1      26.072   7.099  49.355  1.00  0.00     0.033 A 
HETATM   12  C13 UNL     1      27.318   6.797  48.872  1.00  0.00     0.044 A 
HETATM   13  C14 UNL     1      27.646   5.518  48.643  1.00  0.00    -0.004 A 
HETATM   14  N5  UNL     1      28.240   7.784  48.616  1.00  0.00    -0.351 N 
HETATM   15  C15 UNL     1      28.957   5.261  48.139  1.00  0.00     0.048 A 
HETATM   16  C17 UNL     1      26.714   4.542  48.903  1.00  0.00     0.044 A 
HETATM   17  P1  UNL     1      29.728   6.815  47.988  1.00  0.00     0.063 P 
HETATM   18  C16 UNL     1      28.210   9.209  48.743  1.00  0.00     0.155 C 
ENDBRANCH   7   9
BRANCH   1  19
HETATM   19  N1  UNL     1      26.189   1.952  52.388  1.00  0.00    -0.387 N 
HETATM   20  C5  UNL     1      26.647   2.278  53.734  1.00  0.00     0.123 C 
HETATM   21  C4  UNL     1      28.042   1.669  53.855  1.00  0.00     0.028 C 
HETATM   22  C3  UNL     1      27.846   0.163  53.830  1.00  0.00     0.010 C 
HETATM   23  C19 UNL     1      27.346  -0.196  52.445  1.00  0.00     0.028 C 
HETATM   24  C18 UNL     1      26.045   0.516  52.127  1.00  0.00     0.123 C 
BRANCH  22  25
HETATM   25  C2  UNL     1      29.116  -0.566  54.045  1.00  0.00    -0.032 C 
HETATM   26  C1  UNL     1      29.428  -1.666  53.364  1.00  0.00     0.007 C 
ENDBRANCH  22  25
ENDBRANCH   1  19
TORSDOF 3
ENDMDL
MODEL 7
REMARK VINA RESULT:      -7.6      2.205      3.866
REMARK  3 active torsions:
REMARK  status: ('A' for Active; 'I' for Inactive)
REMARK    1  A    between atoms: C2_2  and  C3_3 
REMARK    2  A    between atoms: N1_6  and  C6_7 
REMARK    3  A    between atoms: N4_13  and  C10_14 
ROOT
HETATM    1  C6  UNL     1      24.414   1.396  52.090  1.00  0.00     0.134 C 
HETATM    2  C7  UNL     1      24.798   2.253  51.187  1.00  0.00     0.126 A 
HETATM    3  N2  UNL     1      26.148   2.676  51.043  1.00  0.00    -0.357 N 
HETATM    4  C8  UNL     1      26.660   3.613  50.081  1.00  0.00     0.273 A 
HETATM    5  N3  UNL     1      25.609   4.117  49.219  1.00  0.00    -0.265 NA
HETATM    6  C9  UNL     1      24.375   3.753  49.325  1.00  0.00     0.212 A 
HETATM    7  N4  UNL     1      23.884   2.823  50.285  1.00  0.00    -0.291 N 
HETATM    8  H10 UNL     1      26.896   2.306  51.670  1.00  0.00     0.162 HD
ENDROOT
BRANCH   7   9
HETATM    9  C10 UNL     1      22.510   2.452  50.361  1.00  0.00     0.043 A 
HETATM   10  C11 UNL     1      22.074   1.228  49.896  1.00  0.00     0.032 A 
HETATM   11  C12 UNL     1      20.753   0.891  49.978  1.00  0.00     0.033 A 
HETATM   12  C13 UNL     1      19.830   1.747  50.518  1.00  0.00     0.044 A 
HETATM   13  C14 UNL     1      20.226   2.943  50.976  1.00  0.00    -0.004 A 
HETATM   14  N5  UNL     1      18.501   1.404  50.597  1.00  0.00    -0.351 N 
HETATM   15  C15 UNL     1      19.221   3.796  51.527  1.00  0.00     0.048 A 
HETATM   16  C17 UNL     1      21.557   3.274  50.890  1.00  0.00     0.044 A 
HETATM   17  P1  UNL     1      17.723   2.919  51.401  1.00  0.00     0.063 P 
HETATM   18  C16 UNL     1      17.766   0.240  50.207  1.00  0.00     0.155 C 
ENDBRANCH   7   9
BRANCH   1  19
HETATM   19  N1  UNL     1      25.312   0.800  53.018  1.00  0.00    -0.387 N 
HETATM   20  C5  UNL     1      25.976   1.475  54.129  1.00  0.00     0.123 C 
HETATM   21  C4  UNL     1      27.471   1.391  53.831  1.00  0.00     0.028 C 
HETATM   22  C3  UNL     1      27.840  -0.077  53.950  1.00  0.00     0.010 C 
HETATM   23  C19 UNL     1      27.142  -0.804  52.818  1.00  0.00     0.028 C 
HETATM   24  C18 UNL     1      25.638  -0.625  52.894  1.00  0.00     0.123 C 
BRANCH  22  25
HETATM   25  C2  UNL     1      29.294  -0.300  53.787  1.00  0.00    -0.032 C 
HETATM   26  C1  UNL     1      29.799  -1.482  53.443  1.00  0.00     0.007 C 
ENDBRANCH  22  25
ENDBRANCH   1  19
TORSDOF 3
ENDMDL
MODEL 8
REMARK VINA RESULT:      -7.4      4.126      7.101
REMARK  3 active torsions:
REMARK  status: ('A' for Active; 'I' for Inactive)
REMARK    1  A    between atoms: C2_2  and  C3_3 
REMARK    2  A    between atoms: N1_6  and  C6_7 
REMARK    3  A    between atoms: N4_13  and  C10_14 
ROOT
HETATM    1  C6  UNL     1      23.770   3.089  51.640  1.00  0.00     0.134 C 
HETATM    2  C7  UNL     1      22.831   2.399  52.222  1.00  0.00     0.126 A 
HETATM    3  N2  UNL     1      21.453   2.743  52.143  1.00  0.00    -0.357 N 
HETATM    4  C8  UNL     1      20.354   2.045  52.750  1.00  0.00     0.273 A 
HETATM    5  N3  UNL     1      20.807   0.887  53.496  1.00  0.00    -0.265 NA
HETATM    6  C9  UNL     1      22.050   0.549  53.587  1.00  0.00     0.212 A 
HETATM    7  N4  UNL     1      23.127   1.253  52.979  1.00  0.00    -0.291 N 
HETATM    8  H10 UNL     1      21.139   3.579  51.603  1.00  0.00     0.162 HD
ENDROOT
BRANCH   7   9
HETATM    9  C10 UNL     1      24.485   0.839  53.108  1.00  0.00     0.043 A 
HETATM   10  C11 UNL     1      24.853  -0.475  52.906  1.00  0.00     0.032 A 
HETATM   11  C12 UNL     1      26.159  -0.853  53.035  1.00  0.00     0.033 A 
HETATM   12  C13 UNL     1      27.134   0.051  53.366  1.00  0.00     0.044 A 
HETATM   13  C14 UNL     1      26.804   1.334  53.569  1.00  0.00    -0.004 A 
HETATM   14  N5  UNL     1      28.447  -0.334  53.495  1.00  0.00    -0.351 N 
HETATM   15  C15 UNL     1      27.860   2.233  53.913  1.00  0.00     0.048 A 
HETATM   16  C17 UNL     1      25.488   1.705  53.437  1.00  0.00     0.044 A 
HETATM   17  P1  UNL     1      29.314   1.275  53.950  1.00  0.00     0.063 P 
HETATM   18  C16 UNL     1      29.118  -1.591  53.355  1.00  0.00     0.155 C 
ENDBRANCH   7   9
BRANCH   1  19
HETATM   19  N1  UNL     1      23.505   4.253  50.866  1.00  0.00    -0.387 N 
HETATM   20  C5  UNL     1      23.309   4.300  49.421  1.00  0.00     0.123 C 
HETATM   21  C4  UNL     1      24.448   5.158  48.876  1.00  0.00     0.028 C 
HETATM   22  C3  UNL     1      24.191   6.566  49.382  1.00  0.00     0.010 C 
HETATM   23  C19 UNL     1      24.367   6.537  50.886  1.00  0.00     0.028 C 
HETATM   24  C18 UNL     1      23.408   5.556  51.533  1.00  0.00     0.123 C 
BRANCH  22  25
HETATM   25  C2  UNL     1      25.169   7.537  48.842  1.00  0.00    -0.032 C 
HETATM   26  C1  UNL     1      26.067   7.204  47.917  1.00  0.00     0.007 C 
ENDBRANCH  22  25
ENDBRANCH   1  19
TORSDOF 3
ENDMDL
MODEL 9
REMARK VINA RESULT:      -7.4      5.127      6.975
REMARK  3 active torsions:
REMARK  status: ('A' for Active; 'I' for Inactive)
REMARK    1  A    between atoms: C2_2  and  C3_3 
REMARK    2  A    between atoms: N1_6  and  C6_7 
REMARK    3  A    between atoms: N4_13  and  C10_14 
ROOT
HETATM    1  C6  UNL     1      26.505   2.944  51.043  1.00  0.00     0.134 C 
HETATM    2  C7  UNL     1      25.324   3.126  50.523  1.00  0.00     0.126 A 
HETATM    3  N2  UNL     1      24.201   2.315  50.847  1.00  0.00    -0.357 N 
HETATM    4  C8  UNL     1      22.868   2.441  50.326  1.00  0.00     0.273 A 
HETATM    5  N3  UNL     1      22.767   3.539  49.384  1.00  0.00    -0.265 NA
HETATM    6  C9  UNL     1      23.768   4.292  49.070  1.00  0.00     0.212 A 
HETATM    7  N4  UNL     1      25.083   4.153  49.596  1.00  0.00    -0.291 N 
HETATM    8  H10 UNL     1      24.286   1.528  51.526  1.00  0.00     0.162 HD
ENDROOT
BRANCH   7   9
HETATM    9  C10 UNL     1      26.156   5.013  49.218  1.00  0.00     0.043 A 
HETATM   10  C11 UNL     1      27.350   4.502  48.754  1.00  0.00     0.032 A 
HETATM   11  C12 UNL     1      28.366   5.342  48.396  1.00  0.00     0.033 A 
HETATM   12  C13 UNL     1      28.233   6.702  48.486  1.00  0.00     0.044 A 
HETATM   13  C14 UNL     1      27.083   7.226  48.934  1.00  0.00    -0.004 A 
HETATM   14  N5  UNL     1      29.258   7.544  48.125  1.00  0.00    -0.351 N 
HETATM   15  C15 UNL     1      26.999   8.650  49.007  1.00  0.00     0.048 A 
HETATM   16  C17 UNL     1      26.066   6.373  49.291  1.00  0.00     0.044 A 
HETATM   17  P1  UNL     1      28.533   9.252  48.448  1.00  0.00     0.063 P 
HETATM   18  C16 UNL     1      30.580   7.318  47.626  1.00  0.00     0.155 C 
ENDBRANCH   7   9
BRANCH   1  19
HETATM   19  N1  UNL     1      26.783   1.915  51.985  1.00  0.00    -0.387 N 
HETATM   20  C5  UNL     1      26.845   0.485  51.703  1.00  0.00     0.123 C 
HETATM   21  C4  UNL     1      25.727  -0.149  52.526  1.00  0.00     0.028 C 
HETATM   22  C3  UNL     1      26.134   0.012  53.980  1.00  0.00     0.010 C 
HETATM   23  C19 UNL     1      26.099   1.495  54.290  1.00  0.00     0.028 C 
HETATM   24  C18 UNL     1      27.039   2.269  53.385  1.00  0.00     0.123 C 
BRANCH  22  25
HETATM   25  C2  UNL     1      25.185  -0.654  54.900  1.00  0.00    -0.032 C 
HETATM   26  C1  UNL     1      23.938  -0.950  54.543  1.00  0.00     0.007 C 
ENDBRANCH  22  25
ENDBRANCH   1  19
TORSDOF 3
ENDMDL
