MODEL 1
REMARK VINA RESULT:      -7.6      0.000      0.000
REMARK  2 active torsions:
REMARK  status: ('A' for Active; 'I' for Inactive)
REMARK    1  A    between atoms: C2_2  and  C3_3 
REMARK    2  A    between atoms: C15_19  and  C16_20 
ROOT
HETATM    1  C3  UNL     1      26.035   2.613  52.993  1.00  0.00     0.215 C 
HETATM    2  O1  UNL     1      24.889   2.531  53.713  1.00  0.00    -0.227 OA
HETATM    3  O2  UNL     1      23.958   3.307  53.545  1.00  0.00    -0.238 OA
HETATM    4  C4  UNL     1      23.825   4.282  52.630  1.00  0.00     0.229 C 
HETATM    5  C5  UNL     1      22.388   4.434  52.138  1.00  0.00     0.151 C 
HETATM    6  N1  UNL     1      21.889   3.258  51.463  1.00  0.00    -0.359 N 
HETATM    7  C6  UNL     1      21.570   1.890  51.421  1.00  0.00     0.221 C 
HETATM    8  O3  UNL     1      22.008   2.017  52.584  1.00  0.00    -0.273 OA
HETATM    9  C7  UNL     1      21.415   0.506  51.869  1.00  0.00     0.129 C 
HETATM   10  C8  UNL     1      21.876   0.315  53.301  1.00  0.00    -0.022 C 
HETATM   11  C9  UNL     1      22.776  -0.365  53.970  1.00  0.00    -0.030 C 
HETATM   12  C10 UNL     1      23.771  -1.108  54.787  1.00  0.00     0.030 C 
HETATM   13  C11 UNL     1      25.193  -0.718  54.443  1.00  0.00     0.031 C 
HETATM   14  C12 UNL     1      25.487  -0.869  53.017  1.00  0.00    -0.026 C 
HETATM   15  C13 UNL     1      25.834   0.071  52.177  1.00  0.00     0.006 C 
HETATM   16  C14 UNL     1      26.105   1.457  51.995  1.00  0.00    -0.023 C 
HETATM   17  C15 UNL     1      26.459   1.782  50.747  1.00  0.00     0.011 C 
HETATM   18  H9  UNL     1      21.526   3.258  50.458  1.00  0.00     0.162 HD
ENDROOT
BRANCH   1  19
HETATM   19  C2  UNL     1      27.164   2.393  53.986  1.00  0.00     0.002 C 
HETATM   20  C1  UNL     1      28.375   2.490  53.416  1.00  0.00     0.010 C 
ENDBRANCH   1  19
BRANCH  17  21
HETATM   21  C16 UNL     1      26.809   2.897  49.978  1.00  0.00     0.012 C 
HETATM   22  C17 UNL     1      26.491   4.089  49.542  1.00  0.00     0.084 C 
HETATM   23 CL1  UNL     1      27.444   5.092  48.496  1.00  0.00    -0.097 Cl
ENDBRANCH  17  21
TORSDOF 2
ENDMDL
MODEL 2
REMARK VINA RESULT:      -7.0      3.128      6.332
REMARK  2 active torsions:
REMARK  status: ('A' for Active; 'I' for Inactive)
REMARK    1  A    between atoms: C2_2  and  C3_3 
REMARK    2  A    between atoms: C15_19  and  C16_20 
ROOT
HETATM    1  C3  UNL     1      21.923   3.128  51.863  1.00  0.00     0.215 C 
HETATM    2  O1  UNL     1      22.910   4.058  51.826  1.00  0.00    -0.227 OA
HETATM    3  O2  UNL     1      23.890   3.999  52.556  1.00  0.00    -0.238 OA
HETATM    4  C4  UNL     1      24.235   3.039  53.430  1.00  0.00     0.229 C 
HETATM    5  C5  UNL     1      25.744   2.819  53.494  1.00  0.00     0.151 C 
HETATM    6  N1  UNL     1      26.308   2.366  52.243  1.00  0.00    -0.359 N 
HETATM    7  C6  UNL     1      26.568   2.516  50.870  1.00  0.00     0.221 C 
HETATM    8  O3  UNL     1      25.926   3.556  51.125  1.00  0.00    -0.273 OA
HETATM    9  C7  UNL     1      26.574   3.113  49.535  1.00  0.00     0.129 C 
HETATM   10  C8  UNL     1      25.845   4.442  49.502  1.00  0.00    -0.022 C 
HETATM   11  C9  UNL     1      24.805   4.989  48.917  1.00  0.00    -0.030 C 
HETATM   12  C10 UNL     1      23.642   5.667  48.286  1.00  0.00     0.030 C 
HETATM   13  C11 UNL     1      22.329   5.021  48.677  1.00  0.00     0.031 C 
HETATM   14  C12 UNL     1      22.302   3.587  48.389  1.00  0.00    -0.026 C 
HETATM   15  C13 UNL     1      22.161   2.610  49.247  1.00  0.00     0.006 C 
HETATM   16  C14 UNL     1      21.991   2.249  50.615  1.00  0.00    -0.023 C 
HETATM   17  C15 UNL     1      21.892   0.931  50.820  1.00  0.00     0.011 C 
HETATM   18  H9  UNL     1      26.853   1.453  52.131  1.00  0.00     0.162 HD
ENDROOT
BRANCH   1  19
HETATM   19  C2  UNL     1      20.620   3.903  51.775  1.00  0.00     0.002 C 
HETATM   20  C1  UNL     1      19.547   3.129  51.996  1.00  0.00     0.010 C 
ENDBRANCH   1  19
BRANCH  17  21
HETATM   21  C16 UNL     1      21.743   0.008  51.861  1.00  0.00     0.012 C 
HETATM   22  C17 UNL     1      21.180  -0.298  53.001  1.00  0.00     0.084 C 
HETATM   23 CL1  UNL     1      21.418  -1.756  53.910  1.00  0.00    -0.097 Cl
ENDBRANCH  17  21
TORSDOF 2
ENDMDL
MODEL 3
REMARK VINA RESULT:      -7.0      3.283      4.049
REMARK  2 active torsions:
REMARK  status: ('A' for Active; 'I' for Inactive)
REMARK    1  A    between atoms: C2_2  and  C3_3 
REMARK    2  A    between atoms: C15_19  and  C16_20 
ROOT
HETATM    1  C3  UNL     1      21.954   3.174  51.787  1.00  0.00     0.215 C 
HETATM    2  O1  UNL     1      20.917   2.876  52.608  1.00  0.00    -0.227 OA
HETATM    3  O2  UNL     1      19.785   3.294  52.405  1.00  0.00    -0.238 OA
HETATM    4  C4  UNL     1      19.322   4.010  51.367  1.00  0.00     0.229 C 
HETATM    5  C5  UNL     1      17.893   3.634  50.985  1.00  0.00     0.151 C 
HETATM    6  N1  UNL     1      17.762   2.264  50.544  1.00  0.00    -0.359 N 
HETATM    7  C6  UNL     1      17.885   0.878  50.741  1.00  0.00     0.221 C 
HETATM    8  O3  UNL     1      18.302   1.330  51.827  1.00  0.00    -0.273 OA
HETATM    9  C7  UNL     1      18.185  -0.389  51.407  1.00  0.00     0.129 C 
HETATM   10  C8  UNL     1      18.733  -0.182  52.805  1.00  0.00    -0.022 C 
HETATM   11  C9  UNL     1      19.824  -0.432  53.491  1.00  0.00    -0.030 C 
HETATM   12  C10 UNL     1      21.030  -0.687  54.322  1.00  0.00     0.030 C 
HETATM   13  C11 UNL     1      22.246   0.048  53.799  1.00  0.00     0.031 C 
HETATM   14  C12 UNL     1      22.521  -0.252  52.393  1.00  0.00    -0.026 C 
HETATM   15  C13 UNL     1      22.528   0.589  51.392  1.00  0.00     0.006 C 
HETATM   16  C14 UNL     1      22.346   1.940  50.976  1.00  0.00    -0.023 C 
HETATM   17  C15 UNL     1      22.536   2.135  49.667  1.00  0.00     0.011 C 
HETATM   18  H9  UNL     1      17.382   1.980  49.586  1.00  0.00     0.162 HD
ENDROOT
BRANCH   1  19
HETATM   19  C2  UNL     1      23.130   3.480  52.700  1.00  0.00     0.002 C 
HETATM   20  C1  UNL     1      23.437   4.786  52.721  1.00  0.00     0.010 C 
ENDBRANCH   1  19
BRANCH  17  21
HETATM   21  C16 UNL     1      22.493   3.153  48.709  1.00  0.00     0.012 C 
HETATM   22  C17 UNL     1      22.884   4.345  48.337  1.00  0.00     0.084 C 
HETATM   23 CL1  UNL     1      22.443   5.165  46.874  1.00  0.00    -0.097 Cl
ENDBRANCH  17  21
TORSDOF 2
ENDMDL
MODEL 4
REMARK VINA RESULT:      -6.9      3.368      5.865
REMARK  2 active torsions:
REMARK  status: ('A' for Active; 'I' for Inactive)
REMARK    1  A    between atoms: C2_2  and  C3_3 
REMARK    2  A    between atoms: C15_19  and  C16_20 
ROOT
HETATM    1  C3  UNL     1      21.778   1.651  50.781  1.00  0.00     0.215 C 
HETATM    2  O1  UNL     1      22.811   1.639  49.902  1.00  0.00    -0.227 OA
HETATM    3  O2  UNL     1      22.727   2.145  48.791  1.00  0.00    -0.238 OA
HETATM    4  C4  UNL     1      21.714   2.848  48.257  1.00  0.00     0.229 C 
HETATM    5  C5  UNL     1      22.197   3.977  47.351  1.00  0.00     0.151 C 
HETATM    6  N1  UNL     1      22.978   4.973  48.047  1.00  0.00    -0.359 N 
HETATM    7  C6  UNL     1      24.079   5.369  48.826  1.00  0.00     0.221 C 
HETATM    8  O3  UNL     1      24.276   4.141  48.706  1.00  0.00    -0.273 OA
HETATM    9  C7  UNL     1      25.321   5.268  49.591  1.00  0.00     0.129 C 
HETATM   10  C8  UNL     1      25.847   3.847  49.639  1.00  0.00    -0.022 C 
HETATM   11  C9  UNL     1      26.112   2.917  50.526  1.00  0.00    -0.030 C 
HETATM   12  C10 UNL     1      26.434   1.823  51.480  1.00  0.00     0.030 C 
HETATM   13  C11 UNL     1      25.204   1.332  52.216  1.00  0.00     0.031 C 
HETATM   14  C12 UNL     1      24.491   2.412  52.899  1.00  0.00    -0.026 C 
HETATM   15  C13 UNL     1      23.265   2.811  52.681  1.00  0.00     0.006 C 
HETATM   16  C14 UNL     1      22.076   2.627  51.918  1.00  0.00    -0.023 C 
HETATM   17  C15 UNL     1      21.083   3.458  52.253  1.00  0.00     0.011 C 
HETATM   18  H9  UNL     1      22.723   6.011  48.083  1.00  0.00     0.162 HD
ENDROOT
BRANCH   1  19
HETATM   19  C2  UNL     1      21.746   0.265  51.401  1.00  0.00     0.002 C 
HETATM   20  C1  UNL     1      20.619   0.039  52.094  1.00  0.00     0.010 C 
ENDBRANCH   1  19
BRANCH  17  21
HETATM   21  C16 UNL     1      19.767   3.770  51.892  1.00  0.00     0.012 C 
HETATM   22  C17 UNL     1      18.616   3.358  51.426  1.00  0.00     0.084 C 
HETATM   23 CL1  UNL     1      17.199   4.326  51.177  1.00  0.00    -0.097 Cl
ENDBRANCH  17  21
TORSDOF 2
ENDMDL
MODEL 5
REMARK VINA RESULT:      -6.8      2.045      3.066
REMARK  2 active torsions:
REMARK  status: ('A' for Active; 'I' for Inactive)
REMARK    1  A    between atoms: C2_2  and  C3_3 
REMARK    2  A    between atoms: C15_19  and  C16_20 
ROOT
HETATM    1  C3  UNL     1      24.504   3.444  52.257  1.00  0.00     0.215 C 
HETATM    2  O1  UNL     1      23.344   3.974  52.717  1.00  0.00    -0.227 OA
HETATM    3  O2  UNL     1      23.019   5.131  52.485  1.00  0.00    -0.238 OA
HETATM    4  C4  UNL     1      23.637   6.044  51.717  1.00  0.00     0.229 C 
HETATM    5  C5  UNL     1      22.655   6.951  50.980  1.00  0.00     0.151 C 
HETATM    6  N1  UNL     1      21.806   6.238  50.053  1.00  0.00    -0.359 N 
HETATM    7  C6  UNL     1      20.850   5.254  49.748  1.00  0.00     0.221 C 
HETATM    8  O3  UNL     1      20.989   5.104  50.979  1.00  0.00    -0.273 OA
HETATM    9  C7  UNL     1      19.901   4.159  49.946  1.00  0.00     0.129 C 
HETATM   10  C8  UNL     1      19.829   3.722  51.396  1.00  0.00    -0.022 C 
HETATM   11  C9  UNL     1      20.054   2.653  52.122  1.00  0.00    -0.030 C 
HETATM   12  C10 UNL     1      20.289   1.476  53.000  1.00  0.00     0.030 C 
HETATM   13  C11 UNL     1      21.743   1.052  53.004  1.00  0.00     0.031 C 
HETATM   14  C12 UNL     1      22.256   0.796  51.658  1.00  0.00    -0.026 C 
HETATM   15  C13 UNL     1      23.231   1.421  51.051  1.00  0.00     0.006 C 
HETATM   16  C14 UNL     1      24.212   2.451  51.133  1.00  0.00    -0.023 C 
HETATM   17  C15 UNL     1      24.977   2.561  50.041  1.00  0.00     0.011 C 
HETATM   18  H9  UNL     1      21.754   6.452  49.007  1.00  0.00     0.162 HD
ENDROOT
BRANCH   1  19
HETATM   19  C2  UNL     1      25.075   2.634  53.409  1.00  0.00     0.002 C 
HETATM   20  C1  UNL     1      26.329   2.219  53.173  1.00  0.00     0.010 C 
ENDBRANCH   1  19
BRANCH  17  21
HETATM   21  C16 UNL     1      26.027   3.331  49.530  1.00  0.00     0.012 C 
HETATM   22  C17 UNL     1      26.509   4.520  49.274  1.00  0.00     0.084 C 
HETATM   23 CL1  UNL     1      28.043   4.875  48.547  1.00  0.00    -0.097 Cl
ENDBRANCH  17  21
TORSDOF 2
ENDMDL
MODEL 6
REMARK VINA RESULT:      -6.8      2.264      4.815
REMARK  2 active torsions:
REMARK  status: ('A' for Active; 'I' for Inactive)
REMARK    1  A    between atoms: C2_2  and  C3_3 
REMARK    2  A    between atoms: C15_19  and  C16_20 
ROOT
HETATM    1  C3  UNL     1      22.164   2.668  50.468  1.00  0.00     0.215 C 
HETATM    2  O1  UNL     1      23.056   1.648  50.524  1.00  0.00    -0.227 OA
HETATM    3  O2  UNL     1      24.248   1.812  50.302  1.00  0.00    -0.238 OA
HETATM    4  C4  UNL     1      24.912   2.954  50.059  1.00  0.00     0.229 C 
HETATM    5  C5  UNL     1      26.314   2.957  50.663  1.00  0.00     0.151 C 
HETATM    6  N1  UNL     1      26.316   2.857  52.104  1.00  0.00    -0.359 N 
HETATM    7  C6  UNL     1      25.994   2.202  53.305  1.00  0.00     0.221 C 
HETATM    8  O3  UNL     1      25.520   1.423  52.452  1.00  0.00    -0.273 OA
HETATM    9  C7  UNL     1      25.459   1.183  54.208  1.00  0.00     0.129 C 
HETATM   10  C8  UNL     1      24.790   0.049  53.456  1.00  0.00    -0.022 C 
HETATM   11  C9  UNL     1      23.607  -0.507  53.347  1.00  0.00    -0.030 C 
HETATM   12  C10 UNL     1      22.292  -1.182  53.180  1.00  0.00     0.030 C 
HETATM   13  C11 UNL     1      21.248  -0.254  52.596  1.00  0.00     0.031 C 
HETATM   14  C12 UNL     1      21.095   0.977  53.371  1.00  0.00    -0.026 C 
HETATM   15  C13 UNL     1      21.309   2.201  52.962  1.00  0.00     0.006 C 
HETATM   16  C14 UNL     1      21.709   3.036  51.880  1.00  0.00    -0.023 C 
HETATM   17  C15 UNL     1      21.693   4.342  52.168  1.00  0.00     0.011 C 
HETATM   18  H9  UNL     1      26.760   3.583  52.751  1.00  0.00     0.162 HD
ENDROOT
BRANCH   1  19
HETATM   19  C2  UNL     1      20.943   2.112  49.754  1.00  0.00     0.002 C 
HETATM   20  C1  UNL     1      21.212   0.982  49.082  1.00  0.00     0.010 C 
ENDBRANCH   1  19
BRANCH  17  21
HETATM   21  C16 UNL     1      21.974   5.582  51.583  1.00  0.00     0.012 C 
HETATM   22  C17 UNL     1      22.852   6.367  51.014  1.00  0.00     0.084 C 
HETATM   23 CL1  UNL     1      22.572   7.978  50.435  1.00  0.00    -0.097 Cl
ENDBRANCH  17  21
TORSDOF 2
ENDMDL
MODEL 7
REMARK VINA RESULT:      -6.5      3.550      6.615
REMARK  2 active torsions:
REMARK  status: ('A' for Active; 'I' for Inactive)
REMARK    1  A    between atoms: C2_2  and  C3_3 
REMARK    2  A    between atoms: C15_19  and  C16_20 
ROOT
HETATM    1  C3  UNL     1      20.450   2.499  51.112  1.00  0.00     0.215 C 
HETATM    2  O1  UNL     1      20.833   3.743  50.731  1.00  0.00    -0.227 OA
HETATM    3  O2  UNL     1      21.489   4.474  51.459  1.00  0.00    -0.238 OA
HETATM    4  C4  UNL     1      22.015   4.212  52.667  1.00  0.00     0.229 C 
HETATM    5  C5  UNL     1      23.365   4.892  52.880  1.00  0.00     0.151 C 
HETATM    6  N1  UNL     1      24.381   4.442  51.957  1.00  0.00    -0.359 N 
HETATM    7  C6  UNL     1      24.884   4.250  50.659  1.00  0.00     0.221 C 
HETATM    8  O3  UNL     1      23.777   4.781  50.430  1.00  0.00    -0.273 OA
HETATM    9  C7  UNL     1      24.948   4.275  49.198  1.00  0.00     0.129 C 
HETATM   10  C8  UNL     1      23.704   4.886  48.583  1.00  0.00    -0.022 C 
HETATM   11  C9  UNL     1      22.723   4.544  47.780  1.00  0.00    -0.030 C 
HETATM   12  C10 UNL     1      21.588   4.220  46.877  1.00  0.00     0.030 C 
HETATM   13  C11 UNL     1      20.703   3.131  47.446  1.00  0.00     0.031 C 
HETATM   14  C12 UNL     1      21.450   1.919  47.782  1.00  0.00    -0.026 C 
HETATM   15  C13 UNL     1      21.581   1.373  48.962  1.00  0.00     0.006 C 
HETATM   16  C14 UNL     1      21.257   1.451  50.347  1.00  0.00    -0.023 C 
HETATM   17  C15 UNL     1      21.760   0.450  51.079  1.00  0.00     0.011 C 
HETATM   18  H9  UNL     1      25.308   4.003  52.259  1.00  0.00     0.162 HD
ENDROOT
BRANCH   1  19
HETATM   19  C2  UNL     1      19.009   2.350  50.654  1.00  0.00     0.002 C 
HETATM   20  C1  UNL     1      18.148   3.001  51.450  1.00  0.00     0.010 C 
ENDBRANCH   1  19
BRANCH  17  21
HETATM   21  C16 UNL     1      21.812  -0.000  52.403  1.00  0.00     0.012 C 
HETATM   22  C17 UNL     1      22.285  -0.864  53.264  1.00  0.00     0.084 C 
HETATM   23 CL1  UNL     1      21.945  -0.917  54.964  1.00  0.00    -0.097 Cl
ENDBRANCH  17  21
TORSDOF 2
ENDMDL
MODEL 8
REMARK VINA RESULT:      -6.4      3.004      5.518
REMARK  2 active torsions:
REMARK  status: ('A' for Active; 'I' for Inactive)
REMARK    1  A    between atoms: C2_2  and  C3_3 
REMARK    2  A    between atoms: C15_19  and  C16_20 
ROOT
HETATM    1  C3  UNL     1      21.709   2.255  52.460  1.00  0.00     0.215 C 
HETATM    2  O1  UNL     1      21.214   3.378  51.882  1.00  0.00    -0.227 OA
HETATM    3  O2  UNL     1      21.768   4.464  51.988  1.00  0.00    -0.238 OA
HETATM    4  C4  UNL     1      22.940   4.761  52.574  1.00  0.00     0.229 C 
HETATM    5  C5  UNL     1      23.702   5.860  51.840  1.00  0.00     0.151 C 
HETATM    6  N1  UNL     1      24.074   5.494  50.492  1.00  0.00    -0.359 N 
HETATM    7  C6  UNL     1      23.763   5.082  49.185  1.00  0.00     0.221 C 
HETATM    8  O3  UNL     1      22.632   5.144  49.712  1.00  0.00    -0.273 OA
HETATM    9  C7  UNL     1      22.958   4.680  48.031  1.00  0.00     0.129 C 
HETATM   10  C8  UNL     1      21.476   4.652  48.351  1.00  0.00    -0.022 C 
HETATM   11  C9  UNL     1      20.485   3.793  48.387  1.00  0.00    -0.030 C 
HETATM   12  C10 UNL     1      19.321   2.871  48.446  1.00  0.00     0.030 C 
HETATM   13  C11 UNL     1      19.507   1.787  49.487  1.00  0.00     0.031 C 
HETATM   14  C12 UNL     1      20.747   1.033  49.296  1.00  0.00    -0.026 C 
HETATM   15  C13 UNL     1      21.753   0.942  50.127  1.00  0.00     0.006 C 
HETATM   16  C14 UNL     1      22.288   1.333  51.388  1.00  0.00    -0.023 C 
HETATM   17  C15 UNL     1      23.493   0.814  51.650  1.00  0.00     0.011 C 
HETATM   18  H9  UNL     1      25.081   5.480  50.135  1.00  0.00     0.162 HD
ENDROOT
BRANCH   1  19
HETATM   19  C2  UNL     1      20.511   1.531  53.050  1.00  0.00     0.002 C 
HETATM   20  C1  UNL     1      20.864   0.627  53.977  1.00  0.00     0.010 C 
ENDBRANCH   1  19
BRANCH  17  21
HETATM   21  C16 UNL     1      24.483   0.828  52.638  1.00  0.00     0.012 C 
HETATM   22  C17 UNL     1      25.109   0.187  53.592  1.00  0.00     0.084 C 
HETATM   23 CL1  UNL     1      26.399   0.803  54.574  1.00  0.00    -0.097 Cl
ENDBRANCH  17  21
TORSDOF 2
ENDMDL
MODEL 9
REMARK VINA RESULT:      -6.4      2.817      4.019
REMARK  2 active torsions:
REMARK  status: ('A' for Active; 'I' for Inactive)
REMARK    1  A    between atoms: C2_2  and  C3_3 
REMARK    2  A    between atoms: C15_19  and  C16_20 
ROOT
HETATM    1  C3  UNL     1      22.865   4.942  50.981  1.00  0.00     0.215 C 
HETATM    2  O1  UNL     1      22.362   4.240  52.026  1.00  0.00    -0.227 OA
HETATM    3  O2  UNL     1      21.164   4.024  52.150  1.00  0.00    -0.238 OA
HETATM    4  C4  UNL     1      20.160   4.327  51.311  1.00  0.00     0.229 C 
HETATM    5  C5  UNL     1      19.066   3.263  51.295  1.00  0.00     0.151 C 
HETATM    6  N1  UNL     1      19.528   1.977  50.827  1.00  0.00    -0.359 N 
HETATM    7  C6  UNL     1      20.371   0.855  50.907  1.00  0.00     0.221 C 
HETATM    8  O3  UNL     1      20.767   1.543  51.871  1.00  0.00    -0.273 OA
HETATM    9  C7  UNL     1      21.421  -0.037  51.399  1.00  0.00     0.129 C 
HETATM   10  C8  UNL     1      22.127   0.530  52.615  1.00  0.00    -0.022 C 
HETATM   11  C9  UNL     1      23.329   0.911  52.976  1.00  0.00    -0.030 C 
HETATM   12  C10 UNL     1      24.667   1.356  53.448  1.00  0.00     0.030 C 
HETATM   13  C11 UNL     1      25.175   2.550  52.667  1.00  0.00     0.031 C 
HETATM   14  C12 UNL     1      25.196   2.309  51.224  1.00  0.00    -0.026 C 
HETATM   15  C13 UNL     1      24.528   2.957  50.305  1.00  0.00     0.006 C 
HETATM   16  C14 UNL     1      23.599   4.000  50.028  1.00  0.00    -0.023 C 
HETATM   17  C15 UNL     1      23.327   4.153  48.727  1.00  0.00     0.011 C 
HETATM   18  H9  UNL     1      19.112   1.463  49.988  1.00  0.00     0.162 HD
ENDROOT
BRANCH   1  19
HETATM   19  C2  UNL     1      23.918   5.864  51.570  1.00  0.00     0.002 C 
HETATM   20  C1  UNL     1      23.898   7.086  51.016  1.00  0.00     0.010 C 
ENDBRANCH   1  19
BRANCH  17  21
HETATM   21  C16 UNL     1      22.540   4.933  47.872  1.00  0.00     0.012 C 
HETATM   22  C17 UNL     1      21.363   5.430  47.592  1.00  0.00     0.084 C 
HETATM   23 CL1  UNL     1      20.966   6.441  46.240  1.00  0.00    -0.097 Cl
ENDBRANCH  17  21
TORSDOF 2
ENDMDL
