MODEL 1
REMARK VINA RESULT:      -7.5      0.000      0.000
REMARK  5 active torsions:
REMARK  status: ('A' for Active; 'I' for Inactive)
REMARK    1  A    between atoms: C2_2  and  C4_4 
REMARK    2  A    between atoms: C7_7  and  N1_8 
REMARK    3  A    between atoms: N2_11  and  C10_12 
REMARK    4  A    between atoms: C10_12  and  C11_13 
REMARK    5  A    between atoms: C15_18  and  N4_19 
ROOT
HETATM    1  C4  UNL     1      22.893   0.034  53.738  1.00  0.00     0.002 C 
HETATM    2  C5  UNL     1      23.464   0.854  52.881  1.00  0.00     0.006 C 
HETATM    3  C6  UNL     1      22.739   1.182  51.630  1.00  0.00     0.091 C 
HETATM    4  C7  UNL     1      23.674   1.918  50.724  1.00  0.00     0.225 C 
HETATM    5  C8  UNL     1      24.256   3.081  51.540  1.00  0.00     0.055 C 
HETATM    6  C9  UNL     1      25.278   2.449  52.461  1.00  0.00     0.125 C 
HETATM    7  N2  UNL     1      24.743   1.367  53.230  1.00  0.00    -0.380 N 
ENDROOT
BRANCH   7   8
HETATM    8  C10 UNL     1      25.610   0.929  54.301  1.00  0.00     0.164 C 
BRANCH   8   9
HETATM    9  C11 UNL     1      26.679   0.038  53.739  1.00  0.00    -0.006 A 
HETATM   10  C12 UNL     1      26.504  -1.171  53.075  1.00  0.00     0.030 A 
HETATM   11  C13 UNL     1      27.779  -1.595  52.751  1.00  0.00     0.119 A 
HETATM   12  N3  UNL     1      28.726  -0.742  53.165  1.00  0.00    -0.239 N 
HETATM   13  C14 UNL     1      28.059   0.275  53.778  1.00  0.00     0.113 A 
HETATM   14  N5  UNL     1      29.922  -0.035  53.475  1.00  0.00    -0.147 NA
HETATM   15  C15 UNL     1      29.328   0.947  54.064  1.00  0.00     0.171 A 
BRANCH  15  16
HETATM   16  N4  UNL     1      29.775   2.142  54.700  1.00  0.00    -0.381 N 
HETATM   17  H22 UNL     1      28.931   2.774  54.773  1.00  0.00     0.157 HD
HETATM   18  H23 UNL     1      30.772   2.242  54.988  1.00  0.00     0.157 HD
ENDBRANCH  15  16
ENDBRANCH   8   9
ENDBRANCH   7   8
BRANCH   1  19
HETATM   19  C2  UNL     1      21.578  -0.594  53.561  1.00  0.00     0.002 C 
HETATM   20  C1  UNL     1      20.521   0.288  54.206  1.00  0.00     0.013 C 
HETATM   21  C3  UNL     1      21.575  -1.963  54.244  1.00  0.00     0.013 C 
ENDBRANCH   1  19
BRANCH   4  22
HETATM   22  N1  UNL     1      23.075   2.436  49.529  1.00  0.00     0.083 N 
HETATM   23  H12 UNL     1      22.968   3.453  49.550  1.00  0.00     0.313 HD
HETATM   24  H13 UNL     1      22.185   1.911  49.353  1.00  0.00     0.313 HD
ENDBRANCH   4  22
TORSDOF 5
ENDMDL
MODEL 2
REMARK VINA RESULT:      -7.5      1.511      2.344
REMARK  5 active torsions:
REMARK  status: ('A' for Active; 'I' for Inactive)
REMARK    1  A    between atoms: C2_2  and  C4_4 
REMARK    2  A    between atoms: C7_7  and  N1_8 
REMARK    3  A    between atoms: N2_11  and  C10_12 
REMARK    4  A    between atoms: C10_12  and  C11_13 
REMARK    5  A    between atoms: C15_18  and  N4_19 
ROOT
HETATM    1  C4  UNL     1      23.972  -0.160  53.478  1.00  0.00     0.002 C 
HETATM    2  C5  UNL     1      24.009   0.957  52.783  1.00  0.00     0.006 C 
HETATM    3  C6  UNL     1      22.840   1.867  52.850  1.00  0.00     0.091 C 
HETATM    4  C7  UNL     1      23.007   2.926  51.807  1.00  0.00     0.225 C 
HETATM    5  C8  UNL     1      24.401   3.535  52.015  1.00  0.00     0.055 C 
HETATM    6  C9  UNL     1      25.369   2.511  51.461  1.00  0.00     0.125 C 
HETATM    7  N2  UNL     1      25.180   1.205  52.018  1.00  0.00    -0.380 N 
ENDROOT
BRANCH   7   8
HETATM    8  C10 UNL     1      26.252   0.283  51.716  1.00  0.00     0.164 C 
BRANCH   8   9
HETATM    9  C11 UNL     1      27.388   0.516  52.668  1.00  0.00    -0.006 A 
HETATM   10  C12 UNL     1      27.797   1.730  53.210  1.00  0.00     0.030 A 
HETATM   11  C13 UNL     1      28.868   1.420  54.026  1.00  0.00     0.119 A 
HETATM   12  N3  UNL     1      29.152   0.111  54.029  1.00  0.00    -0.239 N 
HETATM   13  C14 UNL     1      28.242  -0.462  53.192  1.00  0.00     0.113 A 
HETATM   14  N5  UNL     1      29.670  -1.200  54.229  1.00  0.00    -0.147 NA
HETATM   15  C15 UNL     1      28.827  -1.781  53.444  1.00  0.00     0.171 A 
BRANCH  15  16
HETATM   16  N4  UNL     1      28.612  -3.131  53.039  1.00  0.00    -0.381 N 
HETATM   17  H22 UNL     1      29.275  -3.310  52.235  1.00  0.00     0.157 HD
HETATM   18  H23 UNL     1      27.904  -3.718  53.528  1.00  0.00     0.157 HD
ENDBRANCH  15  16
ENDBRANCH   8   9
ENDBRANCH   7   8
BRANCH   1  19
HETATM   19  C2  UNL     1      22.856  -0.590  54.329  1.00  0.00     0.002 C 
HETATM   20  C1  UNL     1      23.414  -1.343  55.527  1.00  0.00     0.013 C 
HETATM   21  C3  UNL     1      21.942  -1.522  53.532  1.00  0.00     0.013 C 
ENDBRANCH   1  19
BRANCH   4  22
HETATM   22  N1  UNL     1      22.028   3.971  51.844  1.00  0.00     0.083 N 
HETATM   23  H12 UNL     1      21.880   4.407  50.931  1.00  0.00     0.313 HD
HETATM   24  H13 UNL     1      22.292   4.642  52.605  1.00  0.00     0.313 HD
ENDBRANCH   4  22
TORSDOF 5
ENDMDL
MODEL 3
REMARK VINA RESULT:      -7.3      2.020      5.268
REMARK  5 active torsions:
REMARK  status: ('A' for Active; 'I' for Inactive)
REMARK    1  A    between atoms: C2_2  and  C4_4 
REMARK    2  A    between atoms: C7_7  and  N1_8 
REMARK    3  A    between atoms: N2_11  and  C10_12 
REMARK    4  A    between atoms: C10_12  and  C11_13 
REMARK    5  A    between atoms: C15_18  and  N4_19 
ROOT
HETATM    1  C4  UNL     1      23.127   0.216  53.434  1.00  0.00     0.002 C 
HETATM    2  C5  UNL     1      24.417   0.346  53.209  1.00  0.00     0.006 C 
HETATM    3  C6  UNL     1      25.280  -0.852  53.343  1.00  0.00     0.091 C 
HETATM    4  C7  UNL     1      26.709  -0.413  53.282  1.00  0.00     0.225 C 
HETATM    5  C8  UNL     1      26.856   0.435  52.011  1.00  0.00     0.055 C 
HETATM    6  C9  UNL     1      26.219   1.768  52.346  1.00  0.00     0.125 C 
HETATM    7  N2  UNL     1      24.884   1.638  52.847  1.00  0.00    -0.380 N 
ENDROOT
BRANCH   7   8
HETATM    8  C10 UNL     1      24.164   2.891  52.915  1.00  0.00     0.164 C 
BRANCH   8   9
HETATM    9  C11 UNL     1      23.808   3.333  51.526  1.00  0.00    -0.006 A 
HETATM   10  C12 UNL     1      23.370   2.534  50.475  1.00  0.00     0.030 A 
HETATM   11  C13 UNL     1      23.170   3.403  49.419  1.00  0.00     0.119 A 
HETATM   12  N3  UNL     1      23.451   4.674  49.736  1.00  0.00    -0.239 N 
HETATM   13  C14 UNL     1      23.847   4.645  51.040  1.00  0.00     0.113 A 
HETATM   14  N5  UNL     1      23.663   6.081  49.788  1.00  0.00    -0.147 NA
HETATM   15  C15 UNL     1      24.045   6.096  51.020  1.00  0.00     0.171 A 
BRANCH  15  16
HETATM   16  N4  UNL     1      24.466   7.121  51.919  1.00  0.00    -0.381 N 
HETATM   17  H22 UNL     1      23.882   7.972  51.695  1.00  0.00     0.157 HD
HETATM   18  H23 UNL     1      25.219   6.930  52.614  1.00  0.00     0.157 HD
ENDBRANCH  15  16
ENDBRANCH   8   9
ENDBRANCH   7   8
BRANCH   1  19
HETATM   19  C2  UNL     1      22.456  -1.034  53.813  1.00  0.00     0.002 C 
HETATM   20  C1  UNL     1      20.965  -0.890  53.554  1.00  0.00     0.013 C 
HETATM   21  C3  UNL     1      22.684  -1.299  55.302  1.00  0.00     0.013 C 
ENDBRANCH   1  19
BRANCH   4  22
HETATM   22  N1  UNL     1      27.668  -1.477  53.249  1.00  0.00     0.083 N 
HETATM   23  H12 UNL     1      28.579  -1.200  53.621  1.00  0.00     0.313 HD
HETATM   24  H13 UNL     1      27.698  -1.863  52.275  1.00  0.00     0.313 HD
ENDBRANCH   4  22
TORSDOF 5
ENDMDL
MODEL 4
REMARK VINA RESULT:      -7.3      1.602      3.262
REMARK  5 active torsions:
REMARK  status: ('A' for Active; 'I' for Inactive)
REMARK    1  A    between atoms: C2_2  and  C4_4 
REMARK    2  A    between atoms: C7_7  and  N1_8 
REMARK    3  A    between atoms: N2_11  and  C10_12 
REMARK    4  A    between atoms: C10_12  and  C11_13 
REMARK    5  A    between atoms: C15_18  and  N4_19 
ROOT
HETATM    1  C4  UNL     1      23.090   1.627  50.965  1.00  0.00     0.002 C 
HETATM    2  C5  UNL     1      23.066   1.002  52.123  1.00  0.00     0.006 C 
HETATM    3  C6  UNL     1      21.749   0.724  52.746  1.00  0.00     0.091 C 
HETATM    4  C7  UNL     1      21.981   0.239  54.141  1.00  0.00     0.225 C 
HETATM    5  C8  UNL     1      22.985  -0.919  54.045  1.00  0.00     0.055 C 
HETATM    6  C9  UNL     1      24.328  -0.262  53.803  1.00  0.00     0.125 C 
HETATM    7  N2  UNL     1      24.317   0.636  52.688  1.00  0.00    -0.380 N 
ENDROOT
BRANCH   7   8
HETATM    8  C10 UNL     1      25.635   1.062  52.271  1.00  0.00     0.164 C 
BRANCH   8   9
HETATM    9  C11 UNL     1      26.626  -0.021  52.583  1.00  0.00    -0.006 A 
HETATM   10  C12 UNL     1      26.522  -1.372  52.274  1.00  0.00     0.030 A 
HETATM   11  C13 UNL     1      27.681  -1.946  52.760  1.00  0.00     0.119 A 
HETATM   12  N3  UNL     1      28.491  -1.054  53.346  1.00  0.00    -0.239 N 
HETATM   13  C14 UNL     1      27.850   0.144  53.243  1.00  0.00     0.113 A 
HETATM   14  N5  UNL     1      29.533  -0.347  54.010  1.00  0.00    -0.147 NA
HETATM   15  C15 UNL     1      28.959   0.806  53.933  1.00  0.00     0.171 A 
BRANCH  15  16
HETATM   16  N4  UNL     1      29.308   2.121  54.359  1.00  0.00    -0.381 N 
HETATM   17  H22 UNL     1      30.285   2.302  53.999  1.00  0.00     0.157 HD
HETATM   18  H23 UNL     1      28.633   2.688  54.916  1.00  0.00     0.157 HD
ENDBRANCH  15  16
ENDBRANCH   8   9
ENDBRANCH   7   8
BRANCH   1  19
HETATM   19  C2  UNL     1      21.908   2.079  50.222  1.00  0.00     0.002 C 
HETATM   20  C1  UNL     1      21.906   1.423  48.852  1.00  0.00     0.013 C 
HETATM   21  C3  UNL     1      21.969   3.598  50.052  1.00  0.00     0.013 C 
ENDBRANCH   1  19
BRANCH   4  22
HETATM   22  N1  UNL     1      20.808  -0.214  54.827  1.00  0.00     0.083 N 
HETATM   23  H12 UNL     1      20.866  -1.196  55.105  1.00  0.00     0.313 HD
HETATM   24  H13 UNL     1      19.972   0.020  54.239  1.00  0.00     0.313 HD
ENDBRANCH   4  22
TORSDOF 5
ENDMDL
MODEL 5
REMARK VINA RESULT:      -7.0      2.943      5.947
REMARK  5 active torsions:
REMARK  status: ('A' for Active; 'I' for Inactive)
REMARK    1  A    between atoms: C2_2  and  C4_4 
REMARK    2  A    between atoms: C7_7  and  N1_8 
REMARK    3  A    between atoms: N2_11  and  C10_12 
REMARK    4  A    between atoms: C10_12  and  C11_13 
REMARK    5  A    between atoms: C15_18  and  N4_19 
ROOT
HETATM    1  C4  UNL     1      23.075   2.024  51.278  1.00  0.00     0.002 C 
HETATM    2  C5  UNL     1      24.325   2.110  51.682  1.00  0.00     0.006 C 
HETATM    3  C6  UNL     1      24.651   1.673  53.061  1.00  0.00     0.091 C 
HETATM    4  C7  UNL     1      26.055   2.089  53.367  1.00  0.00     0.225 C 
HETATM    5  C8  UNL     1      26.932   1.559  52.223  1.00  0.00     0.055 C 
HETATM    6  C9  UNL     1      26.666   2.487  51.056  1.00  0.00     0.125 C 
HETATM    7  N2  UNL     1      25.272   2.617  50.753  1.00  0.00    -0.380 N 
ENDROOT
BRANCH   7   8
HETATM    8  C10 UNL     1      25.011   3.271  49.490  1.00  0.00     0.164 C 
BRANCH   8   9
HETATM    9  C11 UNL     1      25.330   4.732  49.614  1.00  0.00    -0.006 A 
HETATM   10  C12 UNL     1      26.333   5.433  48.953  1.00  0.00     0.030 A 
HETATM   11  C13 UNL     1      26.214   6.738  49.395  1.00  0.00     0.119 A 
HETATM   12  N3  UNL     1      25.218   6.895  50.277  1.00  0.00    -0.239 N 
HETATM   13  C14 UNL     1      24.661   5.660  50.421  1.00  0.00     0.113 A 
HETATM   14  N5  UNL     1      24.246   7.352  51.210  1.00  0.00    -0.147 NA
HETATM   15  C15 UNL     1      23.690   6.200  51.375  1.00  0.00     0.171 A 
BRANCH  15  16
HETATM   16  N4  UNL     1      22.602   5.724  52.165  1.00  0.00    -0.381 N 
HETATM   17  H22 UNL     1      22.647   6.248  53.081  1.00  0.00     0.157 HD
HETATM   18  H23 UNL     1      21.960   4.995  51.787  1.00  0.00     0.157 HD
ENDBRANCH  15  16
ENDBRANCH   8   9
ENDBRANCH   7   8
BRANCH   1  19
HETATM   19  C2  UNL     1      21.957   1.523  52.087  1.00  0.00     0.002 C 
HETATM   20  C1  UNL     1      21.436   0.238  51.464  1.00  0.00     0.013 C 
HETATM   21  C3  UNL     1      20.838   2.565  52.102  1.00  0.00     0.013 C 
ENDBRANCH   1  19
BRANCH   4  22
HETATM   22  N1  UNL     1      26.571   1.606  54.614  1.00  0.00     0.083 N 
HETATM   23  H12 UNL     1      27.496   1.183  54.522  1.00  0.00     0.313 HD
HETATM   24  H13 UNL     1      25.850   0.980  55.048  1.00  0.00     0.313 HD
ENDBRANCH   4  22
TORSDOF 5
ENDMDL
MODEL 6
REMARK VINA RESULT:      -6.9      3.104      6.355
REMARK  5 active torsions:
REMARK  status: ('A' for Active; 'I' for Inactive)
REMARK    1  A    between atoms: C2_2  and  C4_4 
REMARK    2  A    between atoms: C7_7  and  N1_8 
REMARK    3  A    between atoms: N2_11  and  C10_12 
REMARK    4  A    between atoms: C10_12  and  C11_13 
REMARK    5  A    between atoms: C15_18  and  N4_19 
ROOT
HETATM    1  C4  UNL     1      24.779   0.190  52.993  1.00  0.00     0.002 C 
HETATM    2  C5  UNL     1      23.466   0.122  53.051  1.00  0.00     0.006 C 
HETATM    3  C6  UNL     1      22.852  -0.872  53.964  1.00  0.00     0.091 C 
HETATM    4  C7  UNL     1      21.385  -0.931  53.678  1.00  0.00     0.225 C 
HETATM    5  C8  UNL     1      20.865   0.513  53.738  1.00  0.00     0.055 C 
HETATM    6  C9  UNL     1      21.326   1.155  52.447  1.00  0.00     0.125 C 
HETATM    7  N2  UNL     1      22.734   1.018  52.226  1.00  0.00    -0.380 N 
ENDROOT
BRANCH   7   8
HETATM    8  C10 UNL     1      23.239   1.847  51.154  1.00  0.00     0.164 C 
BRANCH   8   9
HETATM    9  C11 UNL     1      23.190   3.287  51.577  1.00  0.00    -0.006 A 
HETATM   10  C12 UNL     1      23.792   3.857  52.693  1.00  0.00     0.030 A 
HETATM   11  C13 UNL     1      23.462   5.198  52.637  1.00  0.00     0.119 A 
HETATM   12  N3  UNL     1      22.703   5.498  51.575  1.00  0.00    -0.239 N 
HETATM   13  C14 UNL     1      22.527   4.323  50.908  1.00  0.00     0.113 A 
HETATM   14  N5  UNL     1      21.913   6.100  50.555  1.00  0.00    -0.147 NA
HETATM   15  C15 UNL     1      21.722   5.009  49.895  1.00  0.00     0.171 A 
BRANCH  15  16
HETATM   16  N4  UNL     1      21.018   4.679  48.700  1.00  0.00    -0.381 N 
HETATM   17  H22 UNL     1      21.731   4.694  47.920  1.00  0.00     0.157 HD
HETATM   18  H23 UNL     1      19.994   4.484  48.731  1.00  0.00     0.157 HD
ENDBRANCH  15  16
ENDBRANCH   8   9
ENDBRANCH   7   8
BRANCH   1  19
HETATM   19  C2  UNL     1      25.705  -0.644  53.769  1.00  0.00     0.002 C 
HETATM   20  C1  UNL     1      26.438   0.233  54.770  1.00  0.00     0.013 C 
HETATM   21  C3  UNL     1      26.722  -1.284  52.822  1.00  0.00     0.013 C 
ENDBRANCH   1  19
BRANCH   4  22
HETATM   22  N1  UNL     1      20.624  -1.741  54.583  1.00  0.00     0.083 N 
HETATM   23  H12 UNL     1      19.956  -2.348  54.104  1.00  0.00     0.313 HD
HETATM   24  H13 UNL     1      20.197  -1.114  55.306  1.00  0.00     0.313 HD
ENDBRANCH   4  22
TORSDOF 5
ENDMDL
MODEL 7
REMARK VINA RESULT:      -6.9      3.282      6.893
REMARK  5 active torsions:
REMARK  status: ('A' for Active; 'I' for Inactive)
REMARK    1  A    between atoms: C2_2  and  C4_4 
REMARK    2  A    between atoms: C7_7  and  N1_8 
REMARK    3  A    between atoms: N2_11  and  C10_12 
REMARK    4  A    between atoms: C10_12  and  C11_13 
REMARK    5  A    between atoms: C15_18  and  N4_19 
ROOT
HETATM    1  C4  UNL     1      24.462   0.746  52.170  1.00  0.00     0.002 C 
HETATM    2  C5  UNL     1      23.825   1.895  52.094  1.00  0.00     0.006 C 
HETATM    3  C6  UNL     1      24.367   3.052  52.847  1.00  0.00     0.091 C 
HETATM    4  C7  UNL     1      23.358   4.155  52.805  1.00  0.00     0.225 C 
HETATM    5  C8  UNL     1      22.998   4.369  51.328  1.00  0.00     0.055 C 
HETATM    6  C9  UNL     1      22.089   3.212  50.969  1.00  0.00     0.125 C 
HETATM    7  N2  UNL     1      22.658   1.936  51.284  1.00  0.00    -0.380 N 
ENDROOT
BRANCH   7   8
HETATM    8  C10 UNL     1      21.940   0.820  50.710  1.00  0.00     0.164 C 
BRANCH   8   9
HETATM    9  C11 UNL     1      20.886   0.361  51.675  1.00  0.00    -0.006 A 
HETATM   10  C12 UNL     1      21.072  -0.058  52.987  1.00  0.00     0.030 A 
HETATM   11  C13 UNL     1      19.808  -0.367  53.452  1.00  0.00     0.119 A 
HETATM   12  N3  UNL     1      18.858  -0.172  52.528  1.00  0.00    -0.239 N 
HETATM   13  C14 UNL     1      19.511   0.280  51.422  1.00  0.00     0.113 A 
HETATM   14  N5  UNL     1      17.660  -0.056  51.767  1.00  0.00    -0.147 NA
HETATM   15  C15 UNL     1      18.241   0.374  50.699  1.00  0.00     0.171 A 
BRANCH  15  16
HETATM   16  N4  UNL     1      17.785   0.756  49.403  1.00  0.00    -0.381 N 
HETATM   17  H22 UNL     1      18.033   1.777  49.289  1.00  0.00     0.157 HD
HETATM   18  H23 UNL     1      17.310   0.061  48.788  1.00  0.00     0.157 HD
ENDBRANCH  15  16
ENDBRANCH   8   9
ENDBRANCH   7   8
BRANCH   1  19
HETATM   19  C2  UNL     1      25.684   0.506  52.948  1.00  0.00     0.002 C 
HETATM   20  C1  UNL     1      26.704  -0.186  52.059  1.00  0.00     0.013 C 
HETATM   21  C3  UNL     1      25.356  -0.400  54.136  1.00  0.00     0.013 C 
ENDBRANCH   1  19
BRANCH   4  22
HETATM   22  N1  UNL     1      23.798   5.399  53.365  1.00  0.00     0.083 N 
HETATM   23  H12 UNL     1      23.862   6.145  52.669  1.00  0.00     0.313 HD
HETATM   24  H13 UNL     1      24.685   5.225  53.896  1.00  0.00     0.313 HD
ENDBRANCH   4  22
TORSDOF 5
ENDMDL
MODEL 8
REMARK VINA RESULT:      -6.9      2.004      5.487
REMARK  5 active torsions:
REMARK  status: ('A' for Active; 'I' for Inactive)
REMARK    1  A    between atoms: C2_2  and  C4_4 
REMARK    2  A    between atoms: C7_7  and  N1_8 
REMARK    3  A    between atoms: N2_11  and  C10_12 
REMARK    4  A    between atoms: C10_12  and  C11_13 
REMARK    5  A    between atoms: C15_18  and  N4_19 
ROOT
HETATM    1  C4  UNL     1      22.605   0.755  53.044  1.00  0.00     0.002 C 
HETATM    2  C5  UNL     1      23.917   0.707  52.948  1.00  0.00     0.006 C 
HETATM    3  C6  UNL     1      24.598  -0.581  53.225  1.00  0.00     0.091 C 
HETATM    4  C7  UNL     1      26.070  -0.330  53.292  1.00  0.00     0.225 C 
HETATM    5  C8  UNL     1      26.451   0.417  52.006  1.00  0.00     0.055 C 
HETATM    6  C9  UNL     1      25.966   1.836  52.212  1.00  0.00     0.125 C 
HETATM    7  N2  UNL     1      24.583   1.907  52.578  1.00  0.00    -0.380 N 
ENDROOT
BRANCH   7   8
HETATM    8  C10 UNL     1      24.032   3.242  52.514  1.00  0.00     0.164 C 
BRANCH   8   9
HETATM    9  C11 UNL     1      24.016   3.703  51.086  1.00  0.00    -0.006 A 
HETATM   10  C12 UNL     1      24.681   4.800  50.548  1.00  0.00     0.030 A 
HETATM   11  C13 UNL     1      24.359   4.795  49.204  1.00  0.00     0.119 A 
HETATM   12  N3  UNL     1      23.546   3.783  48.872  1.00  0.00    -0.239 N 
HETATM   13  C14 UNL     1      23.326   3.097  50.029  1.00  0.00     0.113 A 
HETATM   14  N5  UNL     1      22.707   2.823  48.240  1.00  0.00    -0.147 NA
HETATM   15  C15 UNL     1      22.473   2.146  49.313  1.00  0.00     0.171 A 
BRANCH  15  16
HETATM   16  N4  UNL     1      21.704   0.982  49.607  1.00  0.00    -0.381 N 
HETATM   17  H22 UNL     1      22.029   0.233  48.938  1.00  0.00     0.157 HD
HETATM   18  H23 UNL     1      20.988   1.005  50.365  1.00  0.00     0.157 HD
ENDBRANCH  15  16
ENDBRANCH   8   9
ENDBRANCH   7   8
BRANCH   1  19
HETATM   19  C2  UNL     1      21.742  -0.375  53.407  1.00  0.00     0.002 C 
HETATM   20  C1  UNL     1      20.379  -0.179  52.765  1.00  0.00     0.013 C 
HETATM   21  C3  UNL     1      21.580  -0.419  54.928  1.00  0.00     0.013 C 
ENDBRANCH   1  19
BRANCH   4  22
HETATM   22  N1  UNL     1      26.880  -1.507  53.408  1.00  0.00     0.083 N 
HETATM   23  H12 UNL     1      27.290  -1.615  54.337  1.00  0.00     0.313 HD
HETATM   24  H13 UNL     1      27.577  -1.505  52.625  1.00  0.00     0.313 HD
ENDBRANCH   4  22
TORSDOF 5
ENDMDL
MODEL 9
REMARK VINA RESULT:      -6.8      2.649      5.781
REMARK  5 active torsions:
REMARK  status: ('A' for Active; 'I' for Inactive)
REMARK    1  A    between atoms: C2_2  and  C4_4 
REMARK    2  A    between atoms: C7_7  and  N1_8 
REMARK    3  A    between atoms: N2_11  and  C10_12 
REMARK    4  A    between atoms: C10_12  and  C11_13 
REMARK    5  A    between atoms: C15_18  and  N4_19 
ROOT
HETATM    1  C4  UNL     1      22.991   1.157  52.351  1.00  0.00     0.002 C 
HETATM    2  C5  UNL     1      24.220   1.626  52.307  1.00  0.00     0.006 C 
HETATM    3  C6  UNL     1      25.124   1.342  53.448  1.00  0.00     0.091 C 
HETATM    4  C7  UNL     1      26.360   2.169  53.285  1.00  0.00     0.225 C 
HETATM    5  C8  UNL     1      26.889   1.899  51.870  1.00  0.00     0.055 C 
HETATM    6  C9  UNL     1      25.971   2.674  50.948  1.00  0.00     0.125 C 
HETATM    7  N2  UNL     1      24.587   2.371  51.154  1.00  0.00    -0.380 N 
ENDROOT
BRANCH   7   8
HETATM    8  C10 UNL     1      23.719   2.884  50.118  1.00  0.00     0.164 C 
BRANCH   8   9
HETATM    9  C11 UNL     1      23.116   4.181  50.574  1.00  0.00    -0.006 A 
HETATM   10  C12 UNL     1      21.813   4.396  51.010  1.00  0.00     0.030 A 
HETATM   11  C13 UNL     1      21.754   5.741  51.323  1.00  0.00     0.119 A 
HETATM   12  N3  UNL     1      22.917   6.371  51.112  1.00  0.00    -0.239 N 
HETATM   13  C14 UNL     1      23.771   5.416  50.649  1.00  0.00     0.113 A 
HETATM   14  N5  UNL     1      24.003   7.283  50.993  1.00  0.00    -0.147 NA
HETATM   15  C15 UNL     1      24.842   6.409  50.551  1.00  0.00     0.171 A 
BRANCH  15  16
HETATM   16  N4  UNL     1      26.212   6.456  50.155  1.00  0.00    -0.381 N 
HETATM   17  H22 UNL     1      26.243   6.123  49.153  1.00  0.00     0.157 HD
HETATM   18  H23 UNL     1      26.941   6.776  50.827  1.00  0.00     0.157 HD
ENDBRANCH  15  16
ENDBRANCH   8   9
ENDBRANCH   7   8
BRANCH   1  19
HETATM   19  C2  UNL     1      22.427   0.363  53.450  1.00  0.00     0.002 C 
HETATM   20  C1  UNL     1      22.473  -1.107  53.068  1.00  0.00     0.013 C 
HETATM   21  C3  UNL     1      20.973   0.779  53.679  1.00  0.00     0.013 C 
ENDBRANCH   1  19
BRANCH   4  22
HETATM   22  N1  UNL     1      27.399   1.896  54.234  1.00  0.00     0.083 N 
HETATM   23  H12 UNL     1      27.052   1.438  55.080  1.00  0.00     0.313 HD
HETATM   24  H13 UNL     1      27.926   2.785  54.410  1.00  0.00     0.313 HD
ENDBRANCH   4  22
TORSDOF 5
ENDMDL
