MODEL 1
REMARK VINA RESULT:      -9.0      0.000      0.000
REMARK  6 active torsions:
REMARK  status: ('A' for Active; 'I' for Inactive)
REMARK    1  A    between atoms: C2_2  and  N1_3 
REMARK    2  A    between atoms: C2_2  and  C18_25 
REMARK    3  A    between atoms: N1_3  and  C3_4 
REMARK       I    between atoms: N4_15  and  C11_16 
REMARK    4  A    between atoms: C11_16  and  C12_18 
REMARK    5  A    between atoms: C13_19  and  C14_20 
REMARK    6  A    between atoms: C14_20  and  N5_21 
ROOT
HETATM    1  C3  UNL     1      26.157   3.159  50.399  1.00  0.00     0.139 A 
HETATM    2  N2  UNL     1      27.177   3.778  49.817  1.00  0.00    -0.224 NA
HETATM    3  C4  UNL     1      27.125   4.822  48.996  1.00  0.00     0.236 A 
HETATM    4  N3  UNL     1      25.875   5.245  48.772  1.00  0.00    -0.234 NA
HETATM    5  C5  UNL     1      24.813   4.646  49.343  1.00  0.00     0.114 A 
HETATM    6  S1  UNL     1      23.043   4.974  49.248  1.00  0.00    -0.072 SA
HETATM    7  C6  UNL     1      22.547   3.635  50.353  1.00  0.00     0.010 A 
HETATM    8  C7  UNL     1      23.733   3.029  50.718  1.00  0.00    -0.025 A 
HETATM    9  C8  UNL     1      24.869   3.569  50.189  1.00  0.00     0.053 A 
HETATM   10  C9  UNL     1      23.272   1.947  51.595  1.00  0.00     0.060 C 
HETATM   11  C10 UNL     1      22.124   1.219  50.853  1.00  0.00     0.131 C 
HETATM   12  N4  UNL     1      20.964   2.040  51.119  1.00  0.00    -0.344 N 
HETATM   13  C11 UNL     1      19.712   1.658  51.727  1.00  0.00     0.243 C 
HETATM   14  O1  UNL     1      18.820   2.564  51.861  1.00  0.00    -0.268 OA
HETATM   15  C17 UNL     1      21.173   3.388  50.693  1.00  0.00     0.172 C 
ENDROOT
BRANCH   1  16
HETATM   16  N1  UNL     1      26.664   2.154  51.250  1.00  0.00    -0.366 N 
HETATM   17  H5  UNL     1      26.713   1.294  50.710  1.00  0.00     0.161 HD
BRANCH  16  18
HETATM   18  C2  UNL     1      27.130   1.738  52.526  1.00  0.00     0.112 C 
HETATM   19  C1  UNL     1      26.198   2.101  53.692  1.00  0.00     0.037 C 
BRANCH  18  20
HETATM   20  C18 UNL     1      27.447   0.311  52.677  1.00  0.00    -0.036 A 
HETATM   21  C19 UNL     1      28.654  -0.115  53.209  1.00  0.00     0.009 A 
HETATM   22  C20 UNL     1      29.061  -1.418  53.381  1.00  0.00     0.001 A 
HETATM   23  C21 UNL     1      28.220  -2.435  53.003  1.00  0.00     0.000 A 
HETATM   24  C22 UNL     1      27.004  -2.106  52.465  1.00  0.00     0.001 A 
HETATM   25  C23 UNL     1      26.682  -0.775  52.332  1.00  0.00     0.009 A 
ENDBRANCH  18  20
ENDBRANCH  16  18
ENDBRANCH   1  16
BRANCH  13  26
HETATM   26  C12 UNL     1      19.485   0.288  52.169  1.00  0.00     0.072 C 
HETATM   27  C13 UNL     1      20.012  -0.189  53.275  1.00  0.00     0.008 C 
BRANCH  27  28
HETATM   28  C14 UNL     1      20.874   0.289  54.351  1.00  0.00     0.299 C 
BRANCH  28  29
HETATM   29  N5  UNL     1      21.787  -0.755  54.843  1.00  0.00     0.083 N 
HETATM   30  C15 UNL     1      23.060  -0.601  54.126  1.00  0.00     0.309 C 
HETATM   31  C16 UNL     1      21.248  -2.030  54.418  1.00  0.00     0.309 C 
ENDBRANCH  28  29
ENDBRANCH  27  28
ENDBRANCH  13  26
TORSDOF 6
ENDMDL
MODEL 2
REMARK VINA RESULT:      -8.8      2.115      5.732
REMARK  6 active torsions:
REMARK  status: ('A' for Active; 'I' for Inactive)
REMARK    1  A    between atoms: C2_2  and  N1_3 
REMARK    2  A    between atoms: C2_2  and  C18_25 
REMARK    3  A    between atoms: N1_3  and  C3_4 
REMARK       I    between atoms: N4_15  and  C11_16 
REMARK    4  A    between atoms: C11_16  and  C12_18 
REMARK    5  A    between atoms: C13_19  and  C14_20 
REMARK    6  A    between atoms: C14_20  and  N5_21 
ROOT
HETATM    1  C3  UNL     1      23.267   0.021  53.304  1.00  0.00     0.139 A 
HETATM    2  N2  UNL     1      22.851  -1.097  53.887  1.00  0.00    -0.224 NA
HETATM    3  C4  UNL     1      21.602  -1.427  54.200  1.00  0.00     0.236 A 
HETATM    4  N3  UNL     1      20.715  -0.483  53.864  1.00  0.00    -0.234 NA
HETATM    5  C5  UNL     1      21.095   0.666  53.271  1.00  0.00     0.114 A 
HETATM    6  S1  UNL     1      20.163   2.099  52.702  1.00  0.00    -0.072 SA
HETATM    7  C6  UNL     1      21.592   3.016  52.088  1.00  0.00     0.010 A 
HETATM    8  C7  UNL     1      22.670   2.195  52.349  1.00  0.00    -0.025 A 
HETATM    9  C8  UNL     1      22.384   1.004  52.950  1.00  0.00     0.053 A 
HETATM   10  C9  UNL     1      23.796   2.991  51.848  1.00  0.00     0.060 C 
HETATM   11  C10 UNL     1      23.638   4.418  52.429  1.00  0.00     0.131 C 
HETATM   12  N4  UNL     1      22.688   5.051  51.541  1.00  0.00    -0.344 N 
HETATM   13  C11 UNL     1      22.842   6.265  50.778  1.00  0.00     0.243 C 
HETATM   14  O1  UNL     1      21.856   6.636  50.053  1.00  0.00    -0.268 OA
HETATM   15  C17 UNL     1      21.468   4.309  51.472  1.00  0.00     0.172 C 
ENDROOT
BRANCH   1  16
HETATM   16  N1  UNL     1      24.658  -0.073  53.086  1.00  0.00    -0.366 N 
HETATM   17  H5  UNL     1      24.870  -1.047  52.885  1.00  0.00     0.161 HD
BRANCH  16  18
HETATM   18  C2  UNL     1      25.941   0.534  53.029  1.00  0.00     0.112 C 
HETATM   19  C1  UNL     1      26.177   1.622  54.088  1.00  0.00     0.037 C 
BRANCH  18  20
HETATM   20  C18 UNL     1      27.099  -0.367  53.097  1.00  0.00    -0.036 A 
HETATM   21  C19 UNL     1      27.000  -1.709  52.761  1.00  0.00     0.009 A 
HETATM   22  C20 UNL     1      28.009  -2.643  52.803  1.00  0.00     0.001 A 
HETATM   23  C21 UNL     1      29.260  -2.256  53.213  1.00  0.00     0.000 A 
HETATM   24  C22 UNL     1      29.451  -0.946  53.567  1.00  0.00     0.001 A 
HETATM   25  C23 UNL     1      28.383  -0.082  53.493  1.00  0.00     0.009 A 
ENDBRANCH  18  20
ENDBRANCH  16  18
ENDBRANCH   1  16
BRANCH  13  26
HETATM   26  C12 UNL     1      24.081   7.031  50.837  1.00  0.00     0.072 C 
HETATM   27  C13 UNL     1      25.137   6.713  50.120  1.00  0.00     0.008 C 
BRANCH  27  28
HETATM   28  C14 UNL     1      25.512   5.693  49.149  1.00  0.00     0.299 C 
BRANCH  28  29
HETATM   29  N5  UNL     1      26.727   4.962  49.544  1.00  0.00     0.083 N 
HETATM   30  C15 UNL     1      27.744   5.207  48.513  1.00  0.00     0.309 C 
HETATM   31  C16 UNL     1      26.420   3.550  49.467  1.00  0.00     0.309 C 
ENDBRANCH  28  29
ENDBRANCH  27  28
ENDBRANCH  13  26
TORSDOF 6
ENDMDL
MODEL 3
REMARK VINA RESULT:      -8.7      2.444      5.588
REMARK  6 active torsions:
REMARK  status: ('A' for Active; 'I' for Inactive)
REMARK    1  A    between atoms: C2_2  and  N1_3 
REMARK    2  A    between atoms: C2_2  and  C18_25 
REMARK    3  A    between atoms: N1_3  and  C3_4 
REMARK       I    between atoms: N4_15  and  C11_16 
REMARK    4  A    between atoms: C11_16  and  C12_18 
REMARK    5  A    between atoms: C13_19  and  C14_20 
REMARK    6  A    between atoms: C14_20  and  N5_21 
ROOT
HETATM    1  C3  UNL     1      26.710   2.235  52.293  1.00  0.00     0.139 A 
HETATM    2  N2  UNL     1      28.000   2.455  52.518  1.00  0.00    -0.224 NA
HETATM    3  C4  UNL     1      28.783   1.836  53.396  1.00  0.00     0.236 A 
HETATM    4  N3  UNL     1      28.136   0.898  54.099  1.00  0.00    -0.234 NA
HETATM    5  C5  UNL     1      26.829   0.643  53.902  1.00  0.00     0.114 A 
HETATM    6  S1  UNL     1      25.698  -0.533  54.666  1.00  0.00    -0.072 SA
HETATM    7  C6  UNL     1      24.251  -0.053  53.699  1.00  0.00     0.010 A 
HETATM    8  C7  UNL     1      24.705   0.954  52.871  1.00  0.00    -0.025 A 
HETATM    9  C8  UNL     1      26.023   1.284  52.997  1.00  0.00     0.053 A 
HETATM   10  C9  UNL     1      23.494   1.314  52.126  1.00  0.00     0.060 C 
HETATM   11  C10 UNL     1      22.359   1.496  53.163  1.00  0.00     0.131 C 
HETATM   12  N4  UNL     1      21.901   0.148  53.417  1.00  0.00    -0.344 N 
HETATM   13  C11 UNL     1      20.571  -0.391  53.275  1.00  0.00     0.243 C 
HETATM   14  O1  UNL     1      20.401  -1.626  53.561  1.00  0.00    -0.268 OA
HETATM   15  C17 UNL     1      22.972  -0.688  53.862  1.00  0.00     0.172 C 
ENDROOT
BRANCH   1  16
HETATM   16  N1  UNL     1      26.290   3.057  51.226  1.00  0.00    -0.366 N 
HETATM   17  H5  UNL     1      25.933   3.920  51.629  1.00  0.00     0.161 HD
BRANCH  16  18
HETATM   18  C2  UNL     1      26.097   3.268  49.835  1.00  0.00     0.112 C 
HETATM   19  C1  UNL     1      24.629   3.231  49.385  1.00  0.00     0.037 C 
BRANCH  18  20
HETATM   20  C18 UNL     1      26.671   4.498  49.271  1.00  0.00    -0.036 A 
HETATM   21  C19 UNL     1      25.962   5.689  49.246  1.00  0.00     0.009 A 
HETATM   22  C20 UNL     1      26.392   6.890  48.731  1.00  0.00     0.001 A 
HETATM   23  C21 UNL     1      27.644   6.967  48.174  1.00  0.00     0.000 A 
HETATM   24  C22 UNL     1      28.416   5.835  48.153  1.00  0.00     0.001 A 
HETATM   25  C23 UNL     1      27.903   4.679  48.692  1.00  0.00     0.009 A 
ENDBRANCH  18  20
ENDBRANCH  16  18
ENDBRANCH   1  16
BRANCH  13  26
HETATM   26  C12 UNL     1      19.470   0.449  52.820  1.00  0.00     0.072 C 
HETATM   27  C13 UNL     1      19.347   0.826  51.567  1.00  0.00     0.008 C 
BRANCH  27  28
HETATM   28  C14 UNL     1      20.067   0.645  50.312  1.00  0.00     0.299 C 
BRANCH  28  29
HETATM   29  N5  UNL     1      20.024   1.846  49.462  1.00  0.00     0.083 N 
HETATM   30  C15 UNL     1      21.096   1.719  48.465  1.00  0.00     0.309 C 
HETATM   31  C16 UNL     1      20.392   2.971  50.294  1.00  0.00     0.309 C 
ENDBRANCH  28  29
ENDBRANCH  27  28
ENDBRANCH  13  26
TORSDOF 6
ENDMDL
MODEL 4
REMARK VINA RESULT:      -8.4      2.490      6.511
REMARK  6 active torsions:
REMARK  status: ('A' for Active; 'I' for Inactive)
REMARK    1  A    between atoms: C2_2  and  N1_3 
REMARK    2  A    between atoms: C2_2  and  C18_25 
REMARK    3  A    between atoms: N1_3  and  C3_4 
REMARK       I    between atoms: N4_15  and  C11_16 
REMARK    4  A    between atoms: C11_16  and  C12_18 
REMARK    5  A    between atoms: C13_19  and  C14_20 
REMARK    6  A    between atoms: C14_20  and  N5_21 
ROOT
HETATM    1  C3  UNL     1      23.471  -0.192  53.342  1.00  0.00     0.139 A 
HETATM    2  N2  UNL     1      22.975  -1.012  54.261  1.00  0.00    -0.224 NA
HETATM    3  C4  UNL     1      21.757  -0.984  54.794  1.00  0.00     0.236 A 
HETATM    4  N3  UNL     1      20.999   0.004  54.306  1.00  0.00    -0.234 NA
HETATM    5  C5  UNL     1      21.463   0.857  53.373  1.00  0.00     0.114 A 
HETATM    6  S1  UNL     1      20.703   2.257  52.530  1.00  0.00    -0.072 SA
HETATM    7  C6  UNL     1      22.144   2.670  51.523  1.00  0.00     0.010 A 
HETATM    8  C7  UNL     1      23.098   1.739  51.883  1.00  0.00    -0.025 A 
HETATM    9  C8  UNL     1      22.719   0.828  52.826  1.00  0.00     0.053 A 
HETATM   10  C9  UNL     1      24.242   2.130  51.054  1.00  0.00     0.060 C 
HETATM   11  C10 UNL     1      24.424   3.659  51.220  1.00  0.00     0.131 C 
HETATM   12  N4  UNL     1      23.461   4.224  50.302  1.00  0.00    -0.344 N 
HETATM   13  C11 UNL     1      23.688   5.143  49.214  1.00  0.00     0.243 C 
HETATM   14  O1  UNL     1      22.673   5.511  48.529  1.00  0.00    -0.268 OA
HETATM   15  C17 UNL     1      22.139   3.758  50.584  1.00  0.00     0.172 C 
ENDROOT
BRANCH   1  16
HETATM   16  N1  UNL     1      24.771  -0.624  53.004  1.00  0.00    -0.366 N 
HETATM   17  H5  UNL     1      24.795  -0.758  51.996  1.00  0.00     0.161 HD
BRANCH  16  18
HETATM   18  C2  UNL     1      26.087  -0.992  53.391  1.00  0.00     0.112 C 
HETATM   19  C1  UNL     1      26.745  -2.043  52.484  1.00  0.00     0.037 C 
BRANCH  18  20
HETATM   20  C18 UNL     1      27.060   0.100  53.532  1.00  0.00    -0.036 A 
HETATM   21  C19 UNL     1      28.397  -0.146  53.807  1.00  0.00     0.009 A 
HETATM   22  C20 UNL     1      29.387   0.795  53.975  1.00  0.00     0.001 A 
HETATM   23  C21 UNL     1      29.068   2.125  53.870  1.00  0.00     0.000 A 
HETATM   24  C22 UNL     1      27.768   2.462  53.601  1.00  0.00     0.001 A 
HETATM   25  C23 UNL     1      26.845   1.453  53.448  1.00  0.00     0.009 A 
ENDBRANCH  18  20
ENDBRANCH  16  18
ENDBRANCH   1  16
BRANCH  13  26
HETATM   26  C12 UNL     1      25.031   5.625  48.912  1.00  0.00     0.072 C 
HETATM   27  C13 UNL     1      25.401   6.864  49.150  1.00  0.00     0.008 C 
BRANCH  27  28
HETATM   28  C14 UNL     1      24.810   8.079  49.697  1.00  0.00     0.299 C 
BRANCH  28  29
HETATM   29  N5  UNL     1      25.711   9.238  49.591  1.00  0.00     0.083 N 
HETATM   30  C15 UNL     1      25.958   9.476  48.164  1.00  0.00     0.309 C 
HETATM   31  C16 UNL     1      26.985   8.841  50.152  1.00  0.00     0.309 C 
ENDBRANCH  28  29
ENDBRANCH  27  28
ENDBRANCH  13  26
TORSDOF 6
ENDMDL
MODEL 5
REMARK VINA RESULT:      -8.3      2.736      5.626
REMARK  6 active torsions:
REMARK  status: ('A' for Active; 'I' for Inactive)
REMARK    1  A    between atoms: C2_2  and  N1_3 
REMARK    2  A    between atoms: C2_2  and  C18_25 
REMARK    3  A    between atoms: N1_3  and  C3_4 
REMARK       I    between atoms: N4_15  and  C11_16 
REMARK    4  A    between atoms: C11_16  and  C12_18 
REMARK    5  A    between atoms: C13_19  and  C14_20 
REMARK    6  A    between atoms: C14_20  and  N5_21 
ROOT
HETATM    1  C3  UNL     1      25.338   1.038  53.001  1.00  0.00     0.139 A 
HETATM    2  N2  UNL     1      26.601   1.101  53.405  1.00  0.00    -0.224 NA
HETATM    3  C4  UNL     1      27.167   0.417  54.394  1.00  0.00     0.236 A 
HETATM    4  N3  UNL     1      26.313  -0.408  55.011  1.00  0.00    -0.234 NA
HETATM    5  C5  UNL     1      25.024  -0.503  54.633  1.00  0.00     0.114 A 
HETATM    6  S1  UNL     1      23.654  -1.502  55.244  1.00  0.00    -0.072 SA
HETATM    7  C6  UNL     1      22.431  -0.876  54.072  1.00  0.00     0.010 A 
HETATM    8  C7  UNL     1      23.123   0.039  53.304  1.00  0.00    -0.025 A 
HETATM    9  C8  UNL     1      24.442   0.204  53.613  1.00  0.00     0.053 A 
HETATM   10  C9  UNL     1      22.085   0.524  52.388  1.00  0.00     0.060 C 
HETATM   11  C10 UNL     1      20.849   0.881  53.250  1.00  0.00     0.131 C 
HETATM   12  N4  UNL     1      20.190  -0.389  53.455  1.00  0.00    -0.344 N 
HETATM   13  C11 UNL     1      18.835  -0.761  53.132  1.00  0.00     0.243 C 
HETATM   14  O1  UNL     1      18.468  -1.955  53.409  1.00  0.00    -0.268 OA
HETATM   15  C17 UNL     1      21.071  -1.339  54.060  1.00  0.00     0.172 C 
ENDROOT
BRANCH   1  16
HETATM   16  N1  UNL     1      25.181   1.871  51.873  1.00  0.00    -0.366 N 
HETATM   17  H5  UNL     1      25.869   1.581  51.182  1.00  0.00     0.161 HD
BRANCH  16  18
HETATM   18  C2  UNL     1      24.534   2.954  51.221  1.00  0.00     0.112 C 
HETATM   19  C1  UNL     1      23.767   3.895  52.162  1.00  0.00     0.037 C 
BRANCH  18  20
HETATM   20  C18 UNL     1      25.377   3.811  50.375  1.00  0.00    -0.036 A 
HETATM   21  C19 UNL     1      25.034   5.125  50.099  1.00  0.00     0.009 A 
HETATM   22  C20 UNL     1      25.736   6.009  49.311  1.00  0.00     0.001 A 
HETATM   23  C21 UNL     1      26.901   5.594  48.718  1.00  0.00     0.000 A 
HETATM   24  C22 UNL     1      27.317   4.306  48.935  1.00  0.00     0.001 A 
HETATM   25  C23 UNL     1      26.551   3.494  49.738  1.00  0.00     0.009 A 
ENDBRANCH  18  20
ENDBRANCH  16  18
ENDBRANCH   1  16
BRANCH  13  26
HETATM   26  C12 UNL     1      17.926   0.196  52.512  1.00  0.00     0.072 C 
HETATM   27  C13 UNL     1      18.100   0.635  51.285  1.00  0.00     0.008 C 
BRANCH  27  28
HETATM   28  C14 UNL     1      19.050   0.441  50.196  1.00  0.00     0.299 C 
BRANCH  28  29
HETATM   29  N5  UNL     1      19.766   1.679  49.848  1.00  0.00     0.083 N 
HETATM   30  C15 UNL     1      18.855   2.502  49.041  1.00  0.00     0.309 C 
HETATM   31  C16 UNL     1      20.851   1.311  48.965  1.00  0.00     0.309 C 
ENDBRANCH  28  29
ENDBRANCH  27  28
ENDBRANCH  13  26
TORSDOF 6
ENDMDL
MODEL 6
REMARK VINA RESULT:      -8.3      2.768      6.509
REMARK  6 active torsions:
REMARK  status: ('A' for Active; 'I' for Inactive)
REMARK    1  A    between atoms: C2_2  and  N1_3 
REMARK    2  A    between atoms: C2_2  and  C18_25 
REMARK    3  A    between atoms: N1_3  and  C3_4 
REMARK       I    between atoms: N4_15  and  C11_16 
REMARK    4  A    between atoms: C11_16  and  C12_18 
REMARK    5  A    between atoms: C13_19  and  C14_20 
REMARK    6  A    between atoms: C14_20  and  N5_21 
ROOT
HETATM    1  C3  UNL     1      23.545   5.559  50.619  1.00  0.00     0.139 A 
HETATM    2  N2  UNL     1      22.813   6.545  50.114  1.00  0.00    -0.224 NA
HETATM    3  C4  UNL     1      21.489   6.665  50.146  1.00  0.00     0.236 A 
HETATM    4  N3  UNL     1      20.889   5.644  50.769  1.00  0.00    -0.234 NA
HETATM    5  C5  UNL     1      21.595   4.624  51.296  1.00  0.00     0.114 A 
HETATM    6  S1  UNL     1      21.093   3.138  52.183  1.00  0.00    -0.072 SA
HETATM    7  C6  UNL     1      22.763   2.494  52.423  1.00  0.00     0.010 A 
HETATM    8  C7  UNL     1      23.585   3.428  51.824  1.00  0.00    -0.025 A 
HETATM    9  C8  UNL     1      22.959   4.502  51.261  1.00  0.00     0.053 A 
HETATM   10  C9  UNL     1      24.916   2.850  52.033  1.00  0.00     0.060 C 
HETATM   11  C10 UNL     1      24.840   1.364  51.601  1.00  0.00     0.131 C 
HETATM   12  N4  UNL     1      24.279   0.696  52.754  1.00  0.00    -0.344 N 
HETATM   13  C11 UNL     1      24.826  -0.403  53.511  1.00  0.00     0.243 C 
HETATM   14  O1  UNL     1      24.144  -0.835  54.503  1.00  0.00    -0.268 OA
HETATM   15  C17 UNL     1      23.020   1.264  53.121  1.00  0.00     0.172 C 
ENDROOT
BRANCH   1  16
HETATM   16  N1  UNL     1      24.909   5.867  50.433  1.00  0.00    -0.366 N 
HETATM   17  H5  UNL     1      25.126   6.661  51.030  1.00  0.00     0.161 HD
BRANCH  16  18
HETATM   18  C2  UNL     1      26.152   5.621  49.790  1.00  0.00     0.112 C 
HETATM   19  C1  UNL     1      26.315   4.193  49.249  1.00  0.00     0.037 C 
BRANCH  18  20
HETATM   20  C18 UNL     1      26.513   6.524  48.689  1.00  0.00    -0.036 A 
HETATM   21  C19 UNL     1      27.818   6.636  48.236  1.00  0.00     0.009 A 
HETATM   22  C20 UNL     1      28.271   7.457  47.228  1.00  0.00     0.001 A 
HETATM   23  C21 UNL     1      27.376   8.266  46.575  1.00  0.00     0.000 A 
HETATM   24  C22 UNL     1      26.061   8.223  46.959  1.00  0.00     0.001 A 
HETATM   25  C23 UNL     1      25.700   7.371  47.976  1.00  0.00     0.009 A 
ENDBRANCH  18  20
ENDBRANCH  16  18
ENDBRANCH   1  16
BRANCH  13  26
HETATM   26  C12 UNL     1      26.111  -0.990  53.151  1.00  0.00     0.072 C 
HETATM   27  C13 UNL     1      27.233  -0.637  53.737  1.00  0.00     0.008 C 
BRANCH  27  28
HETATM   28  C14 UNL     1      27.658   0.289  54.780  1.00  0.00     0.299 C 
BRANCH  28  29
HETATM   29  N5  UNL     1      28.877   1.028  54.412  1.00  0.00     0.083 N 
HETATM   30  C15 UNL     1      28.477   2.120  53.516  1.00  0.00     0.309 C 
HETATM   31  C16 UNL     1      29.690   0.138  53.610  1.00  0.00     0.309 C 
ENDBRANCH  28  29
ENDBRANCH  27  28
ENDBRANCH  13  26
TORSDOF 6
ENDMDL
MODEL 7
REMARK VINA RESULT:      -8.2      2.387      5.699
REMARK  6 active torsions:
REMARK  status: ('A' for Active; 'I' for Inactive)
REMARK    1  A    between atoms: C2_2  and  N1_3 
REMARK    2  A    between atoms: C2_2  and  C18_25 
REMARK    3  A    between atoms: N1_3  and  C3_4 
REMARK       I    between atoms: N4_15  and  C11_16 
REMARK    4  A    between atoms: C11_16  and  C12_18 
REMARK    5  A    between atoms: C13_19  and  C14_20 
REMARK    6  A    between atoms: C14_20  and  N5_21 
ROOT
HETATM    1  C3  UNL     1      23.526  -0.042  53.391  1.00  0.00     0.139 A 
HETATM    2  N2  UNL     1      23.275  -0.849  54.416  1.00  0.00    -0.224 NA
HETATM    3  C4  UNL     1      22.094  -1.112  54.965  1.00  0.00     0.236 A 
HETATM    4  N3  UNL     1      21.087  -0.459  54.373  1.00  0.00    -0.234 NA
HETATM    5  C5  UNL     1      21.298   0.368  53.331  1.00  0.00     0.114 A 
HETATM    6  S1  UNL     1      20.177   1.367  52.334  1.00  0.00    -0.072 SA
HETATM    7  C6  UNL     1      21.452   2.054  51.255  1.00  0.00     0.010 A 
HETATM    8  C7  UNL     1      22.629   1.495  51.710  1.00  0.00    -0.025 A 
HETATM    9  C8  UNL     1      22.517   0.639  52.767  1.00  0.00     0.053 A 
HETATM   10  C9  UNL     1      23.624   2.096  50.815  1.00  0.00     0.060 C 
HETATM   11  C10 UNL     1      23.347   3.620  50.785  1.00  0.00     0.131 C 
HETATM   12  N4  UNL     1      22.277   3.758  49.822  1.00  0.00    -0.344 N 
HETATM   13  C11 UNL     1      22.245   4.559  48.623  1.00  0.00     0.243 C 
HETATM   14  O1  UNL     1      21.179   4.524  47.918  1.00  0.00    -0.268 OA
HETATM   15  C17 UNL     1      21.145   2.965  50.186  1.00  0.00     0.172 C 
ENDROOT
BRANCH   1  16
HETATM   16  N1  UNL     1      24.901  -0.114  53.085  1.00  0.00    -0.366 N 
HETATM   17  H5  UNL     1      25.122  -1.089  52.902  1.00  0.00     0.161 HD
BRANCH  16  18
HETATM   18  C2  UNL     1      26.162   0.519  52.923  1.00  0.00     0.112 C 
HETATM   19  C1  UNL     1      26.382   1.740  53.829  1.00  0.00     0.037 C 
BRANCH  18  20
HETATM   20  C18 UNL     1      27.350  -0.332  53.081  1.00  0.00    -0.036 A 
HETATM   21  C19 UNL     1      28.577   0.191  53.459  1.00  0.00     0.009 A 
HETATM   22  C20 UNL     1      29.752  -0.505  53.621  1.00  0.00     0.001 A 
HETATM   23  C21 UNL     1      29.761  -1.859  53.398  1.00  0.00     0.000 A 
HETATM   24  C22 UNL     1      28.591  -2.463  53.018  1.00  0.00     0.001 A 
HETATM   25  C23 UNL     1      27.465  -1.686  52.882  1.00  0.00     0.009 A 
ENDBRANCH  18  20
ENDBRANCH  16  18
ENDBRANCH   1  16
BRANCH  13  26
HETATM   26  C12 UNL     1      23.393   5.370  48.237  1.00  0.00     0.072 C 
HETATM   27  C13 UNL     1      23.378   6.683  48.303  1.00  0.00     0.008 C 
BRANCH  27  28
HETATM   28  C14 UNL     1      22.443   7.731  48.696  1.00  0.00     0.299 C 
BRANCH  28  29
HETATM   29  N5  UNL     1      22.571   8.093  50.117  1.00  0.00     0.083 N 
HETATM   30  C15 UNL     1      23.892   7.640  50.570  1.00  0.00     0.309 C 
HETATM   31  C16 UNL     1      21.609   7.297  50.849  1.00  0.00     0.309 C 
ENDBRANCH  28  29
ENDBRANCH  27  28
ENDBRANCH  13  26
TORSDOF 6
ENDMDL
MODEL 8
REMARK VINA RESULT:      -8.0      1.540      2.563
REMARK  6 active torsions:
REMARK  status: ('A' for Active; 'I' for Inactive)
REMARK    1  A    between atoms: C2_2  and  N1_3 
REMARK    2  A    between atoms: C2_2  and  C18_25 
REMARK    3  A    between atoms: N1_3  and  C3_4 
REMARK       I    between atoms: N4_15  and  C11_16 
REMARK    4  A    between atoms: C11_16  and  C12_18 
REMARK    5  A    between atoms: C13_19  and  C14_20 
REMARK    6  A    between atoms: C14_20  and  N5_21 
ROOT
HETATM    1  C3  UNL     1      26.128   3.005  50.516  1.00  0.00     0.139 A 
HETATM    2  N2  UNL     1      27.125   3.624  49.895  1.00  0.00    -0.224 NA
HETATM    3  C4  UNL     1      27.040   4.658  49.064  1.00  0.00     0.236 A 
HETATM    4  N3  UNL     1      25.781   5.070  48.874  1.00  0.00    -0.234 NA
HETATM    5  C5  UNL     1      24.741   4.470  49.484  1.00  0.00     0.114 A 
HETATM    6  S1  UNL     1      22.967   4.785  49.440  1.00  0.00    -0.072 SA
HETATM    7  C6  UNL     1      22.515   3.456  50.575  1.00  0.00     0.010 A 
HETATM    8  C7  UNL     1      23.715   2.862  50.910  1.00  0.00    -0.025 A 
HETATM    9  C8  UNL     1      24.831   3.403  50.340  1.00  0.00     0.053 A 
HETATM   10  C9  UNL     1      23.290   1.788  51.813  1.00  0.00     0.060 C 
HETATM   11  C10 UNL     1      22.124   1.043  51.116  1.00  0.00     0.131 C 
HETATM   12  N4  UNL     1      20.967   1.859  51.408  1.00  0.00    -0.344 N 
HETATM   13  C11 UNL     1      19.738   1.475  52.058  1.00  0.00     0.243 C 
HETATM   14  O1  UNL     1      18.844   2.377  52.209  1.00  0.00    -0.268 OA
HETATM   15  C17 UNL     1      21.153   3.203  50.960  1.00  0.00     0.172 C 
ENDROOT
BRANCH   1  16
HETATM   16  N1  UNL     1      26.668   2.013  51.362  1.00  0.00    -0.366 N 
HETATM   17  H5  UNL     1      26.661   1.136  50.847  1.00  0.00     0.161 HD
BRANCH  16  18
HETATM   18  C2  UNL     1      27.209   1.624  52.616  1.00  0.00     0.112 C 
HETATM   19  C1  UNL     1      26.303   1.925  53.820  1.00  0.00     0.037 C 
BRANCH  18  20
HETATM   20  C18 UNL     1      27.620   0.219  52.748  1.00  0.00    -0.036 A 
HETATM   21  C19 UNL     1      26.775  -0.822  52.397  1.00  0.00     0.009 A 
HETATM   22  C20 UNL     1      27.047  -2.168  52.494  1.00  0.00     0.001 A 
HETATM   23  C21 UNL     1      28.265  -2.569  52.981  1.00  0.00     0.000 A 
HETATM   24  C22 UNL     1      29.165  -1.605  53.355  1.00  0.00     0.001 A 
HETATM   25  C23 UNL     1      28.805  -0.284  53.223  1.00  0.00     0.009 A 
ENDBRANCH  18  20
ENDBRANCH  16  18
ENDBRANCH   1  16
BRANCH  13  26
HETATM   26  C12 UNL     1      19.534   0.109  52.523  1.00  0.00     0.072 C 
HETATM   27  C13 UNL     1      18.352  -0.465  52.518  1.00  0.00     0.008 C 
BRANCH  27  28
HETATM   28  C14 UNL     1      16.987  -0.117  52.141  1.00  0.00     0.299 C 
BRANCH  28  29
HETATM   29  N5  UNL     1      16.563  -0.778  50.896  1.00  0.00     0.083 N 
HETATM   30  C15 UNL     1      17.016   0.057  49.776  1.00  0.00     0.309 C 
HETATM   31  C16 UNL     1      15.116  -0.734  50.861  1.00  0.00     0.309 C 
ENDBRANCH  28  29
ENDBRANCH  27  28
ENDBRANCH  13  26
TORSDOF 6
ENDMDL
MODEL 9
REMARK VINA RESULT:      -8.0      2.982      5.721
REMARK  6 active torsions:
REMARK  status: ('A' for Active; 'I' for Inactive)
REMARK    1  A    between atoms: C2_2  and  N1_3 
REMARK    2  A    between atoms: C2_2  and  C18_25 
REMARK    3  A    between atoms: N1_3  and  C3_4 
REMARK       I    between atoms: N4_15  and  C11_16 
REMARK    4  A    between atoms: C11_16  and  C12_18 
REMARK    5  A    between atoms: C13_19  and  C14_20 
REMARK    6  A    between atoms: C14_20  and  N5_21 
ROOT
HETATM    1  C3  UNL     1      24.001  -0.324  53.662  1.00  0.00     0.139 A 
HETATM    2  N2  UNL     1      24.615  -0.856  54.712  1.00  0.00    -0.224 NA
HETATM    3  C4  UNL     1      24.061  -1.527  55.717  1.00  0.00     0.236 A 
HETATM    4  N3  UNL     1      22.734  -1.643  55.594  1.00  0.00    -0.234 NA
HETATM    5  C5  UNL     1      22.071  -1.119  54.545  1.00  0.00     0.114 A 
HETATM    6  S1  UNL     1      20.326  -1.111  54.098  1.00  0.00    -0.072 SA
HETATM    7  C6  UNL     1      20.531  -0.178  52.566  1.00  0.00     0.010 A 
HETATM    8  C7  UNL     1      21.888   0.068  52.489  1.00  0.00    -0.025 A 
HETATM    9  C8  UNL     1      22.645  -0.427  53.511  1.00  0.00     0.053 A 
HETATM   10  C9  UNL     1      21.994   0.836  51.244  1.00  0.00     0.060 C 
HETATM   11  C10 UNL     1      20.917   1.948  51.303  1.00  0.00     0.131 C 
HETATM   12  N4  UNL     1      19.706   1.280  50.884  1.00  0.00    -0.344 N 
HETATM   13  C11 UNL     1      18.822   1.620  49.795  1.00  0.00     0.243 C 
HETATM   14  O1  UNL     1      17.798   0.877  49.611  1.00  0.00    -0.268 OA
HETATM   15  C17 UNL     1      19.424   0.149  51.711  1.00  0.00     0.172 C 
ENDROOT
BRANCH   1  16
HETATM   16  N1  UNL     1      24.973   0.229  52.801  1.00  0.00    -0.366 N 
HETATM   17  H5  UNL     1      24.741  -0.060  51.854  1.00  0.00     0.161 HD
BRANCH  16  18
HETATM   18  C2  UNL     1      26.154   0.993  52.605  1.00  0.00     0.112 C 
HETATM   19  C1  UNL     1      26.163   2.346  53.331  1.00  0.00     0.037 C 
BRANCH  18  20
HETATM   20  C18 UNL     1      27.425   0.335  52.940  1.00  0.00    -0.036 A 
HETATM   21  C19 UNL     1      27.584  -1.038  52.838  1.00  0.00     0.009 A 
HETATM   22  C20 UNL     1      28.717  -1.759  53.139  1.00  0.00     0.001 A 
HETATM   23  C21 UNL     1      29.830  -1.094  53.589  1.00  0.00     0.000 A 
HETATM   24  C22 UNL     1      29.763   0.268  53.722  1.00  0.00     0.001 A 
HETATM   25  C23 UNL     1      28.588   0.904  53.397  1.00  0.00     0.009 A 
ENDBRANCH  18  20
ENDBRANCH  16  18
ENDBRANCH   1  16
BRANCH  13  26
HETATM   26  C12 UNL     1      19.098   2.769  48.941  1.00  0.00     0.072 C 
HETATM   27  C13 UNL     1      18.380   3.869  48.991  1.00  0.00     0.008 C 
BRANCH  27  28
HETATM   28  C14 UNL     1      17.232   4.373  49.735  1.00  0.00     0.299 C 
BRANCH  28  29
HETATM   29  N5  UNL     1      15.959   4.122  49.040  1.00  0.00     0.083 N 
HETATM   30  C15 UNL     1      15.835   5.123  47.972  1.00  0.00     0.309 C 
HETATM   31  C16 UNL     1      14.895   4.413  49.978  1.00  0.00     0.309 C 
ENDBRANCH  28  29
ENDBRANCH  27  28
ENDBRANCH  13  26
TORSDOF 6
ENDMDL
