MODEL 1
REMARK VINA RESULT:      -7.1      0.000      0.000
REMARK  3 active torsions:
REMARK  status: ('A' for Active; 'I' for Inactive)
REMARK    1  A    between atoms: C2_3  and  C3_4 
REMARK    2  A    between atoms: C3_4  and  N1_5 
REMARK    3  A    between atoms: N1_5  and  C4_6 
ROOT
HETATM    1  C4  UNL     1      25.658   1.597  53.559  1.00  0.00     0.156 A 
HETATM    2  N2  UNL     1      25.581   0.393  54.164  1.00  0.00    -0.222 NA
HETATM    3  C5  UNL     1      24.473  -0.329  53.812  1.00  0.00     0.238 A 
HETATM    4  N3  UNL     1      23.544   0.126  52.939  1.00  0.00    -0.215 NA
HETATM    5  C6  UNL     1      23.624   1.339  52.331  1.00  0.00     0.201 A 
HETATM    6  C7  UNL     1      24.733   2.084  52.669  1.00  0.00     0.128 A 
HETATM    7  N4  UNL     1      24.825   3.351  52.032  1.00  0.00    -0.382 N 
HETATM    8  C8  UNL     1      25.038   3.206  50.608  1.00  0.00     0.139 C 
HETATM    9  C9  UNL     1      24.809   4.493  49.864  1.00  0.00     0.089 C 
HETATM   10  C10 UNL     1      24.488   5.647  50.754  1.00  0.00     0.014 C 
HETATM   11  C11 UNL     1      23.395   5.799  51.525  1.00  0.00     0.138 C 
HETATM   12  O1  UNL     1      22.272   5.027  51.905  1.00  0.00    -0.333 OA
HETATM   13  C12 UNL     1      22.045   3.633  51.894  1.00  0.00     0.174 C 
HETATM   14  C13 UNL     1      22.281   2.726  50.926  1.00  0.00     0.087 C 
HETATM   15  C14 UNL     1      22.322   2.873  49.452  1.00  0.00     0.141 C 
HETATM   16  S1  UNL     1      23.327   4.213  48.837  1.00  0.00    -0.152 SA
HETATM   17  O2  UNL     1      22.516   1.466  51.516  1.00  0.00    -0.292 OA
HETATM   18  H7  UNL     1      24.703   3.921  52.890  1.00  0.00     0.160 HD
ENDROOT
BRANCH   1  19
HETATM   19  N1  UNL     1      26.713   2.525  53.781  1.00  0.00    -0.369 N 
HETATM   20  H5  UNL     1      26.706   3.389  54.330  1.00  0.00     0.161 HD
BRANCH  19  21
HETATM   21  C3  UNL     1      27.986   2.203  53.139  1.00  0.00     0.149 C 
BRANCH  21  22
HETATM   22  C2  UNL     1      29.065   1.925  54.113  1.00  0.00    -0.000 C 
HETATM   23  C1  UNL     1      29.526   0.710  54.321  1.00  0.00     0.053 C 
HETATM   24 BR1  UNL     1      28.848  -0.802  53.389  1.00  0.00    -0.064 Br
ENDBRANCH  21  22
ENDBRANCH  19  21
ENDBRANCH   1  19
TORSDOF 3
ENDMDL
MODEL 2
REMARK VINA RESULT:      -6.8      1.904      2.598
REMARK  3 active torsions:
REMARK  status: ('A' for Active; 'I' for Inactive)
REMARK    1  A    between atoms: C2_3  and  C3_4 
REMARK    2  A    between atoms: C3_4  and  N1_5 
REMARK    3  A    between atoms: N1_5  and  C4_6 
ROOT
HETATM    1  C4  UNL     1      23.393  -0.003  53.525  1.00  0.00     0.156 A 
HETATM    2  N2  UNL     1      22.984  -0.795  54.539  1.00  0.00    -0.222 NA
HETATM    3  C5  UNL     1      21.652  -0.674  54.828  1.00  0.00     0.238 A 
HETATM    4  N3  UNL     1      20.826   0.164  54.158  1.00  0.00    -0.215 NA
HETATM    5  C6  UNL     1      21.241   0.961  53.138  1.00  0.00     0.201 A 
HETATM    6  C7  UNL     1      22.580   0.855  52.828  1.00  0.00     0.128 A 
HETATM    7  N4  UNL     1      23.017   1.681  51.758  1.00  0.00    -0.382 N 
HETATM    8  C8  UNL     1      22.429   1.267  50.503  1.00  0.00     0.139 C 
HETATM    9  C9  UNL     1      22.600   2.303  49.424  1.00  0.00     0.089 C 
HETATM   10  C10 UNL     1      23.396   3.488  49.858  1.00  0.00     0.014 C 
HETATM   11  C11 UNL     1      23.059   4.395  50.794  1.00  0.00     0.138 C 
HETATM   12  O1  UNL     1      22.030   4.574  51.749  1.00  0.00    -0.333 OA
HETATM   13  C12 UNL     1      21.128   3.661  52.338  1.00  0.00     0.174 C 
HETATM   14  C13 UNL     1      20.366   2.708  51.767  1.00  0.00     0.087 C 
HETATM   15  C14 UNL     1      19.786   2.620  50.406  1.00  0.00     0.141 C 
HETATM   16  S1  UNL     1      20.922   2.920  49.061  1.00  0.00    -0.152 SA
HETATM   17  O2  UNL     1      20.142   1.672  52.698  1.00  0.00    -0.292 OA
HETATM   18  H7  UNL     1      23.631   2.293  52.329  1.00  0.00     0.160 HD
ENDROOT
BRANCH   1  19
HETATM   19  N1  UNL     1      24.736   0.050  53.058  1.00  0.00    -0.369 N 
HETATM   20  H5  UNL     1      25.117   0.550  52.251  1.00  0.00     0.161 HD
BRANCH  19  21
HETATM   21  C3  UNL     1      25.709  -0.712  53.838  1.00  0.00     0.149 C 
BRANCH  21  22
HETATM   22  C2  UNL     1      26.499   0.137  54.758  1.00  0.00    -0.000 C 
HETATM   23  C1  UNL     1      27.814   0.181  54.717  1.00  0.00     0.053 C 
HETATM   24 BR1  UNL     1      28.821  -0.843  53.471  1.00  0.00    -0.064 Br
ENDBRANCH  21  22
ENDBRANCH  19  21
ENDBRANCH   1  19
TORSDOF 3
ENDMDL
MODEL 3
REMARK VINA RESULT:      -6.7      2.142      3.677
REMARK  3 active torsions:
REMARK  status: ('A' for Active; 'I' for Inactive)
REMARK    1  A    between atoms: C2_3  and  C3_4 
REMARK    2  A    between atoms: C3_4  and  N1_5 
REMARK    3  A    between atoms: N1_5  and  C4_6 
ROOT
HETATM    1  C4  UNL     1      25.761   2.076  51.500  1.00  0.00     0.156 A 
HETATM    2  N2  UNL     1      26.892   2.633  51.018  1.00  0.00    -0.222 NA
HETATM    3  C5  UNL     1      26.678   3.518  49.998  1.00  0.00     0.238 A 
HETATM    4  N3  UNL     1      25.445   3.807  49.519  1.00  0.00    -0.215 NA
HETATM    5  C6  UNL     1      24.307   3.245  50.006  1.00  0.00     0.201 A 
HETATM    6  C7  UNL     1      24.498   2.349  51.036  1.00  0.00     0.128 A 
HETATM    7  N4  UNL     1      23.311   1.764  51.553  1.00  0.00    -0.382 N 
HETATM    8  C8  UNL     1      22.488   2.750  52.219  1.00  0.00     0.139 C 
HETATM    9  C9  UNL     1      21.095   2.247  52.481  1.00  0.00     0.089 C 
HETATM   10  C10 UNL     1      20.886   0.828  52.067  1.00  0.00     0.014 C 
HETATM   11  C11 UNL     1      20.923   0.333  50.816  1.00  0.00     0.138 C 
HETATM   12  O1  UNL     1      21.243   0.799  49.519  1.00  0.00    -0.333 OA
HETATM   13  C12 UNL     1      22.007   1.904  49.082  1.00  0.00     0.174 C 
HETATM   14  C13 UNL     1      21.978   3.189  49.485  1.00  0.00     0.087 C 
HETATM   15  C14 UNL     1      20.877   3.998  50.058  1.00  0.00     0.141 C 
HETATM   16  S1  UNL     1      20.000   3.253  51.423  1.00  0.00    -0.152 SA
HETATM   17  O2  UNL     1      23.250   3.767  49.287  1.00  0.00    -0.292 OA
HETATM   18  H7  UNL     1      23.513   0.797  51.237  1.00  0.00     0.160 HD
ENDROOT
BRANCH   1  19
HETATM   19  N1  UNL     1      25.738   1.118  52.551  1.00  0.00    -0.369 N 
HETATM   20  H5  UNL     1      24.951   0.818  53.132  1.00  0.00     0.161 HD
BRANCH  19  21
HETATM   21  C3  UNL     1      27.014   0.468  52.843  1.00  0.00     0.149 C 
BRANCH  21  22
HETATM   22  C2  UNL     1      27.420   0.612  54.259  1.00  0.00    -0.000 C 
HETATM   23  C1  UNL     1      28.546   0.111  54.720  1.00  0.00     0.053 C 
HETATM   24 BR1  UNL     1      29.757  -0.846  53.609  1.00  0.00    -0.064 Br
ENDBRANCH  21  22
ENDBRANCH  19  21
ENDBRANCH   1  19
TORSDOF 3
ENDMDL
MODEL 4
REMARK VINA RESULT:      -6.6      2.844      4.430
REMARK  3 active torsions:
REMARK  status: ('A' for Active; 'I' for Inactive)
REMARK    1  A    between atoms: C2_3  and  C3_4 
REMARK    2  A    between atoms: C3_4  and  N1_5 
REMARK    3  A    between atoms: N1_5  and  C4_6 
ROOT
HETATM    1  C4  UNL     1      24.575   0.474  52.939  1.00  0.00     0.156 A 
HETATM    2  N2  UNL     1      25.653  -0.335  53.024  1.00  0.00    -0.222 NA
HETATM    3  C5  UNL     1      26.704   0.066  52.246  1.00  0.00     0.238 A 
HETATM    4  N3  UNL     1      26.664   1.172  51.466  1.00  0.00    -0.215 NA
HETATM    5  C6  UNL     1      25.578   1.986  51.383  1.00  0.00     0.201 A 
HETATM    6  C7  UNL     1      24.506   1.602  52.159  1.00  0.00     0.128 A 
HETATM    7  N4  UNL     1      23.370   2.452  52.080  1.00  0.00    -0.382 N 
HETATM    8  C8  UNL     1      23.649   3.752  52.653  1.00  0.00     0.139 C 
HETATM    9  C9  UNL     1      22.601   4.769  52.293  1.00  0.00     0.089 C 
HETATM   10  C10 UNL     1      21.473   4.206  51.494  1.00  0.00     0.014 C 
HETATM   11  C11 UNL     1      21.534   3.701  50.247  1.00  0.00     0.138 C 
HETATM   12  O1  UNL     1      22.533   3.392  49.295  1.00  0.00    -0.333 OA
HETATM   13  C12 UNL     1      23.920   3.164  49.432  1.00  0.00     0.174 C 
HETATM   14  C13 UNL     1      24.849   3.868  50.108  1.00  0.00     0.087 C 
HETATM   15  C14 UNL     1      24.908   5.307  50.457  1.00  0.00     0.141 C 
HETATM   16  S1  UNL     1      23.437   5.979  51.213  1.00  0.00    -0.152 SA
HETATM   17  O2  UNL     1      25.892   3.003  50.502  1.00  0.00    -0.292 OA
HETATM   18  H7  UNL     1      22.744   1.765  51.621  1.00  0.00     0.160 HD
ENDROOT
BRANCH   1  19
HETATM   19  N1  UNL     1      23.362   0.249  53.647  1.00  0.00    -0.369 N 
HETATM   20  H5  UNL     1      22.948   0.798  54.404  1.00  0.00     0.161 HD
BRANCH  19  21
HETATM   21  C3  UNL     1      22.598  -0.927  53.236  1.00  0.00     0.149 C 
BRANCH  21  22
HETATM   22  C2  UNL     1      21.342  -1.090  54.002  1.00  0.00    -0.000 C 
HETATM   23  C1  UNL     1      20.196  -0.596  53.585  1.00  0.00     0.053 C 
HETATM   24 BR1  UNL     1      20.047   0.376  51.957  1.00  0.00    -0.064 Br
ENDBRANCH  21  22
ENDBRANCH  19  21
ENDBRANCH   1  19
TORSDOF 3
ENDMDL
MODEL 5
REMARK VINA RESULT:      -6.4      2.966      4.037
REMARK  3 active torsions:
REMARK  status: ('A' for Active; 'I' for Inactive)
REMARK    1  A    between atoms: C2_3  and  C3_4 
REMARK    2  A    between atoms: C3_4  and  N1_5 
REMARK    3  A    between atoms: N1_5  and  C4_6 
ROOT
HETATM    1  C4  UNL     1      26.172   3.098  51.038  1.00  0.00     0.156 A 
HETATM    2  N2  UNL     1      27.160   2.350  51.574  1.00  0.00    -0.222 NA
HETATM    3  C5  UNL     1      26.724   1.175  52.123  1.00  0.00     0.238 A 
HETATM    4  N3  UNL     1      25.423   0.801  52.125  1.00  0.00    -0.215 NA
HETATM    5  C6  UNL     1      24.430   1.556  51.585  1.00  0.00     0.201 A 
HETATM    6  C7  UNL     1      24.845   2.745  51.025  1.00  0.00     0.128 A 
HETATM    7  N4  UNL     1      23.812   3.535  50.454  1.00  0.00    -0.382 N 
HETATM    8  C8  UNL     1      23.242   2.889  49.291  1.00  0.00     0.139 C 
HETATM    9  C9  UNL     1      21.945   3.524  48.866  1.00  0.00     0.089 C 
HETATM   10  C10 UNL     1      21.570   4.716  49.680  1.00  0.00     0.014 C 
HETATM   11  C11 UNL     1      21.251   4.739  50.988  1.00  0.00     0.138 C 
HETATM   12  O1  UNL     1      21.236   3.831  52.074  1.00  0.00    -0.333 OA
HETATM   13  C12 UNL     1      21.908   2.605  52.280  1.00  0.00     0.174 C 
HETATM   14  C13 UNL     1      22.046   1.547  51.458  1.00  0.00     0.087 C 
HETATM   15  C14 UNL     1      21.174   1.048  50.368  1.00  0.00     0.141 C 
HETATM   16  S1  UNL     1      20.657   2.269  49.173  1.00  0.00    -0.152 SA
HETATM   17  O2  UNL     1      23.245   0.870  51.768  1.00  0.00    -0.292 OA
HETATM   18  H7  UNL     1      23.878   4.318  51.131  1.00  0.00     0.160 HD
ENDROOT
BRANCH   1  19
HETATM   19  N1  UNL     1      26.384   4.364  50.425  1.00  0.00    -0.369 N 
HETATM   20  H5  UNL     1      26.247   5.299  50.816  1.00  0.00     0.161 HD
BRANCH  19  21
HETATM   21  C3  UNL     1      26.868   4.327  49.046  1.00  0.00     0.149 C 
BRANCH  21  22
HETATM   22  C2  UNL     1      27.497   5.598  48.625  1.00  0.00    -0.000 C 
HETATM   23  C1  UNL     1      26.788   6.658  48.298  1.00  0.00     0.053 C 
HETATM   24 BR1  UNL     1      24.886   6.653  48.338  1.00  0.00    -0.064 Br
ENDBRANCH  21  22
ENDBRANCH  19  21
ENDBRANCH   1  19
TORSDOF 3
ENDMDL
MODEL 6
REMARK VINA RESULT:      -6.4      6.631      8.889
REMARK  3 active torsions:
REMARK  status: ('A' for Active; 'I' for Inactive)
REMARK    1  A    between atoms: C2_3  and  C3_4 
REMARK    2  A    between atoms: C3_4  and  N1_5 
REMARK    3  A    between atoms: N1_5  and  C4_6 
ROOT
HETATM    1  C4  UNL     1      26.724   8.044  49.399  1.00  0.00     0.156 A 
HETATM    2  N2  UNL     1      25.720   8.946  49.389  1.00  0.00    -0.222 NA
HETATM    3  C5  UNL     1      26.069  10.152  48.847  1.00  0.00     0.238 A 
HETATM    4  N3  UNL     1      27.307  10.413  48.366  1.00  0.00    -0.215 NA
HETATM    5  C6  UNL     1      28.317   9.504  48.377  1.00  0.00     0.201 A 
HETATM    6  C7  UNL     1      27.989   8.279  48.918  1.00  0.00     0.128 A 
HETATM    7  N4  UNL     1      29.039   7.323  48.927  1.00  0.00    -0.382 N 
HETATM    8  C8  UNL     1      29.393   6.923  47.581  1.00  0.00     0.139 C 
HETATM    9  C9  UNL     1      30.700   6.179  47.534  1.00  0.00     0.089 C 
HETATM   10  C10 UNL     1      31.307   5.953  48.878  1.00  0.00     0.014 C 
HETATM   11  C11 UNL     1      31.771   6.888  49.728  1.00  0.00     0.138 C 
HETATM   12  O1  UNL     1      31.797   8.300  49.811  1.00  0.00    -0.333 OA
HETATM   13  C12 UNL     1      31.010   9.291  49.184  1.00  0.00     0.174 C 
HETATM   14  C13 UNL     1      30.653   9.422  47.891  1.00  0.00     0.087 C 
HETATM   15  C14 UNL     1      31.330   8.974  46.651  1.00  0.00     0.141 C 
HETATM   16  S1  UNL     1      31.854   7.267  46.630  1.00  0.00    -0.152 SA
HETATM   17  O2  UNL     1      29.424  10.110  47.815  1.00  0.00    -0.292 OA
HETATM   18  H7  UNL     1      29.144   7.276  49.957  1.00  0.00     0.160 HD
ENDROOT
BRANCH   1  19
HETATM   19  N1  UNL     1      26.599   6.728  49.925  1.00  0.00    -0.369 N 
HETATM   20  H5  UNL     1      26.800   6.391  50.870  1.00  0.00     0.161 HD
BRANCH  19  21
HETATM   21  C3  UNL     1      26.115   5.715  48.990  1.00  0.00     0.149 C 
BRANCH  21  22
HETATM   22  C2  UNL     1      26.897   4.461  49.048  1.00  0.00    -0.000 C 
HETATM   23  C1  UNL     1      26.413   3.355  49.573  1.00  0.00     0.053 C 
HETATM   24 BR1  UNL     1      24.660   3.268  50.307  1.00  0.00    -0.064 Br
ENDBRANCH  21  22
ENDBRANCH  19  21
ENDBRANCH   1  19
TORSDOF 3
ENDMDL
MODEL 7
REMARK VINA RESULT:      -6.4      9.058     10.647
REMARK  3 active torsions:
REMARK  status: ('A' for Active; 'I' for Inactive)
REMARK    1  A    between atoms: C2_3  and  C3_4 
REMARK    2  A    between atoms: C3_4  and  N1_5 
REMARK    3  A    between atoms: N1_5  and  C4_6 
ROOT
HETATM    1  C4  UNL     1      33.581   5.774  48.627  1.00  0.00     0.156 A 
HETATM    2  N2  UNL     1      34.910   5.645  48.825  1.00  0.00    -0.222 NA
HETATM    3  C5  UNL     1      35.611   6.802  48.622  1.00  0.00     0.238 A 
HETATM    4  N3  UNL     1      35.023   7.965  48.258  1.00  0.00    -0.215 NA
HETATM    5  C6  UNL     1      33.685   8.093  48.059  1.00  0.00     0.201 A 
HETATM    6  C7  UNL     1      32.957   6.940  48.258  1.00  0.00     0.128 A 
HETATM    7  N4  UNL     1      31.556   7.069  48.057  1.00  0.00    -0.382 N 
HETATM    8  C8  UNL     1      30.961   7.926  49.061  1.00  0.00     0.139 C 
HETATM    9  C9  UNL     1      29.565   8.349  48.693  1.00  0.00     0.089 C 
HETATM   10  C10 UNL     1      29.073   7.741  47.421  1.00  0.00     0.014 C 
HETATM   11  C11 UNL     1      29.556   7.949  46.182  1.00  0.00     0.138 C 
HETATM   12  O1  UNL     1      30.648   8.625  45.588  1.00  0.00    -0.333 OA
HETATM   13  C12 UNL     1      31.883   9.059  46.118  1.00  0.00     0.174 C 
HETATM   14  C13 UNL     1      32.146   9.732  47.255  1.00  0.00     0.087 C 
HETATM   15  C14 UNL     1      31.318  10.688  48.028  1.00  0.00     0.141 C 
HETATM   16  S1  UNL     1      29.657  10.147  48.396  1.00  0.00    -0.152 SA
HETATM   17  O2  UNL     1      33.445   9.405  47.699  1.00  0.00    -0.292 OA
HETATM   18  H7  UNL     1      31.502   6.456  47.223  1.00  0.00     0.160 HD
ENDROOT
BRANCH   1  19
HETATM   19  N1  UNL     1      32.654   4.703  48.766  1.00  0.00    -0.369 N 
HETATM   20  H5  UNL     1      31.873   4.609  49.420  1.00  0.00     0.161 HD
BRANCH  19  21
HETATM   21  C3  UNL     1      32.840   3.582  47.847  1.00  0.00     0.149 C 
BRANCH  21  22
HETATM   22  C2  UNL     1      32.288   3.847  46.500  1.00  0.00    -0.000 C 
HETATM   23  C1  UNL     1      33.059   3.988  45.442  1.00  0.00     0.053 C 
HETATM   24 BR1  UNL     1      34.954   3.863  45.547  1.00  0.00    -0.064 Br
ENDBRANCH  21  22
ENDBRANCH  19  21
ENDBRANCH   1  19
TORSDOF 3
ENDMDL
MODEL 8
REMARK VINA RESULT:      -6.4      8.919     10.596
REMARK  3 active torsions:
REMARK  status: ('A' for Active; 'I' for Inactive)
REMARK    1  A    between atoms: C2_3  and  C3_4 
REMARK    2  A    between atoms: C3_4  and  N1_5 
REMARK    3  A    between atoms: N1_5  and  C4_6 
ROOT
HETATM    1  C4  UNL     1      29.252   7.694  48.094  1.00  0.00     0.156 A 
HETATM    2  N2  UNL     1      28.070   7.093  48.346  1.00  0.00    -0.222 NA
HETATM    3  C5  UNL     1      28.151   5.729  48.419  1.00  0.00     0.238 A 
HETATM    4  N3  UNL     1      29.310   5.050  48.254  1.00  0.00    -0.215 NA
HETATM    5  C6  UNL     1      30.499   5.657  48.000  1.00  0.00     0.201 A 
HETATM    6  C7  UNL     1      30.443   7.032  47.922  1.00  0.00     0.128 A 
HETATM    7  N4  UNL     1      31.684   7.672  47.663  1.00  0.00    -0.382 N 
HETATM    8  C8  UNL     1      32.597   7.514  48.776  1.00  0.00     0.139 C 
HETATM    9  C9  UNL     1      34.009   7.882  48.410  1.00  0.00     0.089 C 
HETATM   10  C10 UNL     1      34.150   8.395  47.016  1.00  0.00     0.014 C 
HETATM   11  C11 UNL     1      33.941   7.713  45.874  1.00  0.00     0.138 C 
HETATM   12  O1  UNL     1      33.453   6.441  45.495  1.00  0.00    -0.333 OA
HETATM   13  C12 UNL     1      32.644   5.505  46.177  1.00  0.00     0.174 C 
HETATM   14  C13 UNL     1      32.736   5.040  47.438  1.00  0.00     0.087 C 
HETATM   15  C14 UNL     1      33.910   4.887  48.330  1.00  0.00     0.141 C 
HETATM   16  S1  UNL     1      34.958   6.325  48.479  1.00  0.00    -0.152 SA
HETATM   17  O2  UNL     1      31.453   4.664  47.891  1.00  0.00    -0.292 OA
HETATM   18  H7  UNL     1      31.435   8.031  46.723  1.00  0.00     0.160 HD
ENDROOT
BRANCH   1  19
HETATM   19  N1  UNL     1      29.410   9.101  47.961  1.00  0.00    -0.369 N 
HETATM   20  H5  UNL     1      29.453   9.667  47.109  1.00  0.00     0.161 HD
BRANCH  19  21
HETATM   21  C3  UNL     1      29.526   9.847  49.213  1.00  0.00     0.149 C 
BRANCH  21  22
HETATM   22  C2  UNL     1      30.630  10.832  49.193  1.00  0.00    -0.000 C 
HETATM   23  C1  UNL     1      30.417  12.122  49.048  1.00  0.00     0.053 C 
HETATM   24 BR1  UNL     1      28.667  12.842  48.849  1.00  0.00    -0.064 Br
ENDBRANCH  21  22
ENDBRANCH  19  21
ENDBRANCH   1  19
TORSDOF 3
ENDMDL
MODEL 9
REMARK VINA RESULT:      -6.3      4.519      6.612
REMARK  3 active torsions:
REMARK  status: ('A' for Active; 'I' for Inactive)
REMARK    1  A    between atoms: C2_3  and  C3_4 
REMARK    2  A    between atoms: C3_4  and  N1_5 
REMARK    3  A    between atoms: N1_5  and  C4_6 
ROOT
HETATM    1  C4  UNL     1      20.281  -0.622  53.449  1.00  0.00     0.156 A 
HETATM    2  N2  UNL     1      20.749  -1.545  54.316  1.00  0.00    -0.222 NA
HETATM    3  C5  UNL     1      22.064  -1.368  54.650  1.00  0.00     0.238 A 
HETATM    4  N3  UNL     1      22.820  -0.360  54.157  1.00  0.00    -0.215 NA
HETATM    5  C6  UNL     1      22.347   0.568  53.284  1.00  0.00     0.201 A 
HETATM    6  C7  UNL     1      21.023   0.411  52.932  1.00  0.00     0.128 A 
HETATM    7  N4  UNL     1      20.522   1.382  52.025  1.00  0.00    -0.382 N 
HETATM    8  C8  UNL     1      20.471   2.692  52.637  1.00  0.00     0.139 C 
HETATM    9  C9  UNL     1      20.267   3.786  51.624  1.00  0.00     0.089 C 
HETATM   10  C10 UNL     1      20.088   3.283  50.230  1.00  0.00     0.014 C 
HETATM   11  C11 UNL     1      20.998   2.637  49.477  1.00  0.00     0.138 C 
HETATM   12  O1  UNL     1      22.297   2.101  49.642  1.00  0.00    -0.333 OA
HETATM   13  C12 UNL     1      23.013   1.718  50.798  1.00  0.00     0.174 C 
HETATM   14  C13 UNL     1      23.186   2.371  51.964  1.00  0.00     0.087 C 
HETATM   15  C14 UNL     1      23.194   3.822  52.268  1.00  0.00     0.141 C 
HETATM   16  S1  UNL     1      21.814   4.753  51.622  1.00  0.00    -0.152 SA
HETATM   17  O2  UNL     1      23.386   1.433  52.998  1.00  0.00    -0.292 OA
HETATM   18  H7  UNL     1      20.372   0.731  51.231  1.00  0.00     0.160 HD
ENDROOT
BRANCH   1  19
HETATM   19  N1  UNL     1      18.949  -0.613  52.949  1.00  0.00    -0.369 N 
HETATM   20  H5  UNL     1      18.515   0.034  52.285  1.00  0.00     0.161 HD
BRANCH  19  21
HETATM   21  C3  UNL     1      18.077  -1.673  53.450  1.00  0.00     0.149 C 
BRANCH  21  22
HETATM   22  C2  UNL     1      16.775  -1.724  52.748  1.00  0.00    -0.000 C 
HETATM   23  C1  UNL     1      16.056  -2.824  52.683  1.00  0.00     0.053 C 
HETATM   24 BR1  UNL     1      16.623  -4.452  53.487  1.00  0.00    -0.064 Br
ENDBRANCH  21  22
ENDBRANCH  19  21
ENDBRANCH   1  19
TORSDOF 3
ENDMDL
