MODEL 1
REMARK VINA RESULT:      -7.7      0.000      0.000
REMARK  5 active torsions:
REMARK  status: ('A' for Active; 'I' for Inactive)
REMARK    1  A    between atoms: C5_5  and  S1_6 
REMARK    2  A    between atoms: S1_6  and  N1_8 
REMARK    3  A    between atoms: N1_8  and  C6_9 
REMARK    4  A    between atoms: C6_9  and  C8_11 
REMARK    5  A    between atoms: C11_14  and  C12_15 
ROOT
HETATM    1  N1  UNL     1      25.174   3.207  52.067  1.00  0.00    -0.230 NA
HETATM    2  H6  UNL     1      26.148   3.404  52.321  1.00  0.00     0.138 HD
ENDROOT
BRANCH   1   3
HETATM    3  S1  UNL     1      24.524   4.138  50.774  1.00  0.00     0.126 S 
HETATM    4  O1  UNL     1      23.427   5.090  51.201  1.00  0.00    -0.236 OA
BRANCH   3   5
HETATM    5  C5  UNL     1      25.765   4.935  49.807  1.00  0.00     0.047 A 
HETATM    6  C4  UNL     1      26.885   4.248  49.332  1.00  0.00     0.023 A 
HETATM    7  C3  UNL     1      27.862   4.840  48.582  1.00  0.00     0.008 A 
HETATM    8  C2  UNL     1      27.717   6.185  48.288  1.00  0.00    -0.062 A 
HETATM    9  C1  UNL     1      28.761   6.889  47.467  1.00  0.00     0.048 C 
HETATM   10  C16 UNL     1      26.614   6.879  48.750  1.00  0.00     0.008 A 
HETATM   11  C15 UNL     1      25.627   6.258  49.514  1.00  0.00     0.023 A 
ENDBRANCH   3   5
ENDBRANCH   1   3
BRANCH   1  12
HETATM   12  C6  UNL     1      24.923   1.781  51.913  1.00  0.00     0.098 C 
HETATM   13  C7  UNL     1      23.639   1.384  52.588  1.00  0.00     0.032 C 
BRANCH  12  14
HETATM   14  C8  UNL     1      26.099   0.994  52.365  1.00  0.00    -0.040 A 
HETATM   15  C9  UNL     1      25.984  -0.382  52.348  1.00  0.00     0.010 A 
HETATM   16  C10 UNL     1      27.048  -1.154  52.759  1.00  0.00     0.015 A 
HETATM   17  C11 UNL     1      28.158  -0.441  53.157  1.00  0.00     0.002 A 
HETATM   18  C13 UNL     1      28.301   0.930  53.184  1.00  0.00     0.015 A 
HETATM   19  C14 UNL     1      27.222   1.681  52.769  1.00  0.00     0.010 A 
BRANCH  17  20
HETATM   20  C12 UNL     1      29.314  -1.199  53.599  1.00  0.00     0.269 C 
HETATM   21  O2  UNL     1      29.299  -2.465  53.483  1.00  0.00    -0.301 OA
ENDBRANCH  17  20
ENDBRANCH  12  14
ENDBRANCH   1  12
TORSDOF 5
ENDMDL
MODEL 2
REMARK VINA RESULT:      -7.7      1.756      2.072
REMARK  5 active torsions:
REMARK  status: ('A' for Active; 'I' for Inactive)
REMARK    1  A    between atoms: C5_5  and  S1_6 
REMARK    2  A    between atoms: S1_6  and  N1_8 
REMARK    3  A    between atoms: N1_8  and  C6_9 
REMARK    4  A    between atoms: C6_9  and  C8_11 
REMARK    5  A    between atoms: C11_14  and  C12_15 
ROOT
HETATM    1  N1  UNL     1      23.224   2.275  52.150  1.00  0.00    -0.230 NA
HETATM    2  H6  UNL     1      23.656   2.968  52.770  1.00  0.00     0.138 HD
ENDROOT
BRANCH   1   3
HETATM    3  S1  UNL     1      23.075   2.724  50.495  1.00  0.00     0.126 S 
HETATM    4  O1  UNL     1      21.764   3.405  50.165  1.00  0.00    -0.236 OA
BRANCH   3   5
HETATM    5  C5  UNL     1      24.469   3.627  49.899  1.00  0.00     0.047 A 
HETATM    6  C4  UNL     1      25.755   3.083  49.896  1.00  0.00     0.023 A 
HETATM    7  C3  UNL     1      26.852   3.759  49.441  1.00  0.00     0.008 A 
HETATM    8  C2  UNL     1      26.659   5.045  48.963  1.00  0.00    -0.062 A 
HETATM    9  C1  UNL     1      27.829   5.836  48.451  1.00  0.00     0.048 C 
HETATM   10  C16 UNL     1      25.392   5.597  48.960  1.00  0.00     0.008 A 
HETATM   11  C15 UNL     1      24.284   4.892  49.428  1.00  0.00     0.023 A 
ENDBRANCH   3   5
ENDBRANCH   1   3
BRANCH   1  12
HETATM   12  C6  UNL     1      23.802   0.949  52.320  1.00  0.00     0.098 C 
HETATM   13  C7  UNL     1      22.941   0.097  53.213  1.00  0.00     0.032 C 
BRANCH  12  14
HETATM   14  C8  UNL     1      25.212   1.051  52.778  1.00  0.00    -0.040 A 
HETATM   15  C9  UNL     1      26.042  -0.019  52.510  1.00  0.00     0.010 A 
HETATM   16  C10 UNL     1      27.359   0.031  52.915  1.00  0.00     0.015 A 
HETATM   17  C11 UNL     1      27.717   1.189  53.568  1.00  0.00     0.002 A 
HETATM   18  C13 UNL     1      26.911   2.272  53.849  1.00  0.00     0.015 A 
HETATM   19  C14 UNL     1      25.598   2.199  53.434  1.00  0.00     0.010 A 
BRANCH  17  20
HETATM   20  C12 UNL     1      29.093   1.301  54.019  1.00  0.00     0.269 C 
HETATM   21  O2  UNL     1      29.413   2.266  54.783  1.00  0.00    -0.301 OA
ENDBRANCH  17  20
ENDBRANCH  12  14
ENDBRANCH   1  12
TORSDOF 5
ENDMDL
MODEL 3
REMARK VINA RESULT:      -7.6      2.418      3.644
REMARK  5 active torsions:
REMARK  status: ('A' for Active; 'I' for Inactive)
REMARK    1  A    between atoms: C5_5  and  S1_6 
REMARK    2  A    between atoms: S1_6  and  N1_8 
REMARK    3  A    between atoms: N1_8  and  C6_9 
REMARK    4  A    between atoms: C6_9  and  C8_11 
REMARK    5  A    between atoms: C11_14  and  C12_15 
ROOT
HETATM    1  N1  UNL     1      24.952   3.417  51.817  1.00  0.00    -0.230 NA
HETATM    2  H6  UNL     1      25.245   4.319  52.206  1.00  0.00     0.138 HD
ENDROOT
BRANCH   1   3
HETATM    3  S1  UNL     1      25.042   3.263  50.105  1.00  0.00     0.126 S 
HETATM    4  O1  UNL     1      23.695   3.074  49.439  1.00  0.00    -0.236 OA
BRANCH   3   5
HETATM    5  C5  UNL     1      25.991   4.543  49.347  1.00  0.00     0.047 A 
HETATM    6  C4  UNL     1      25.446   5.798  49.067  1.00  0.00     0.023 A 
HETATM    7  C3  UNL     1      26.157   6.808  48.481  1.00  0.00     0.008 A 
HETATM    8  C2  UNL     1      27.480   6.554  48.157  1.00  0.00    -0.062 A 
HETATM    9  C1  UNL     1      28.310   7.627  47.509  1.00  0.00     0.048 C 
HETATM   10  C16 UNL     1      28.033   5.317  48.428  1.00  0.00     0.008 A 
HETATM   11  C15 UNL     1      27.293   4.299  49.027  1.00  0.00     0.023 A 
ENDBRANCH   3   5
ENDBRANCH   1   3
BRANCH   1  12
HETATM   12  C6  UNL     1      25.562   2.292  52.513  1.00  0.00     0.098 C 
HETATM   13  C7  UNL     1      26.619   1.642  51.663  1.00  0.00     0.032 C 
BRANCH  12  14
HETATM   14  C8  UNL     1      24.519   1.347  52.988  1.00  0.00    -0.040 A 
HETATM   15  C9  UNL     1      23.202   1.710  52.795  1.00  0.00     0.010 A 
HETATM   16  C10 UNL     1      22.199   0.865  53.218  1.00  0.00     0.015 A 
HETATM   17  C11 UNL     1      22.639  -0.298  53.813  1.00  0.00     0.002 A 
HETATM   18  C13 UNL     1      23.945  -0.685  54.019  1.00  0.00     0.015 A 
HETATM   19  C14 UNL     1      24.930   0.177  53.587  1.00  0.00     0.010 A 
BRANCH  17  20
HETATM   20  C12 UNL     1      21.628  -1.230  54.280  1.00  0.00     0.269 C 
HETATM   21  O2  UNL     1      21.920  -2.030  55.225  1.00  0.00    -0.301 OA
ENDBRANCH  17  20
ENDBRANCH  12  14
ENDBRANCH   1  12
TORSDOF 5
ENDMDL
MODEL 4
REMARK VINA RESULT:      -7.6      2.490      6.373
REMARK  5 active torsions:
REMARK  status: ('A' for Active; 'I' for Inactive)
REMARK    1  A    between atoms: C5_5  and  S1_6 
REMARK    2  A    between atoms: S1_6  and  N1_8 
REMARK    3  A    between atoms: N1_8  and  C6_9 
REMARK    4  A    between atoms: C6_9  and  C8_11 
REMARK    5  A    between atoms: C11_14  and  C12_15 
ROOT
HETATM    1  N1  UNL     1      23.620   1.408  51.743  1.00  0.00    -0.230 NA
HETATM    2  H6  UNL     1      24.099   1.156  50.871  1.00  0.00     0.138 HD
ENDROOT
BRANCH   1   3
HETATM    3  S1  UNL     1      23.982   0.434  53.115  1.00  0.00     0.126 S 
HETATM    4  O1  UNL     1      23.131  -0.815  53.216  1.00  0.00    -0.236 OA
BRANCH   3   5
HETATM    5  C5  UNL     1      25.703   0.088  53.280  1.00  0.00     0.047 A 
HETATM    6  C4  UNL     1      26.269  -1.093  52.795  1.00  0.00     0.023 A 
HETATM    7  C3  UNL     1      27.598  -1.388  52.909  1.00  0.00     0.008 A 
HETATM    8  C2  UNL     1      28.408  -0.458  53.540  1.00  0.00    -0.062 A 
HETATM    9  C1  UNL     1      29.878  -0.728  53.695  1.00  0.00     0.048 C 
HETATM   10  C16 UNL     1      27.863   0.716  54.026  1.00  0.00     0.008 A 
HETATM   11  C15 UNL     1      26.504   1.000  53.900  1.00  0.00     0.023 A 
ENDBRANCH   3   5
ENDBRANCH   1   3
BRANCH   1  12
HETATM   12  C6  UNL     1      23.710   2.833  52.028  1.00  0.00     0.098 C 
HETATM   13  C7  UNL     1      22.346   3.468  52.031  1.00  0.00     0.032 C 
BRANCH  12  14
HETATM   14  C8  UNL     1      24.667   3.490  51.102  1.00  0.00    -0.040 A 
HETATM   15  C9  UNL     1      24.404   4.796  50.740  1.00  0.00     0.010 A 
HETATM   16  C10 UNL     1      25.264   5.447  49.883  1.00  0.00     0.015 A 
HETATM   17  C11 UNL     1      26.339   4.693  49.464  1.00  0.00     0.002 A 
HETATM   18  C13 UNL     1      26.627   3.390  49.808  1.00  0.00     0.015 A 
HETATM   19  C14 UNL     1      25.751   2.759  50.666  1.00  0.00     0.010 A 
BRANCH  17  20
HETATM   20  C12 UNL     1      27.283   5.325  48.559  1.00  0.00     0.269 C 
HETATM   21  O2  UNL     1      28.496   4.943  48.572  1.00  0.00    -0.301 OA
ENDBRANCH  17  20
ENDBRANCH  12  14
ENDBRANCH   1  12
TORSDOF 5
ENDMDL
MODEL 5
REMARK VINA RESULT:      -7.4      2.655      3.581
REMARK  5 active torsions:
REMARK  status: ('A' for Active; 'I' for Inactive)
REMARK    1  A    between atoms: C5_5  and  S1_6 
REMARK    2  A    between atoms: S1_6  and  N1_8 
REMARK    3  A    between atoms: N1_8  and  C6_9 
REMARK    4  A    between atoms: C6_9  and  C8_11 
REMARK    5  A    between atoms: C11_14  and  C12_15 
ROOT
HETATM    1  N1  UNL     1      24.569   3.243  51.564  1.00  0.00    -0.230 NA
HETATM    2  H6  UNL     1      25.531   3.089  51.884  1.00  0.00     0.138 HD
ENDROOT
BRANCH   1   3
HETATM    3  S1  UNL     1      24.279   4.706  50.707  1.00  0.00     0.126 S 
HETATM    4  O1  UNL     1      23.678   5.803  51.560  1.00  0.00    -0.236 OA
BRANCH   3   5
HETATM    5  C5  UNL     1      25.685   5.260  49.795  1.00  0.00     0.047 A 
HETATM    6  C4  UNL     1      25.894   6.612  49.512  1.00  0.00     0.023 A 
HETATM    7  C3  UNL     1      26.972   7.069  48.808  1.00  0.00     0.008 A 
HETATM    8  C2  UNL     1      27.891   6.132  48.363  1.00  0.00    -0.062 A 
HETATM    9  C1  UNL     1      29.096   6.577  47.583  1.00  0.00     0.048 C 
HETATM   10  C16 UNL     1      27.697   4.791  48.636  1.00  0.00     0.008 A 
HETATM   11  C15 UNL     1      26.591   4.343  49.356  1.00  0.00     0.023 A 
ENDBRANCH   3   5
ENDBRANCH   1   3
BRANCH   1  12
HETATM   12  C6  UNL     1      24.021   2.077  50.884  1.00  0.00     0.098 C 
HETATM   13  C7  UNL     1      23.012   2.484  49.846  1.00  0.00     0.032 C 
BRANCH  12  14
HETATM   14  C8  UNL     1      23.496   1.098  51.870  1.00  0.00    -0.040 A 
HETATM   15  C9  UNL     1      22.157   0.773  51.787  1.00  0.00     0.010 A 
HETATM   16  C10 UNL     1      21.624  -0.131  52.680  1.00  0.00     0.015 A 
HETATM   17  C11 UNL     1      22.522  -0.633  53.596  1.00  0.00     0.002 A 
HETATM   18  C13 UNL     1      23.862  -0.327  53.703  1.00  0.00     0.015 A 
HETATM   19  C14 UNL     1      24.372   0.580  52.799  1.00  0.00     0.010 A 
BRANCH  17  20
HETATM   20  C12 UNL     1      22.021  -1.591  54.564  1.00  0.00     0.269 C 
HETATM   21  O2  UNL     1      22.631  -1.723  55.672  1.00  0.00    -0.301 OA
ENDBRANCH  17  20
ENDBRANCH  12  14
ENDBRANCH   1  12
TORSDOF 5
ENDMDL
MODEL 6
REMARK VINA RESULT:      -7.3      3.717      5.889
REMARK  5 active torsions:
REMARK  status: ('A' for Active; 'I' for Inactive)
REMARK    1  A    between atoms: C5_5  and  S1_6 
REMARK    2  A    between atoms: S1_6  and  N1_8 
REMARK    3  A    between atoms: N1_8  and  C6_9 
REMARK    4  A    between atoms: C6_9  and  C8_11 
REMARK    5  A    between atoms: C11_14  and  C12_15 
ROOT
HETATM    1  N1  UNL     1      24.494   3.406  52.393  1.00  0.00    -0.230 NA
HETATM    2  H6  UNL     1      24.607   3.159  53.382  1.00  0.00     0.138 HD
ENDROOT
BRANCH   1   3
HETATM    3  S1  UNL     1      25.659   2.748  51.310  1.00  0.00     0.126 S 
HETATM    4  O1  UNL     1      26.354   3.790  50.458  1.00  0.00    -0.236 OA
BRANCH   3   5
HETATM    5  C5  UNL     1      26.799   1.660  52.102  1.00  0.00     0.047 A 
HETATM    6  C4  UNL     1      26.654   0.272  52.046  1.00  0.00     0.023 A 
HETATM    7  C3  UNL     1      27.521  -0.595  52.650  1.00  0.00     0.008 A 
HETATM    8  C2  UNL     1      28.588  -0.052  53.346  1.00  0.00    -0.062 A 
HETATM    9  C1  UNL     1      29.573  -0.957  54.031  1.00  0.00     0.048 C 
HETATM   10  C16 UNL     1      28.744   1.320  53.411  1.00  0.00     0.008 A 
HETATM   11  C15 UNL     1      27.850   2.189  52.788  1.00  0.00     0.023 A 
ENDBRANCH   3   5
ENDBRANCH   1   3
BRANCH   1  12
HETATM   12  C6  UNL     1      23.127   3.214  51.929  1.00  0.00     0.098 C 
HETATM   13  C7  UNL     1      22.308   4.458  52.139  1.00  0.00     0.032 C 
BRANCH  12  14
HETATM   14  C8  UNL     1      22.533   2.002  52.550  1.00  0.00    -0.040 A 
HETATM   15  C9  UNL     1      23.405   1.062  53.061  1.00  0.00     0.010 A 
HETATM   16  C10 UNL     1      22.901  -0.079  53.647  1.00  0.00     0.015 A 
HETATM   17  C11 UNL     1      21.525  -0.160  53.660  1.00  0.00     0.002 A 
HETATM   18  C13 UNL     1      20.632   0.761  53.158  1.00  0.00     0.015 A 
HETATM   19  C14 UNL     1      21.160   1.894  52.577  1.00  0.00     0.010 A 
BRANCH  17  20
HETATM   20  C12 UNL     1      20.934  -1.340  54.265  1.00  0.00     0.269 C 
HETATM   21  O2  UNL     1      21.578  -1.953  55.173  1.00  0.00    -0.301 OA
ENDBRANCH  17  20
ENDBRANCH  12  14
ENDBRANCH   1  12
TORSDOF 5
ENDMDL
MODEL 7
REMARK VINA RESULT:      -7.3      2.479      7.312
REMARK  5 active torsions:
REMARK  status: ('A' for Active; 'I' for Inactive)
REMARK    1  A    between atoms: C5_5  and  S1_6 
REMARK    2  A    between atoms: S1_6  and  N1_8 
REMARK    3  A    between atoms: N1_8  and  C6_9 
REMARK    4  A    between atoms: C6_9  and  C8_11 
REMARK    5  A    between atoms: C11_14  and  C12_15 
ROOT
HETATM    1  N1  UNL     1      25.298   3.973  51.383  1.00  0.00    -0.230 NA
HETATM    2  H6  UNL     1      24.628   4.246  52.109  1.00  0.00     0.138 HD
ENDROOT
BRANCH   1   3
HETATM    3  S1  UNL     1      25.817   2.332  51.407  1.00  0.00     0.126 S 
HETATM    4  O1  UNL     1      27.275   2.160  51.780  1.00  0.00    -0.236 OA
BRANCH   3   5
HETATM    5  C5  UNL     1      24.755   1.288  52.351  1.00  0.00     0.047 A 
HETATM    6  C4  UNL     1      25.252   0.240  53.129  1.00  0.00     0.023 A 
HETATM    7  C3  UNL     1      24.453  -0.585  53.870  1.00  0.00     0.008 A 
HETATM    8  C2  UNL     1      23.088  -0.355  53.834  1.00  0.00    -0.062 A 
HETATM    9  C1  UNL     1      22.160  -1.232  54.628  1.00  0.00     0.048 C 
HETATM   10  C16 UNL     1      22.581   0.677  53.068  1.00  0.00     0.008 A 
HETATM   11  C15 UNL     1      23.411   1.509  52.319  1.00  0.00     0.023 A 
ENDBRANCH   3   5
ENDBRANCH   1   3
BRANCH   1  12
HETATM   12  C6  UNL     1      24.882   4.410  50.057  1.00  0.00     0.098 C 
HETATM   13  C7  UNL     1      24.347   3.257  49.253  1.00  0.00     0.032 C 
BRANCH  12  14
HETATM   14  C8  UNL     1      25.984   5.143  49.382  1.00  0.00    -0.040 A 
HETATM   15  C9  UNL     1      27.121   4.426  49.067  1.00  0.00     0.010 A 
HETATM   16  C10 UNL     1      28.169   5.063  48.439  1.00  0.00     0.015 A 
HETATM   17  C11 UNL     1      27.960   6.400  48.183  1.00  0.00     0.002 A 
HETATM   18  C13 UNL     1      26.837   7.141  48.484  1.00  0.00     0.015 A 
HETATM   19  C14 UNL     1      25.802   6.482  49.113  1.00  0.00     0.010 A 
BRANCH  17  20
HETATM   20  C12 UNL     1      29.029   7.127  47.521  1.00  0.00     0.269 C 
HETATM   21  O2  UNL     1      30.049   7.471  48.199  1.00  0.00    -0.301 OA
ENDBRANCH  17  20
ENDBRANCH  12  14
ENDBRANCH   1  12
TORSDOF 5
ENDMDL
MODEL 8
REMARK VINA RESULT:      -7.3      2.130      6.670
REMARK  5 active torsions:
REMARK  status: ('A' for Active; 'I' for Inactive)
REMARK    1  A    between atoms: C5_5  and  S1_6 
REMARK    2  A    between atoms: S1_6  and  N1_8 
REMARK    3  A    between atoms: N1_8  and  C6_9 
REMARK    4  A    between atoms: C6_9  and  C8_11 
REMARK    5  A    between atoms: C11_14  and  C12_15 
ROOT
HETATM    1  N1  UNL     1      24.985   2.539  50.664  1.00  0.00    -0.230 NA
HETATM    2  H6  UNL     1      25.755   2.222  50.066  1.00  0.00     0.138 HD
ENDROOT
BRANCH   1   3
HETATM    3  S1  UNL     1      25.217   2.357  52.360  1.00  0.00     0.126 S 
HETATM    4  O1  UNL     1      23.970   1.925  53.102  1.00  0.00    -0.236 OA
BRANCH   3   5
HETATM    5  C5  UNL     1      26.616   1.360  52.761  1.00  0.00     0.047 A 
HETATM    6  C4  UNL     1      26.575  -0.034  52.684  1.00  0.00     0.023 A 
HETATM    7  C3  UNL     1      27.642  -0.831  52.989  1.00  0.00     0.008 A 
HETATM    8  C2  UNL     1      28.812  -0.208  53.392  1.00  0.00    -0.062 A 
HETATM    9  C1  UNL     1      30.018  -1.035  53.741  1.00  0.00     0.048 C 
HETATM   10  C16 UNL     1      28.868   1.170  53.472  1.00  0.00     0.008 A 
HETATM   11  C15 UNL     1      27.769   1.968  53.157  1.00  0.00     0.023 A 
ENDBRANCH   3   5
ENDBRANCH   1   3
BRANCH   1  12
HETATM   12  C6  UNL     1      24.519   3.871  50.302  1.00  0.00     0.098 C 
HETATM   13  C7  UNL     1      23.249   3.797  49.500  1.00  0.00     0.032 C 
BRANCH  12  14
HETATM   14  C8  UNL     1      25.601   4.635  49.630  1.00  0.00    -0.040 A 
HETATM   15  C9  UNL     1      25.360   5.966  49.356  1.00  0.00     0.010 A 
HETATM   16  C10 UNL     1      26.334   6.716  48.734  1.00  0.00     0.015 A 
HETATM   17  C11 UNL     1      27.492   6.028  48.442  1.00  0.00     0.002 A 
HETATM   18  C13 UNL     1      27.761   4.702  48.704  1.00  0.00     0.015 A 
HETATM   19  C14 UNL     1      26.770   3.972  49.326  1.00  0.00     0.010 A 
BRANCH  17  20
HETATM   20  C12 UNL     1      28.557   6.765  47.787  1.00  0.00     0.269 C 
HETATM   21  O2  UNL     1      29.686   6.202  47.629  1.00  0.00    -0.301 OA
ENDBRANCH  17  20
ENDBRANCH  12  14
ENDBRANCH   1  12
TORSDOF 5
ENDMDL
MODEL 9
REMARK VINA RESULT:      -7.1      4.259      7.280
REMARK  5 active torsions:
REMARK  status: ('A' for Active; 'I' for Inactive)
REMARK    1  A    between atoms: C5_5  and  S1_6 
REMARK    2  A    between atoms: S1_6  and  N1_8 
REMARK    3  A    between atoms: N1_8  and  C6_9 
REMARK    4  A    between atoms: C6_9  and  C8_11 
REMARK    5  A    between atoms: C11_14  and  C12_15 
ROOT
HETATM    1  N1  UNL     1      22.542  -0.950  53.168  1.00  0.00    -0.230 NA
HETATM    2  H6  UNL     1      23.053  -1.219  52.321  1.00  0.00     0.138 HD
ENDROOT
BRANCH   1   3
HETATM    3  S1  UNL     1      23.492  -0.689  54.578  1.00  0.00     0.126 S 
HETATM    4  O1  UNL     1      23.203  -1.668  55.697  1.00  0.00    -0.236 OA
BRANCH   3   5
HETATM    5  C5  UNL     1      25.217  -0.557  54.232  1.00  0.00     0.047 A 
HETATM    6  C4  UNL     1      26.115  -0.012  55.152  1.00  0.00     0.023 A 
HETATM    7  C3  UNL     1      27.455   0.104  54.911  1.00  0.00     0.008 A 
HETATM    8  C2  UNL     1      27.926  -0.348  53.689  1.00  0.00    -0.062 A 
HETATM    9  C1  UNL     1      29.391  -0.246  53.368  1.00  0.00     0.048 C 
HETATM   10  C16 UNL     1      27.050  -0.890  52.768  1.00  0.00     0.008 A 
HETATM   11  C15 UNL     1      25.686  -1.000  53.032  1.00  0.00     0.023 A 
ENDBRANCH   3   5
ENDBRANCH   1   3
BRANCH   1  12
HETATM   12  C6  UNL     1      21.598   0.132  52.920  1.00  0.00     0.098 C 
HETATM   13  C7  UNL     1      20.179  -0.352  53.043  1.00  0.00     0.032 C 
BRANCH  12  14
HETATM   14  C8  UNL     1      21.890   0.789  51.620  1.00  0.00    -0.040 A 
HETATM   15  C9  UNL     1      22.967   1.650  51.575  1.00  0.00     0.010 A 
HETATM   16  C10 UNL     1      23.277   2.283  50.390  1.00  0.00     0.015 A 
HETATM   17  C11 UNL     1      22.444   1.973  49.337  1.00  0.00     0.002 A 
HETATM   18  C13 UNL     1      21.363   1.118  49.353  1.00  0.00     0.015 A 
HETATM   19  C14 UNL     1      21.073   0.498  50.549  1.00  0.00     0.010 A 
BRANCH  17  20
HETATM   20  C12 UNL     1      22.721   2.608  48.061  1.00  0.00     0.269 C 
HETATM   21  O2  UNL     1      21.794   2.672  47.193  1.00  0.00    -0.301 OA
ENDBRANCH  17  20
ENDBRANCH  12  14
ENDBRANCH   1  12
TORSDOF 5
ENDMDL
