MODEL 1
REMARK VINA RESULT:      -9.5      0.000      0.000
REMARK  5 active torsions:
REMARK  status: ('A' for Active; 'I' for Inactive)
REMARK    1  A    between atoms: N2_5  and  C4_6 
REMARK    2  A    between atoms: C11_14  and  C12_15 
REMARK    3  A    between atoms: C18_22  and  N4_23 
REMARK    4  A    between atoms: N4_23  and  O1_24 
REMARK    5  A    between atoms: O1_24  and  O2_25 
ROOT
HETATM    1  C4  UNL     1      24.066   3.856  50.139  1.00  0.00     0.032 A 
HETATM    2  C5  UNL     1      22.733   4.152  50.320  1.00  0.00     0.032 A 
HETATM    3  C6  UNL     1      21.891   3.423  51.169  1.00  0.00     0.036 A 
HETATM    4  C7  UNL     1      22.402   2.354  51.867  1.00  0.00     0.083 A 
HETATM    5  C8  UNL     1      23.727   2.061  51.687  1.00  0.00     0.063 A 
HETATM    6  C9  UNL     1      24.549   2.780  50.850  1.00  0.00     0.061 A 
HETATM    7  N3  UNL     1      24.441   1.020  52.324  1.00  0.00    -0.356 N 
HETATM    8  C10 UNL     1      24.055   0.168  53.402  1.00  0.00     0.035 C 
HETATM    9  C11 UNL     1      25.052  -0.427  54.023  1.00  0.00     0.041 C 
HETATM   10  C18 UNL     1      22.728  -0.136  53.931  1.00  0.00     0.176 C 
HETATM   11  C19 UNL     1      21.653   0.724  53.481  1.00  0.00     0.118 C 
HETATM   12  N5  UNL     1      21.428   1.725  52.676  1.00  0.00    -0.261 NA
HETATM   13  H11 UNL     1      25.398   0.808  51.980  1.00  0.00     0.166 HD
ENDROOT
BRANCH   9  14
HETATM   14  C12 UNL     1      26.487  -0.462  53.919  1.00  0.00     0.004 A 
HETATM   15  C13 UNL     1      27.230   0.362  54.758  1.00  0.00     0.014 A 
HETATM   16  C14 UNL     1      28.611   0.433  54.753  1.00  0.00     0.001 A 
HETATM   17  C15 UNL     1      29.278  -0.389  53.832  1.00  0.00     0.003 A 
HETATM   18  C16 UNL     1      28.565  -1.203  53.002  1.00  0.00     0.043 A 
HETATM   19  C17 UNL     1      27.169  -1.264  53.019  1.00  0.00     0.126 A 
HETATM   20  F1  UNL     1      26.443  -2.071  52.189  1.00  0.00    -0.205 F 
ENDBRANCH   9  14
BRANCH  10  21
HETATM   21  N4  UNL     1      22.363  -1.522  53.640  1.00  0.00    -0.158 NA
HETATM   22  H18 UNL     1      23.276  -2.030  53.559  1.00  0.00     0.158 HD
BRANCH  21  23
HETATM   23  O1  UNL     1      21.796  -2.061  54.768  1.00  0.00    -0.143 OA
BRANCH  23  24
HETATM   24  O2  UNL     1      22.682  -2.036  55.750  1.00  0.00    -0.232 OA
HETATM   25  H19 UNL     1      22.511  -2.752  56.412  1.00  0.00     0.255 HD
ENDBRANCH  23  24
ENDBRANCH  21  23
ENDBRANCH  10  21
BRANCH   1  26
HETATM   26  N2  UNL     1      24.835   4.671  49.262  1.00  0.00    -0.378 N 
HETATM   27  C3  UNL     1      26.263   4.518  49.190  1.00  0.00     0.142 C 
HETATM   28  C2  UNL     1      26.982   5.773  48.817  1.00  0.00     0.136 C 
HETATM   29  N1  UNL     1      26.184   6.945  48.814  1.00  0.00    -0.414 N 
HETATM   30  C1  UNL     1      26.166   7.674  50.039  1.00  0.00     0.143 C 
HETATM   31  C21 UNL     1      24.958   6.834  48.113  1.00  0.00     0.136 C 
HETATM   32  C20 UNL     1      24.090   5.655  48.486  1.00  0.00     0.142 C 
ENDBRANCH   1  26
TORSDOF 5
ENDMDL
MODEL 2
REMARK VINA RESULT:      -9.0      2.732      4.958
REMARK  5 active torsions:
REMARK  status: ('A' for Active; 'I' for Inactive)
REMARK    1  A    between atoms: N2_5  and  C4_6 
REMARK    2  A    between atoms: C11_14  and  C12_15 
REMARK    3  A    between atoms: C18_22  and  N4_23 
REMARK    4  A    between atoms: N4_23  and  O1_24 
REMARK    5  A    between atoms: O1_24  and  O2_25 
ROOT
HETATM    1  C4  UNL     1      23.851   4.243  49.415  1.00  0.00     0.032 A 
HETATM    2  C5  UNL     1      25.160   4.529  49.098  1.00  0.00     0.032 A 
HETATM    3  C6  UNL     1      26.255   3.992  49.786  1.00  0.00     0.036 A 
HETATM    4  C7  UNL     1      26.033   3.133  50.836  1.00  0.00     0.083 A 
HETATM    5  C8  UNL     1      24.732   2.848  51.151  1.00  0.00     0.063 A 
HETATM    6  C9  UNL     1      23.660   3.380  50.472  1.00  0.00     0.061 A 
HETATM    7  N3  UNL     1      24.298   1.978  52.178  1.00  0.00    -0.356 N 
HETATM    8  C10 UNL     1      25.043   1.068  52.987  1.00  0.00     0.035 C 
HETATM    9  C11 UNL     1      24.327   0.131  53.571  1.00  0.00     0.041 C 
HETATM   10  C18 UNL     1      26.477   1.008  53.255  1.00  0.00     0.176 C 
HETATM   11  C19 UNL     1      27.319   1.817  52.398  1.00  0.00     0.118 C 
HETATM   12  N5  UNL     1      27.237   2.680  51.424  1.00  0.00    -0.261 NA
HETATM   13  H11 UNL     1      23.286   1.974  52.413  1.00  0.00     0.166 HD
ENDROOT
BRANCH   9  14
HETATM   14  C12 UNL     1      22.942  -0.255  53.628  1.00  0.00     0.004 A 
HETATM   15  C13 UNL     1      22.095   0.173  52.610  1.00  0.00     0.014 A 
HETATM   16  C14 UNL     1      20.744  -0.117  52.550  1.00  0.00     0.001 A 
HETATM   17  C15 UNL     1      20.222  -0.893  53.596  1.00  0.00     0.003 A 
HETATM   18  C16 UNL     1      21.038  -1.321  54.601  1.00  0.00     0.043 A 
HETATM   19  C17 UNL     1      22.402  -1.020  54.649  1.00  0.00     0.126 A 
HETATM   20  F1  UNL     1      23.229  -1.438  55.653  1.00  0.00    -0.205 F 
ENDBRANCH   9  14
BRANCH  10  21
HETATM   21  N4  UNL     1      26.757   1.364  54.646  1.00  0.00    -0.158 NA
HETATM   22  H18 UNL     1      26.094   0.781  55.211  1.00  0.00     0.158 HD
BRANCH  21  23
HETATM   23  O1  UNL     1      27.990   0.861  54.978  1.00  0.00    -0.143 OA
BRANCH  23  24
HETATM   24  O2  UNL     1      27.913  -0.458  55.047  1.00  0.00    -0.232 OA
HETATM   25  H19 UNL     1      28.611  -0.831  55.642  1.00  0.00     0.255 HD
ENDBRANCH  23  24
ENDBRANCH  21  23
ENDBRANCH  10  21
BRANCH   1  26
HETATM   26  N2  UNL     1      22.814   4.833  48.642  1.00  0.00    -0.378 N 
HETATM   27  C3  UNL     1      21.462   4.353  48.747  1.00  0.00     0.142 C 
HETATM   28  C2  UNL     1      20.662   4.533  47.499  1.00  0.00     0.136 C 
HETATM   29  N1  UNL     1      21.408   4.933  46.360  1.00  0.00    -0.414 N 
HETATM   30  C1  UNL     1      21.889   3.869  45.542  1.00  0.00     0.143 C 
HETATM   31  C21 UNL     1      22.280   6.030  46.569  1.00  0.00     0.136 C 
HETATM   32  C20 UNL     1      23.217   5.912  47.747  1.00  0.00     0.142 C 
ENDBRANCH   1  26
TORSDOF 5
ENDMDL
MODEL 3
REMARK VINA RESULT:      -8.7      3.408      6.982
REMARK  5 active torsions:
REMARK  status: ('A' for Active; 'I' for Inactive)
REMARK    1  A    between atoms: N2_5  and  C4_6 
REMARK    2  A    between atoms: C11_14  and  C12_15 
REMARK    3  A    between atoms: C18_22  and  N4_23 
REMARK    4  A    between atoms: N4_23  and  O1_24 
REMARK    5  A    between atoms: O1_24  and  O2_25 
ROOT
HETATM    1  C4  UNL     1      24.900   0.461  53.015  1.00  0.00     0.032 A 
HETATM    2  C5  UNL     1      23.678  -0.149  53.194  1.00  0.00     0.032 A 
HETATM    3  C6  UNL     1      22.483   0.346  52.657  1.00  0.00     0.036 A 
HETATM    4  C7  UNL     1      22.510   1.500  51.909  1.00  0.00     0.083 A 
HETATM    5  C8  UNL     1      23.725   2.105  51.731  1.00  0.00     0.063 A 
HETATM    6  C9  UNL     1      24.895   1.615  52.262  1.00  0.00     0.061 A 
HETATM    7  N3  UNL     1      23.964   3.282  50.983  1.00  0.00    -0.356 N 
HETATM    8  C10 UNL     1      23.100   4.004  50.107  1.00  0.00     0.035 C 
HETATM    9  C11 UNL     1      23.711   4.815  49.269  1.00  0.00     0.041 C 
HETATM   10  C18 UNL     1      21.645   3.973  49.986  1.00  0.00     0.176 C 
HETATM   11  C19 UNL     1      20.974   2.883  50.665  1.00  0.00     0.118 C 
HETATM   12  N5  UNL     1      21.228   1.867  51.441  1.00  0.00    -0.261 NA
HETATM   13  H11 UNL     1      24.902   3.722  51.060  1.00  0.00     0.166 HD
ENDROOT
BRANCH   9  14
HETATM   14  C12 UNL     1      25.066   5.197  48.972  1.00  0.00     0.004 A 
HETATM   15  C13 UNL     1      26.070   4.249  49.138  1.00  0.00     0.014 A 
HETATM   16  C14 UNL     1      27.412   4.487  48.900  1.00  0.00     0.001 A 
HETATM   17  C15 UNL     1      27.751   5.778  48.465  1.00  0.00     0.003 A 
HETATM   18  C16 UNL     1      26.780   6.720  48.298  1.00  0.00     0.043 A 
HETATM   19  C17 UNL     1      25.428   6.464  48.543  1.00  0.00     0.126 A 
HETATM   20  F1  UNL     1      24.445   7.400  48.384  1.00  0.00    -0.205 F 
ENDBRANCH   9  14
BRANCH  10  21
HETATM   21  N4  UNL     1      21.062   5.233  50.448  1.00  0.00    -0.158 NA
HETATM   22  H18 UNL     1      20.087   4.987  50.741  1.00  0.00     0.158 HD
BRANCH  21  23
HETATM   23  O1  UNL     1      21.673   5.580  51.628  1.00  0.00    -0.143 OA
BRANCH  23  24
HETATM   24  O2  UNL     1      21.869   6.888  51.643  1.00  0.00    -0.232 OA
HETATM   25  H19 UNL     1      22.573   7.142  52.291  1.00  0.00     0.255 HD
ENDBRANCH  23  24
ENDBRANCH  21  23
ENDBRANCH  10  21
BRANCH   1  26
HETATM   26  N2  UNL     1      26.054  -0.134  53.594  1.00  0.00    -0.378 N 
HETATM   27  C3  UNL     1      26.428   0.168  54.950  1.00  0.00     0.142 C 
HETATM   28  C2  UNL     1      27.896   0.068  55.204  1.00  0.00     0.136 C 
HETATM   29  N1  UNL     1      28.698  -0.085  54.044  1.00  0.00    -0.414 N 
HETATM   30  C1  UNL     1      29.182   1.129  53.473  1.00  0.00     0.143 C 
HETATM   31  C21 UNL     1      28.268  -1.092  53.145  1.00  0.00     0.136 C 
HETATM   32  C20 UNL     1      26.816  -1.027  52.729  1.00  0.00     0.142 C 
ENDBRANCH   1  26
TORSDOF 5
ENDMDL
MODEL 4
REMARK VINA RESULT:      -8.5      2.862      6.667
REMARK  5 active torsions:
REMARK  status: ('A' for Active; 'I' for Inactive)
REMARK    1  A    between atoms: N2_5  and  C4_6 
REMARK    2  A    between atoms: C11_14  and  C12_15 
REMARK    3  A    between atoms: C18_22  and  N4_23 
REMARK    4  A    between atoms: N4_23  and  O1_24 
REMARK    5  A    between atoms: O1_24  and  O2_25 
ROOT
HETATM    1  C4  UNL     1      24.833  -0.003  53.332  1.00  0.00     0.032 A 
HETATM    2  C5  UNL     1      23.794  -0.901  53.426  1.00  0.00     0.032 A 
HETATM    3  C6  UNL     1      22.494  -0.626  52.981  1.00  0.00     0.036 A 
HETATM    4  C7  UNL     1      22.222   0.599  52.419  1.00  0.00     0.083 A 
HETATM    5  C8  UNL     1      23.256   1.491  52.325  1.00  0.00     0.063 A 
HETATM    6  C9  UNL     1      24.530   1.215  52.765  1.00  0.00     0.061 A 
HETATM    7  N3  UNL     1      23.185   2.788  51.765  1.00  0.00    -0.356 N 
HETATM    8  C10 UNL     1      22.140   3.409  51.017  1.00  0.00     0.035 C 
HETATM    9  C11 UNL     1      22.511   4.455  50.309  1.00  0.00     0.041 C 
HETATM   10  C18 UNL     1      20.727   3.056  50.905  1.00  0.00     0.176 C 
HETATM   11  C19 UNL     1      20.356   1.752  51.414  1.00  0.00     0.118 C 
HETATM   12  N5  UNL     1      20.870   0.720  52.023  1.00  0.00    -0.261 NA
HETATM   13  H11 UNL     1      23.999   3.419  51.900  1.00  0.00     0.166 HD
ENDROOT
BRANCH   9  14
HETATM   14  C12 UNL     1      23.728   5.182  50.063  1.00  0.00     0.004 A 
HETATM   15  C13 UNL     1      23.826   6.485  50.540  1.00  0.00     0.014 A 
HETATM   16  C14 UNL     1      24.932   7.297  50.363  1.00  0.00     0.001 A 
HETATM   17  C15 UNL     1      26.008   6.743  49.652  1.00  0.00     0.003 A 
HETATM   18  C16 UNL     1      25.929   5.468  49.178  1.00  0.00     0.043 A 
HETATM   19  C17 UNL     1      24.804   4.660  49.364  1.00  0.00     0.126 A 
HETATM   20  F1  UNL     1      24.710   3.381  48.890  1.00  0.00    -0.205 F 
ENDBRANCH   9  14
BRANCH  10  21
HETATM   21  N4  UNL     1      19.892   4.063  51.560  1.00  0.00    -0.158 NA
HETATM   22  H18 UNL     1      19.403   4.557  50.776  1.00  0.00     0.158 HD
BRANCH  21  23
HETATM   23  O1  UNL     1      18.874   3.415  52.214  1.00  0.00    -0.143 OA
BRANCH  23  24
HETATM   24  O2  UNL     1      17.721   3.964  51.869  1.00  0.00    -0.232 OA
HETATM   25  H19 UNL     1      17.015   3.281  51.748  1.00  0.00     0.255 HD
ENDBRANCH  23  24
ENDBRANCH  21  23
ENDBRANCH  10  21
BRANCH   1  26
HETATM   26  N2  UNL     1      26.118  -0.390  53.804  1.00  0.00    -0.378 N 
HETATM   27  C3  UNL     1      26.570   0.018  55.107  1.00  0.00     0.142 C 
HETATM   28  C2  UNL     1      28.053   0.156  55.211  1.00  0.00     0.136 C 
HETATM   29  N1  UNL     1      28.752   0.084  53.979  1.00  0.00    -0.414 N 
HETATM   30  C1  UNL     1      28.980   1.335  53.334  1.00  0.00     0.143 C 
HETATM   31  C21 UNL     1      28.399  -1.011  53.152  1.00  0.00     0.136 C 
HETATM   32  C20 UNL     1      26.923  -1.187  52.886  1.00  0.00     0.142 C 
ENDBRANCH   1  26
TORSDOF 5
ENDMDL
MODEL 5
REMARK VINA RESULT:      -8.4      3.497      7.212
REMARK  5 active torsions:
REMARK  status: ('A' for Active; 'I' for Inactive)
REMARK    1  A    between atoms: N2_5  and  C4_6 
REMARK    2  A    between atoms: C11_14  and  C12_15 
REMARK    3  A    between atoms: C18_22  and  N4_23 
REMARK    4  A    between atoms: N4_23  and  O1_24 
REMARK    5  A    between atoms: O1_24  and  O2_25 
ROOT
HETATM    1  C4  UNL     1      25.116   1.538  52.402  1.00  0.00     0.032 A 
HETATM    2  C5  UNL     1      23.766   1.268  52.431  1.00  0.00     0.032 A 
HETATM    3  C6  UNL     1      22.806   2.070  51.801  1.00  0.00     0.036 A 
HETATM    4  C7  UNL     1      23.212   3.189  51.113  1.00  0.00     0.083 A 
HETATM    5  C8  UNL     1      24.554   3.457  51.084  1.00  0.00     0.063 A 
HETATM    6  C9  UNL     1      25.492   2.666  51.706  1.00  0.00     0.061 A 
HETATM    7  N3  UNL     1      25.170   4.542  50.419  1.00  0.00    -0.356 N 
HETATM    8  C10 UNL     1      24.622   5.483  49.495  1.00  0.00     0.035 C 
HETATM    9  C11 UNL     1      25.510   6.120  48.761  1.00  0.00     0.041 C 
HETATM   10  C18 UNL     1      23.231   5.838  49.229  1.00  0.00     0.176 C 
HETATM   11  C19 UNL     1      22.232   4.951  49.787  1.00  0.00     0.118 C 
HETATM   12  N5  UNL     1      22.127   3.889  50.537  1.00  0.00    -0.261 NA
HETATM   13  H11 UNL     1      26.176   4.719  50.609  1.00  0.00     0.166 HD
ENDROOT
BRANCH   9  14
HETATM   14  C12 UNL     1      26.942   6.137  48.618  1.00  0.00     0.004 A 
HETATM   15  C13 UNL     1      27.582   7.369  48.529  1.00  0.00     0.014 A 
HETATM   16  C14 UNL     1      28.948   7.527  48.378  1.00  0.00     0.001 A 
HETATM   17  C15 UNL     1      29.711   6.351  48.315  1.00  0.00     0.003 A 
HETATM   18  C16 UNL     1      29.100   5.135  48.401  1.00  0.00     0.043 A 
HETATM   19  C17 UNL     1      27.718   4.992  48.553  1.00  0.00     0.126 A 
HETATM   20  F1  UNL     1      27.093   3.779  48.636  1.00  0.00    -0.205 F 
ENDBRANCH   9  14
BRANCH  10  21
HETATM   21  N4  UNL     1      22.950   7.198  49.689  1.00  0.00    -0.158 NA
HETATM   22  H18 UNL     1      21.926   7.336  49.510  1.00  0.00     0.158 HD
BRANCH  21  23
HETATM   23  O1  UNL     1      23.040   7.215  51.059  1.00  0.00    -0.143 OA
BRANCH  23  24
HETATM   24  O2  UNL     1      24.014   8.036  51.416  1.00  0.00    -0.232 OA
HETATM   25  H19 UNL     1      24.841   7.542  51.643  1.00  0.00     0.255 HD
ENDBRANCH  23  24
ENDBRANCH  21  23
ENDBRANCH  10  21
BRANCH   1  26
HETATM   26  N2  UNL     1      26.007   0.649  53.065  1.00  0.00    -0.378 N 
HETATM   27  C3  UNL     1      26.054   0.603  54.502  1.00  0.00     0.142 C 
HETATM   28  C2  UNL     1      27.387   0.204  55.045  1.00  0.00     0.136 C 
HETATM   29  N1  UNL     1      28.435   0.155  54.091  1.00  0.00    -0.414 N 
HETATM   30  C1  UNL     1      29.186   1.358  53.948  1.00  0.00     0.143 C 
HETATM   31  C21 UNL     1      28.134  -0.561  52.905  1.00  0.00     0.136 C 
HETATM   32  C20 UNL     1      26.855  -0.167  52.205  1.00  0.00     0.142 C 
ENDBRANCH   1  26
TORSDOF 5
ENDMDL
MODEL 6
REMARK VINA RESULT:      -8.4      1.524      2.185
REMARK  5 active torsions:
REMARK  status: ('A' for Active; 'I' for Inactive)
REMARK    1  A    between atoms: N2_5  and  C4_6 
REMARK    2  A    between atoms: C11_14  and  C12_15 
REMARK    3  A    between atoms: C18_22  and  N4_23 
REMARK    4  A    between atoms: N4_23  and  O1_24 
REMARK    5  A    between atoms: O1_24  and  O2_25 
ROOT
HETATM    1  C4  UNL     1      23.043   5.217  50.708  1.00  0.00     0.032 A 
HETATM    2  C5  UNL     1      21.711   5.479  50.944  1.00  0.00     0.032 A 
HETATM    3  C6  UNL     1      20.859   4.596  51.618  1.00  0.00     0.036 A 
HETATM    4  C7  UNL     1      21.358   3.399  52.076  1.00  0.00     0.083 A 
HETATM    5  C8  UNL     1      22.681   3.139  51.843  1.00  0.00     0.063 A 
HETATM    6  C9  UNL     1      23.513   4.011  51.178  1.00  0.00     0.061 A 
HETATM    7  N3  UNL     1      23.384   1.981  52.248  1.00  0.00    -0.356 N 
HETATM    8  C10 UNL     1      22.986   0.924  53.122  1.00  0.00     0.035 C 
HETATM    9  C11 UNL     1      23.975   0.204  53.607  1.00  0.00     0.041 C 
HETATM   10  C18 UNL     1      21.655   0.529  53.571  1.00  0.00     0.176 C 
HETATM   11  C19 UNL     1      20.589   1.474  53.310  1.00  0.00     0.118 C 
HETATM   12  N5  UNL     1      20.376   2.623  52.733  1.00  0.00    -0.261 NA
HETATM   13  H11 UNL     1      24.341   1.837  51.869  1.00  0.00     0.166 HD
ENDROOT
BRANCH   9  14
HETATM   14  C12 UNL     1      25.410   0.178  53.501  1.00  0.00     0.004 A 
HETATM   15  C13 UNL     1      26.016  -0.973  53.007  1.00  0.00     0.014 A 
HETATM   16  C14 UNL     1      27.382  -1.133  52.865  1.00  0.00     0.001 A 
HETATM   17  C15 UNL     1      28.184  -0.049  53.253  1.00  0.00     0.003 A 
HETATM   18  C16 UNL     1      27.607   1.087  53.740  1.00  0.00     0.043 A 
HETATM   19  C17 UNL     1      26.224   1.234  53.878  1.00  0.00     0.126 A 
HETATM   20  F1  UNL     1      25.634   2.365  54.369  1.00  0.00    -0.205 F 
ENDBRANCH   9  14
BRANCH  10  21
HETATM   21  N4  UNL     1      21.279  -0.762  52.995  1.00  0.00    -0.158 NA
HETATM   22  H18 UNL     1      22.166  -1.143  52.587  1.00  0.00     0.158 HD
BRANCH  21  23
HETATM   23  O1  UNL     1      21.002  -1.627  54.024  1.00  0.00    -0.143 OA
BRANCH  23  24
HETATM   24  O2  UNL     1      19.690  -1.747  54.145  1.00  0.00    -0.232 OA
HETATM   25  H19 UNL     1      19.216  -1.339  53.377  1.00  0.00     0.255 HD
ENDBRANCH  23  24
ENDBRANCH  21  23
ENDBRANCH  10  21
BRANCH   1  26
HETATM   26  N2  UNL     1      23.822   6.191  50.024  1.00  0.00    -0.378 N 
HETATM   27  C3  UNL     1      23.700   6.352  48.600  1.00  0.00     0.142 C 
HETATM   28  C2  UNL     1      24.948   6.845  47.944  1.00  0.00     0.136 C 
HETATM   29  N1  UNL     1      26.098   6.862  48.775  1.00  0.00    -0.414 N 
HETATM   30  C1  UNL     1      26.898   5.683  48.731  1.00  0.00     0.143 C 
HETATM   31  C21 UNL     1      25.914   7.470  50.041  1.00  0.00     0.136 C 
HETATM   32  C20 UNL     1      24.738   6.970  50.847  1.00  0.00     0.142 C 
ENDBRANCH   1  26
TORSDOF 5
ENDMDL
MODEL 7
REMARK VINA RESULT:      -8.4      2.824      4.116
REMARK  5 active torsions:
REMARK  status: ('A' for Active; 'I' for Inactive)
REMARK    1  A    between atoms: N2_5  and  C4_6 
REMARK    2  A    between atoms: C11_14  and  C12_15 
REMARK    3  A    between atoms: C18_22  and  N4_23 
REMARK    4  A    between atoms: N4_23  and  O1_24 
REMARK    5  A    between atoms: O1_24  and  O2_25 
ROOT
HETATM    1  C4  UNL     1      27.527   5.819  48.503  1.00  0.00     0.032 A 
HETATM    2  C5  UNL     1      26.411   6.572  48.215  1.00  0.00     0.032 A 
HETATM    3  C6  UNL     1      25.136   6.283  48.717  1.00  0.00     0.036 A 
HETATM    4  C7  UNL     1      24.970   5.197  49.544  1.00  0.00     0.083 A 
HETATM    5  C8  UNL     1      26.080   4.450  49.831  1.00  0.00     0.063 A 
HETATM    6  C9  UNL     1      27.330   4.738  49.332  1.00  0.00     0.061 A 
HETATM    7  N3  UNL     1      26.121   3.313  50.670  1.00  0.00    -0.356 N 
HETATM    8  C10 UNL     1      25.127   2.781  51.546  1.00  0.00     0.035 C 
HETATM    9  C11 UNL     1      25.582   1.962  52.470  1.00  0.00     0.041 C 
HETATM   10  C18 UNL     1      23.686   3.015  51.583  1.00  0.00     0.176 C 
HETATM   11  C19 UNL     1      23.203   4.130  50.794  1.00  0.00     0.118 C 
HETATM   12  N5  UNL     1      23.629   5.042  49.965  1.00  0.00    -0.261 NA
HETATM   13  H11 UNL     1      26.992   2.746  50.677  1.00  0.00     0.166 HD
ENDROOT
BRANCH   9  14
HETATM   14  C12 UNL     1      26.857   1.426  52.867  1.00  0.00     0.004 A 
HETATM   15  C13 UNL     1      27.780   2.285  53.454  1.00  0.00     0.014 A 
HETATM   16  C14 UNL     1      29.042   1.903  53.871  1.00  0.00     0.001 A 
HETATM   17  C15 UNL     1      29.386   0.556  53.675  1.00  0.00     0.003 A 
HETATM   18  C16 UNL     1      28.493  -0.300  53.101  1.00  0.00     0.043 A 
HETATM   19  C17 UNL     1      27.221   0.102  52.685  1.00  0.00     0.126 A 
HETATM   20  F1  UNL     1      26.319  -0.745  52.104  1.00  0.00    -0.205 F 
ENDBRANCH   9  14
BRANCH  10  21
HETATM   21  N4  UNL     1      22.958   1.813  51.178  1.00  0.00    -0.158 NA
HETATM   22  H18 UNL     1      21.996   1.933  51.577  1.00  0.00     0.158 HD
BRANCH  21  23
HETATM   23  O1  UNL     1      22.750   1.874  49.822  1.00  0.00    -0.143 OA
BRANCH  23  24
HETATM   24  O2  UNL     1      21.833   0.982  49.485  1.00  0.00    -0.232 OA
HETATM   25  H19 UNL     1      21.043   1.413  49.073  1.00  0.00     0.255 HD
ENDBRANCH  23  24
ENDBRANCH  21  23
ENDBRANCH  10  21
BRANCH   1  26
HETATM   26  N2  UNL     1      28.778   6.209  47.949  1.00  0.00    -0.378 N 
HETATM   27  C3  UNL     1      29.975   5.477  48.264  1.00  0.00     0.142 C 
HETATM   28  C2  UNL     1      31.216   6.307  48.216  1.00  0.00     0.136 C 
HETATM   29  N1  UNL     1      31.001   7.704  48.093  1.00  0.00    -0.414 N 
HETATM   30  C1  UNL     1      30.926   8.420  49.323  1.00  0.00     0.143 C 
HETATM   31  C21 UNL     1      30.095   8.083  47.071  1.00  0.00     0.136 C 
HETATM   32  C20 UNL     1      28.756   7.383  47.084  1.00  0.00     0.142 C 
ENDBRANCH   1  26
TORSDOF 5
ENDMDL
MODEL 8
REMARK VINA RESULT:      -8.3      5.810      9.047
REMARK  5 active torsions:
REMARK  status: ('A' for Active; 'I' for Inactive)
REMARK    1  A    between atoms: N2_5  and  C4_6 
REMARK    2  A    between atoms: C11_14  and  C12_15 
REMARK    3  A    between atoms: C18_22  and  N4_23 
REMARK    4  A    between atoms: N4_23  and  O1_24 
REMARK    5  A    between atoms: O1_24  and  O2_25 
ROOT
HETATM    1  C4  UNL     1      26.221   4.593  49.184  1.00  0.00     0.032 A 
HETATM    2  C5  UNL     1      25.500   5.736  48.918  1.00  0.00     0.032 A 
HETATM    3  C6  UNL     1      26.071   6.904  48.397  1.00  0.00     0.036 A 
HETATM    4  C7  UNL     1      27.420   6.931  48.131  1.00  0.00     0.083 A 
HETATM    5  C8  UNL     1      28.136   5.795  48.394  1.00  0.00     0.063 A 
HETATM    6  C9  UNL     1      27.569   4.651  48.907  1.00  0.00     0.061 A 
HETATM    7  N3  UNL     1      29.521   5.616  48.173  1.00  0.00    -0.356 N 
HETATM    8  C10 UNL     1      30.454   6.444  47.479  1.00  0.00     0.035 C 
HETATM    9  C11 UNL     1      31.563   5.840  47.108  1.00  0.00     0.041 C 
HETATM   10  C18 UNL     1      30.364   7.853  47.106  1.00  0.00     0.176 C 
HETATM   11  C19 UNL     1      29.052   8.457  47.221  1.00  0.00     0.118 C 
HETATM   12  N5  UNL     1      27.840   8.177  47.611  1.00  0.00    -0.261 NA
HETATM   13  H11 UNL     1      29.968   4.763  48.563  1.00  0.00     0.166 HD
ENDROOT
BRANCH   9  14
HETATM   14  C12 UNL     1      32.127   4.520  47.208  1.00  0.00     0.004 A 
HETATM   15  C13 UNL     1      31.476   3.473  46.563  1.00  0.00     0.014 A 
HETATM   16  C14 UNL     1      31.904   2.158  46.587  1.00  0.00     0.001 A 
HETATM   17  C15 UNL     1      33.073   1.893  47.317  1.00  0.00     0.003 A 
HETATM   18  C16 UNL     1      33.724   2.907  47.956  1.00  0.00     0.043 A 
HETATM   19  C17 UNL     1      33.279   4.232  47.922  1.00  0.00     0.126 A 
HETATM   20  F1  UNL     1      33.919   5.256  48.561  1.00  0.00    -0.205 F 
ENDBRANCH   9  14
BRANCH  10  21
HETATM   21  N4  UNL     1      31.311   8.653  47.882  1.00  0.00    -0.158 NA
HETATM   22  H18 UNL     1      30.958   9.637  47.805  1.00  0.00     0.158 HD
BRANCH  21  23
HETATM   23  O1  UNL     1      31.137   8.354  49.211  1.00  0.00    -0.143 OA
BRANCH  23  24
HETATM   24  O2  UNL     1      30.943   9.477  49.884  1.00  0.00    -0.232 OA
HETATM   25  H19 UNL     1      30.197  10.004  49.502  1.00  0.00     0.255 HD
ENDBRANCH  23  24
ENDBRANCH  21  23
ENDBRANCH  10  21
BRANCH   1  26
HETATM   26  N2  UNL     1      25.538   3.457  49.700  1.00  0.00    -0.378 N 
HETATM   27  C3  UNL     1      24.168   3.204  49.340  1.00  0.00     0.142 C 
HETATM   28  C2  UNL     1      23.399   2.470  50.389  1.00  0.00     0.136 C 
HETATM   29  N1  UNL     1      24.059   2.337  51.637  1.00  0.00    -0.414 N 
HETATM   30  C1  UNL     1      23.785   3.368  52.583  1.00  0.00     0.143 C 
HETATM   31  C21 UNL     1      25.394   1.869  51.564  1.00  0.00     0.136 C 
HETATM   32  C20 UNL     1      26.301   2.611  50.610  1.00  0.00     0.142 C 
ENDBRANCH   1  26
TORSDOF 5
ENDMDL
MODEL 9
REMARK VINA RESULT:      -8.2      2.567      4.856
REMARK  5 active torsions:
REMARK  status: ('A' for Active; 'I' for Inactive)
REMARK    1  A    between atoms: N2_5  and  C4_6 
REMARK    2  A    between atoms: C11_14  and  C12_15 
REMARK    3  A    between atoms: C18_22  and  N4_23 
REMARK    4  A    between atoms: N4_23  and  O1_24 
REMARK    5  A    between atoms: O1_24  and  O2_25 
ROOT
HETATM    1  C4  UNL     1      24.420   4.905  49.196  1.00  0.00     0.032 A 
HETATM    2  C5  UNL     1      25.790   4.929  49.061  1.00  0.00     0.032 A 
HETATM    3  C6  UNL     1      26.648   4.074  49.763  1.00  0.00     0.036 A 
HETATM    4  C7  UNL     1      26.115   3.157  50.638  1.00  0.00     0.083 A 
HETATM    5  C8  UNL     1      24.753   3.133  50.771  1.00  0.00     0.063 A 
HETATM    6  C9  UNL     1      23.915   3.977  50.079  1.00  0.00     0.061 A 
HETATM    7  N3  UNL     1      24.015   2.257  51.600  1.00  0.00    -0.356 N 
HETATM    8  C10 UNL     1      24.441   1.104  52.327  1.00  0.00     0.035 C 
HETATM    9  C11 UNL     1      23.475   0.284  52.682  1.00  0.00     0.041 C 
HETATM   10  C18 UNL     1      25.783   0.689  52.726  1.00  0.00     0.176 C 
HETATM   11  C19 UNL     1      26.880   1.393  52.096  1.00  0.00     0.118 C 
HETATM   12  N5  UNL     1      27.110   2.372  51.266  1.00  0.00    -0.261 NA
HETATM   13  H11 UNL     1      23.003   2.450  51.728  1.00  0.00     0.166 HD
ENDROOT
BRANCH   9  14
HETATM   14  C12 UNL     1      22.045   0.216  52.537  1.00  0.00     0.004 A 
HETATM   15  C13 UNL     1      21.277  -0.024  53.672  1.00  0.00     0.014 A 
HETATM   16  C14 UNL     1      19.897  -0.124  53.671  1.00  0.00     0.001 A 
HETATM   17  C15 UNL     1      19.259   0.030  52.430  1.00  0.00     0.003 A 
HETATM   18  C16 UNL     1      19.996   0.265  51.308  1.00  0.00     0.043 A 
HETATM   19  C17 UNL     1      21.390   0.364  51.325  1.00  0.00     0.126 A 
HETATM   20  F1  UNL     1      22.141   0.595  50.207  1.00  0.00    -0.205 F 
ENDBRANCH   9  14
BRANCH  10  21
HETATM   21  N4  UNL     1      25.943   0.788  54.177  1.00  0.00    -0.158 NA
HETATM   22  H18 UNL     1      24.999   0.552  54.568  1.00  0.00     0.158 HD
BRANCH  21  23
HETATM   23  O1  UNL     1      26.732  -0.255  54.593  1.00  0.00    -0.143 OA
BRANCH  23  24
HETATM   24  O2  UNL     1      26.319  -1.369  54.010  1.00  0.00    -0.232 OA
HETATM   25  H19 UNL     1      25.474  -1.226  53.515  1.00  0.00     0.255 HD
ENDBRANCH  23  24
ENDBRANCH  21  23
ENDBRANCH  10  21
BRANCH   1  26
HETATM   26  N2  UNL     1      23.640   5.810  48.423  1.00  0.00    -0.378 N 
HETATM   27  C3  UNL     1      24.232   7.004  47.881  1.00  0.00     0.142 C 
HETATM   28  C2  UNL     1      23.266   8.130  47.715  1.00  0.00     0.136 C 
HETATM   29  N1  UNL     1      21.996   7.927  48.313  1.00  0.00    -0.414 N 
HETATM   30  C1  UNL     1      21.867   8.408  49.648  1.00  0.00     0.143 C 
HETATM   31  C21 UNL     1      21.385   6.684  48.015  1.00  0.00     0.136 C 
HETATM   32  C20 UNL     1      22.236   5.458  48.250  1.00  0.00     0.142 C 
ENDBRANCH   1  26
TORSDOF 5
ENDMDL
