MODEL 1
REMARK VINA RESULT:      -8.5      0.000      0.000
REMARK  7 active torsions:
REMARK  status: ('A' for Active; 'I' for Inactive)
REMARK    1  A    between atoms: C4_5  and  C5_6 
REMARK    2  A    between atoms: C4_5  and  C7_9 
REMARK    3  A    between atoms: C5_6  and  O2_7 
REMARK    4  A    between atoms: C9_11  and  C10_12 
REMARK    5  A    between atoms: N2_19  and  N3_20 
REMARK    6  A    between atoms: C18_24  and  C19_25 
REMARK    7  A    between atoms: C19_25  and  N5_26 
ROOT
HETATM    1  C7  UNL     1      25.503   0.975  52.440  1.00  0.00    -0.001 A 
HETATM    2  C8  UNL     1      24.166   0.431  52.726  1.00  0.00     0.024 A 
HETATM    3  C9  UNL     1      23.093   0.886  52.115  1.00  0.00    -0.027 A 
HETATM    4  C17 UNL     1      23.135   1.960  51.101  1.00  0.00     0.188 A 
HETATM    5  N4  UNL     1      24.436   2.465  50.848  1.00  0.00    -0.287 NA
HETATM    6  C18 UNL     1      25.476   2.020  51.449  1.00  0.00     0.067 A 
ENDROOT
BRANCH   3   7
HETATM    7  C10 UNL     1      21.755   0.374  52.373  1.00  0.00    -0.027 A 
HETATM    8  C11 UNL     1      21.424  -0.339  53.505  1.00  0.00     0.014 A 
HETATM    9  C12 UNL     1      20.189  -0.854  53.815  1.00  0.00     0.035 A 
HETATM   10  C13 UNL     1      19.166  -0.646  52.915  1.00  0.00     0.088 A 
HETATM   11  C14 UNL     1      19.394   0.057  51.750  1.00  0.00     0.014 A 
HETATM   12  N2  UNL     1      17.864  -1.012  52.919  1.00  0.00    -0.180 N 
HETATM   13  C15 UNL     1      18.205   0.106  51.054  1.00  0.00     0.154 A 
HETATM   14  C16 UNL     1      20.687   0.545  51.518  1.00  0.00     0.027 A 
HETATM   15  N1  UNL     1      17.293  -0.563  51.809  1.00  0.00    -0.163 NA
BRANCH  12  16
HETATM   16  N3  UNL     1      17.179  -1.741  53.896  1.00  0.00    -0.322 N 
HETATM   17  H15 UNL     1      16.777  -1.055  54.588  1.00  0.00     0.179 HD
HETATM   18  H16 UNL     1      17.119  -2.796  53.877  1.00  0.00     0.179 HD
ENDBRANCH  12  16
ENDBRANCH   3   7
BRANCH   1  19
HETATM   19  C4  UNL     1      26.455   0.411  53.138  1.00  0.00    -0.015 C 
HETATM   20  C3  UNL     1      27.135  -0.831  52.843  1.00  0.00    -0.042 A 
HETATM   21  C2  UNL     1      27.701  -2.088  52.385  1.00  0.00     0.035 A 
HETATM   22  O1  UNL     1      28.051  -1.288  53.609  1.00  0.00     0.000 OA
HETATM   23  C1  UNL     1      28.740  -2.710  53.274  1.00  0.00     0.010 A 
BRANCH  19  24
HETATM   24  C5  UNL     1      27.062   0.913  54.383  1.00  0.00     0.207 C 
BRANCH  24  25
HETATM   25  O2  UNL     1      27.525   2.233  54.125  1.00  0.00    -0.391 OA
HETATM   26  C6  UNL     1      28.910   2.227  53.979  1.00  0.00     0.201 C 
ENDBRANCH  24  25
ENDBRANCH  19  24
ENDBRANCH   1  19
BRANCH   6  27
HETATM   27  C19 UNL     1      26.759   2.651  51.119  1.00  0.00     0.326 C 
BRANCH  27  28
HETATM   28  N5  UNL     1      26.458   3.944  50.527  1.00  0.00     0.083 N 
HETATM   29  H22 UNL     1      26.925   4.732  51.026  1.00  0.00     0.313 HD
HETATM   30  H23 UNL     1      25.421   4.073  50.564  1.00  0.00     0.313 HD
ENDBRANCH  27  28
ENDBRANCH   6  27
TORSDOF 7
ENDMDL
MODEL 2
REMARK VINA RESULT:      -8.2      4.311      7.527
REMARK  7 active torsions:
REMARK  status: ('A' for Active; 'I' for Inactive)
REMARK    1  A    between atoms: C4_5  and  C5_6 
REMARK    2  A    between atoms: C4_5  and  C7_9 
REMARK    3  A    between atoms: C5_6  and  O2_7 
REMARK    4  A    between atoms: C9_11  and  C10_12 
REMARK    5  A    between atoms: N2_19  and  N3_20 
REMARK    6  A    between atoms: C18_24  and  C19_25 
REMARK    7  A    between atoms: C19_25  and  N5_26 
ROOT
HETATM    1  C7  UNL     1      24.834   4.335  50.518  1.00  0.00    -0.001 A 
HETATM    2  C8  UNL     1      25.759   3.268  50.933  1.00  0.00     0.024 A 
HETATM    3  C9  UNL     1      25.356   2.257  51.672  1.00  0.00    -0.027 A 
HETATM    4  C17 UNL     1      23.962   2.101  52.136  1.00  0.00     0.188 A 
HETATM    5  N4  UNL     1      23.095   3.144  51.722  1.00  0.00    -0.287 NA
HETATM    6  C18 UNL     1      23.494   4.128  51.006  1.00  0.00     0.067 A 
ENDROOT
BRANCH   3   7
HETATM    7  C10 UNL     1      26.242   1.186  52.103  1.00  0.00    -0.027 A 
HETATM    8  C11 UNL     1      25.923  -0.150  51.994  1.00  0.00     0.014 A 
HETATM    9  C12 UNL     1      26.704  -1.212  52.380  1.00  0.00     0.035 A 
HETATM   10  C13 UNL     1      27.934  -0.932  52.933  1.00  0.00     0.088 A 
HETATM   11  C14 UNL     1      28.349   0.375  53.086  1.00  0.00     0.014 A 
HETATM   12  N2  UNL     1      28.920  -1.728  53.406  1.00  0.00    -0.180 N 
HETATM   13  C15 UNL     1      29.602   0.350  53.660  1.00  0.00     0.154 A 
HETATM   14  C16 UNL     1      27.485   1.394  52.664  1.00  0.00     0.027 A 
HETATM   15  N1  UNL     1      29.914  -0.963  53.838  1.00  0.00    -0.163 NA
BRANCH  12  16
HETATM   16  N3  UNL     1      28.946  -3.124  53.458  1.00  0.00    -0.322 N 
HETATM   17  H15 UNL     1      28.001  -3.453  53.789  1.00  0.00     0.179 HD
HETATM   18  H16 UNL     1      29.802  -3.685  53.196  1.00  0.00     0.179 HD
ENDBRANCH  12  16
ENDBRANCH   3   7
BRANCH   1  19
HETATM   19  C4  UNL     1      25.401   5.263  49.791  1.00  0.00    -0.015 C 
HETATM   20  C3  UNL     1      26.702   5.205  49.161  1.00  0.00    -0.042 A 
HETATM   21  C2  UNL     1      28.022   4.964  48.606  1.00  0.00     0.035 A 
HETATM   22  O1  UNL     1      27.154   6.184  48.475  1.00  0.00     0.000 OA
HETATM   23  C1  UNL     1      28.638   6.101  47.842  1.00  0.00     0.010 A 
BRANCH  19  24
HETATM   24  C5  UNL     1      24.844   6.581  49.437  1.00  0.00     0.207 C 
BRANCH  24  25
HETATM   25  O2  UNL     1      24.969   7.414  50.584  1.00  0.00    -0.391 OA
HETATM   26  C6  UNL     1      25.364   8.692  50.198  1.00  0.00     0.201 C 
ENDBRANCH  24  25
ENDBRANCH  19  24
ENDBRANCH   1  19
BRANCH   6  27
HETATM   27  C19 UNL     1      22.504   5.158  50.673  1.00  0.00     0.326 C 
BRANCH  27  28
HETATM   28  N5  UNL     1      22.324   5.975  51.861  1.00  0.00     0.083 N 
HETATM   29  H22 UNL     1      21.323   6.064  52.140  1.00  0.00     0.313 HD
HETATM   30  H23 UNL     1      22.715   6.923  51.654  1.00  0.00     0.313 HD
ENDBRANCH  27  28
ENDBRANCH   6  27
TORSDOF 7
ENDMDL
MODEL 3
REMARK VINA RESULT:      -8.1      3.878      7.754
REMARK  7 active torsions:
REMARK  status: ('A' for Active; 'I' for Inactive)
REMARK    1  A    between atoms: C4_5  and  C5_6 
REMARK    2  A    between atoms: C4_5  and  C7_9 
REMARK    3  A    between atoms: C5_6  and  O2_7 
REMARK    4  A    between atoms: C9_11  and  C10_12 
REMARK    5  A    between atoms: N2_19  and  N3_20 
REMARK    6  A    between atoms: C18_24  and  C19_25 
REMARK    7  A    between atoms: C19_25  and  N5_26 
ROOT
HETATM    1  C7  UNL     1      22.207   2.020  51.562  1.00  0.00    -0.001 A 
HETATM    2  C8  UNL     1      23.364   1.142  51.802  1.00  0.00     0.024 A 
HETATM    3  C9  UNL     1      24.441   1.577  52.420  1.00  0.00    -0.027 A 
HETATM    4  C17 UNL     1      24.580   2.959  52.924  1.00  0.00     0.188 A 
HETATM    5  N4  UNL     1      23.451   3.780  52.678  1.00  0.00    -0.287 NA
HETATM    6  C18 UNL     1      22.407   3.352  52.073  1.00  0.00     0.067 A 
ENDROOT
BRANCH   3   7
HETATM    7  C10 UNL     1      25.604   0.739  52.672  1.00  0.00    -0.027 A 
HETATM    8  C11 UNL     1      25.573  -0.637  52.609  1.00  0.00     0.014 A 
HETATM    9  C12 UNL     1      26.625  -1.491  52.835  1.00  0.00     0.035 A 
HETATM   10  C13 UNL     1      27.842  -0.932  53.160  1.00  0.00     0.088 A 
HETATM   11  C14 UNL     1      27.979   0.438  53.249  1.00  0.00     0.014 A 
HETATM   12  N2  UNL     1      29.047  -1.479  53.438  1.00  0.00    -0.180 N 
HETATM   13  C15 UNL     1      29.288   0.704  53.587  1.00  0.00     0.154 A 
HETATM   14  C16 UNL     1      26.850   1.231  53.001  1.00  0.00     0.027 A 
HETATM   15  N1  UNL     1      29.908  -0.502  53.692  1.00  0.00    -0.163 NA
BRANCH  12  16
HETATM   16  N3  UNL     1      29.389  -2.834  53.470  1.00  0.00    -0.322 N 
HETATM   17  H15 UNL     1      29.065  -3.270  52.568  1.00  0.00     0.179 HD
HETATM   18  H16 UNL     1      29.887  -3.273  54.292  1.00  0.00     0.179 HD
ENDBRANCH  12  16
ENDBRANCH   3   7
BRANCH   1  19
HETATM   19  C4  UNL     1      21.225   1.427  50.934  1.00  0.00    -0.015 C 
HETATM   20  C3  UNL     1      20.053   0.817  51.522  1.00  0.00    -0.042 A 
HETATM   21  C2  UNL     1      18.952   0.261  52.289  1.00  0.00     0.035 A 
HETATM   22  O1  UNL     1      19.158   0.259  50.801  1.00  0.00     0.000 OA
HETATM   23  C1  UNL     1      17.897  -0.464  51.505  1.00  0.00     0.010 A 
BRANCH  19  24
HETATM   24  C5  UNL     1      21.079   1.249  49.478  1.00  0.00     0.207 C 
BRANCH  24  25
HETATM   25  O2  UNL     1      21.116   2.543  48.888  1.00  0.00    -0.391 OA
HETATM   26  C6  UNL     1      20.041   2.695  48.016  1.00  0.00     0.201 C 
ENDBRANCH  24  25
ENDBRANCH  19  24
ENDBRANCH   1  19
BRANCH   6  27
HETATM   27  C19 UNL     1      21.321   4.313  51.852  1.00  0.00     0.326 C 
BRANCH  27  28
HETATM   28  N5  UNL     1      21.603   4.993  50.599  1.00  0.00     0.083 N 
HETATM   29  H22 UNL     1      22.617   4.979  50.354  1.00  0.00     0.313 HD
HETATM   30  H23 UNL     1      21.280   5.983  50.697  1.00  0.00     0.313 HD
ENDBRANCH  27  28
ENDBRANCH   6  27
TORSDOF 7
ENDMDL
MODEL 4
REMARK VINA RESULT:      -8.0      3.364      7.923
REMARK  7 active torsions:
REMARK  status: ('A' for Active; 'I' for Inactive)
REMARK    1  A    between atoms: C4_5  and  C5_6 
REMARK    2  A    between atoms: C4_5  and  C7_9 
REMARK    3  A    between atoms: C5_6  and  O2_7 
REMARK    4  A    between atoms: C9_11  and  C10_12 
REMARK    5  A    between atoms: N2_19  and  N3_20 
REMARK    6  A    between atoms: C18_24  and  C19_25 
REMARK    7  A    between atoms: C19_25  and  N5_26 
ROOT
HETATM    1  C7  UNL     1      21.360   0.641  52.272  1.00  0.00    -0.001 A 
HETATM    2  C8  UNL     1      22.825   0.782  52.315  1.00  0.00     0.024 A 
HETATM    3  C9  UNL     1      23.563   0.049  53.120  1.00  0.00    -0.027 A 
HETATM    4  C17 UNL     1      22.998  -0.968  54.032  1.00  0.00     0.188 A 
HETATM    5  N4  UNL     1      21.586  -1.080  53.969  1.00  0.00    -0.287 NA
HETATM    6  C18 UNL     1      20.872  -0.361  53.185  1.00  0.00     0.067 A 
ENDROOT
BRANCH   3   7
HETATM    7  C10 UNL     1      25.012   0.162  53.192  1.00  0.00    -0.027 A 
HETATM    8  C11 UNL     1      25.860  -0.921  53.121  1.00  0.00     0.014 A 
HETATM    9  C12 UNL     1      27.232  -0.892  53.184  1.00  0.00     0.035 A 
HETATM   10  C13 UNL     1      27.838   0.336  53.332  1.00  0.00     0.088 A 
HETATM   11  C14 UNL     1      27.078   1.484  53.413  1.00  0.00     0.014 A 
HETATM   12  N2  UNL     1      29.137   0.702  53.426  1.00  0.00    -0.180 N 
HETATM   13  C15 UNL     1      27.943   2.547  53.558  1.00  0.00     0.154 A 
HETATM   14  C16 UNL     1      25.684   1.358  53.340  1.00  0.00     0.027 A 
HETATM   15  N1  UNL     1      29.198   2.021  53.560  1.00  0.00    -0.163 NA
BRANCH  12  16
HETATM   16  N3  UNL     1      30.266  -0.120  53.395  1.00  0.00    -0.322 N 
HETATM   17  H15 UNL     1      30.817   0.053  54.276  1.00  0.00     0.179 HD
HETATM   18  H16 UNL     1      30.466  -0.778  52.592  1.00  0.00     0.179 HD
ENDBRANCH  12  16
ENDBRANCH   3   7
BRANCH   1  19
HETATM   19  C4  UNL     1      20.784   1.448  51.419  1.00  0.00    -0.015 C 
HETATM   20  C3  UNL     1      21.005   1.513  49.991  1.00  0.00    -0.042 A 
HETATM   21  C2  UNL     1      21.357   1.428  48.584  1.00  0.00     0.035 A 
HETATM   22  O1  UNL     1      20.383   2.354  49.257  1.00  0.00     0.000 OA
HETATM   23  C1  UNL     1      20.707   2.432  47.677  1.00  0.00     0.010 A 
BRANCH  19  24
HETATM   24  C5  UNL     1      19.769   2.476  51.712  1.00  0.00     0.207 C 
BRANCH  24  25
HETATM   25  O2  UNL     1      20.292   3.303  52.745  1.00  0.00    -0.391 OA
HETATM   26  C6  UNL     1      21.147   4.256  52.200  1.00  0.00     0.201 C 
ENDBRANCH  24  25
ENDBRANCH  19  24
ENDBRANCH   1  19
BRANCH   6  27
HETATM   27  C19 UNL     1      19.419  -0.552  53.240  1.00  0.00     0.326 C 
BRANCH  27  28
HETATM   28  N5  UNL     1      19.179  -1.768  54.000  1.00  0.00     0.083 N 
HETATM   29  H22 UNL     1      18.206  -2.127  53.886  1.00  0.00     0.313 HD
HETATM   30  H23 UNL     1      19.355  -1.550  55.007  1.00  0.00     0.313 HD
ENDBRANCH  27  28
ENDBRANCH   6  27
TORSDOF 7
ENDMDL
MODEL 5
REMARK VINA RESULT:      -8.0      4.153      6.549
REMARK  7 active torsions:
REMARK  status: ('A' for Active; 'I' for Inactive)
REMARK    1  A    between atoms: C4_5  and  C5_6 
REMARK    2  A    between atoms: C4_5  and  C7_9 
REMARK    3  A    between atoms: C5_6  and  O2_7 
REMARK    4  A    between atoms: C9_11  and  C10_12 
REMARK    5  A    between atoms: N2_19  and  N3_20 
REMARK    6  A    between atoms: C18_24  and  C19_25 
REMARK    7  A    between atoms: C19_25  and  N5_26 
ROOT
HETATM    1  C7  UNL     1      24.212   4.298  49.233  1.00  0.00    -0.001 A 
HETATM    2  C8  UNL     1      24.589   3.461  50.383  1.00  0.00     0.024 A 
HETATM    3  C9  UNL     1      23.865   2.423  50.745  1.00  0.00    -0.027 A 
HETATM    4  C17 UNL     1      22.635   2.011  50.037  1.00  0.00     0.188 A 
HETATM    5  N4  UNL     1      22.298   2.837  48.935  1.00  0.00    -0.287 NA
HETATM    6  C18 UNL     1      23.004   3.848  48.591  1.00  0.00     0.067 A 
ENDROOT
BRANCH   3   7
HETATM    7  C10 UNL     1      24.205   1.574  51.877  1.00  0.00    -0.027 A 
HETATM    8  C11 UNL     1      23.304   0.727  52.484  1.00  0.00     0.014 A 
HETATM    9  C12 UNL     1      23.550  -0.099  53.553  1.00  0.00     0.035 A 
HETATM   10  C13 UNL     1      24.821  -0.093  54.086  1.00  0.00     0.088 A 
HETATM   11  C14 UNL     1      25.798   0.721  53.550  1.00  0.00     0.014 A 
HETATM   12  N2  UNL     1      25.378  -0.771  55.115  1.00  0.00    -0.180 N 
HETATM   13  C15 UNL     1      26.952   0.520  54.276  1.00  0.00     0.154 A 
HETATM   14  C16 UNL     1      25.455   1.530  52.458  1.00  0.00     0.027 A 
HETATM   15  N1  UNL     1      26.648  -0.404  55.227  1.00  0.00    -0.163 NA
BRANCH  12  16
HETATM   16  N3  UNL     1      24.771  -1.708  55.955  1.00  0.00    -0.322 N 
HETATM   17  H15 UNL     1      24.490  -2.536  55.366  1.00  0.00     0.179 HD
HETATM   18  H16 UNL     1      24.651  -1.545  56.992  1.00  0.00     0.179 HD
ENDBRANCH  12  16
ENDBRANCH   3   7
BRANCH   1  19
HETATM   19  C4  UNL     1      25.041   5.288  49.017  1.00  0.00    -0.015 C 
HETATM   20  C3  UNL     1      26.462   5.198  48.764  1.00  0.00    -0.042 A 
HETATM   21  C2  UNL     1      27.866   4.910  48.527  1.00  0.00     0.035 A 
HETATM   22  O1  UNL     1      27.172   6.243  48.572  1.00  0.00     0.000 OA
HETATM   23  C1  UNL     1      28.766   6.099  48.356  1.00  0.00     0.010 A 
BRANCH  19  24
HETATM   24  C5  UNL     1      24.717   6.725  48.971  1.00  0.00     0.207 C 
BRANCH  24  25
HETATM   25  O2  UNL     1      23.654   6.948  49.889  1.00  0.00    -0.391 OA
HETATM   26  C6  UNL     1      23.935   8.062  50.676  1.00  0.00     0.201 C 
ENDBRANCH  24  25
ENDBRANCH  19  24
ENDBRANCH   1  19
BRANCH   6  27
HETATM   27  C19 UNL     1      22.528   4.640  47.452  1.00  0.00     0.326 C 
BRANCH  27  28
HETATM   28  N5  UNL     1      21.487   5.522  47.954  1.00  0.00     0.083 N 
HETATM   29  H22 UNL     1      21.008   5.138  48.797  1.00  0.00     0.313 HD
HETATM   30  H23 UNL     1      20.790   5.656  47.186  1.00  0.00     0.313 HD
ENDBRANCH  27  28
ENDBRANCH   6  27
TORSDOF 7
ENDMDL
MODEL 6
REMARK VINA RESULT:      -8.0      2.687      4.083
REMARK  7 active torsions:
REMARK  status: ('A' for Active; 'I' for Inactive)
REMARK    1  A    between atoms: C4_5  and  C5_6 
REMARK    2  A    between atoms: C4_5  and  C7_9 
REMARK    3  A    between atoms: C5_6  and  O2_7 
REMARK    4  A    between atoms: C9_11  and  C10_12 
REMARK    5  A    between atoms: N2_19  and  N3_20 
REMARK    6  A    between atoms: C18_24  and  C19_25 
REMARK    7  A    between atoms: C19_25  and  N5_26 
ROOT
HETATM    1  C7  UNL     1      24.992   2.405  52.078  1.00  0.00    -0.001 A 
HETATM    2  C8  UNL     1      23.648   1.821  52.220  1.00  0.00     0.024 A 
HETATM    3  C9  UNL     1      23.452   0.701  52.881  1.00  0.00    -0.027 A 
HETATM    4  C17 UNL     1      24.542  -0.054  53.533  1.00  0.00     0.188 A 
HETATM    5  N4  UNL     1      25.823   0.531  53.378  1.00  0.00    -0.287 NA
HETATM    6  C18 UNL     1      26.009   1.620  52.730  1.00  0.00     0.067 A 
ENDROOT
BRANCH   3   7
HETATM    7  C10 UNL     1      22.139   0.093  53.040  1.00  0.00    -0.027 A 
HETATM    8  C11 UNL     1      21.871  -0.901  53.955  1.00  0.00     0.014 A 
HETATM    9  C12 UNL     1      20.663  -1.521  54.160  1.00  0.00     0.035 A 
HETATM   10  C13 UNL     1      19.600  -1.122  53.380  1.00  0.00     0.088 A 
HETATM   11  C14 UNL     1      19.763  -0.132  52.433  1.00  0.00     0.014 A 
HETATM   12  N2  UNL     1      18.308  -1.521  53.331  1.00  0.00    -0.180 N 
HETATM   13  C15 UNL     1      18.546   0.056  51.813  1.00  0.00     0.154 A 
HETATM   14  C16 UNL     1      21.033   0.445  52.294  1.00  0.00     0.027 A 
HETATM   15  N1  UNL     1      17.682  -0.818  52.396  1.00  0.00    -0.163 NA
BRANCH  12  16
HETATM   16  N3  UNL     1      17.683  -2.502  54.104  1.00  0.00    -0.322 N 
HETATM   17  H15 UNL     1      18.430  -3.140  54.485  1.00  0.00     0.179 HD
HETATM   18  H16 UNL     1      16.635  -2.534  54.240  1.00  0.00     0.179 HD
ENDBRANCH  12  16
ENDBRANCH   3   7
BRANCH   1  19
HETATM   19  C4  UNL     1      25.006   3.517  51.389  1.00  0.00    -0.015 C 
HETATM   20  C3  UNL     1      25.930   3.882  50.338  1.00  0.00    -0.042 A 
HETATM   21  C2  UNL     1      26.943   4.070  49.313  1.00  0.00     0.035 A 
HETATM   22  O1  UNL     1      25.847   5.007  49.737  1.00  0.00     0.000 OA
HETATM   23  C1  UNL     1      26.939   5.398  48.613  1.00  0.00     0.010 A 
BRANCH  19  24
HETATM   24  C5  UNL     1      24.078   4.655  51.517  1.00  0.00     0.207 C 
BRANCH  24  25
HETATM   25  O2  UNL     1      22.985   4.409  50.640  1.00  0.00    -0.391 OA
HETATM   26  C6  UNL     1      21.815   4.927  51.189  1.00  0.00     0.201 C 
ENDBRANCH  24  25
ENDBRANCH  19  24
ENDBRANCH   1  19
BRANCH   6  27
HETATM   27  C19 UNL     1      27.390   2.104  52.616  1.00  0.00     0.326 C 
BRANCH  27  28
HETATM   28  N5  UNL     1      27.771   2.612  53.924  1.00  0.00     0.083 N 
HETATM   29  H22 UNL     1      28.760   2.388  54.168  1.00  0.00     0.313 HD
HETATM   30  H23 UNL     1      27.130   2.181  54.629  1.00  0.00     0.313 HD
ENDBRANCH  27  28
ENDBRANCH   6  27
TORSDOF 7
ENDMDL
MODEL 7
REMARK VINA RESULT:      -8.0      3.930      5.926
REMARK  7 active torsions:
REMARK  status: ('A' for Active; 'I' for Inactive)
REMARK    1  A    between atoms: C4_5  and  C5_6 
REMARK    2  A    between atoms: C4_5  and  C7_9 
REMARK    3  A    between atoms: C5_6  and  O2_7 
REMARK    4  A    between atoms: C9_11  and  C10_12 
REMARK    5  A    between atoms: N2_19  and  N3_20 
REMARK    6  A    between atoms: C18_24  and  C19_25 
REMARK    7  A    between atoms: C19_25  and  N5_26 
ROOT
HETATM    1  C7  UNL     1      23.964   4.057  49.419  1.00  0.00    -0.001 A 
HETATM    2  C8  UNL     1      24.190   3.196  50.592  1.00  0.00     0.024 A 
HETATM    3  C9  UNL     1      23.414   2.166  50.848  1.00  0.00    -0.027 A 
HETATM    4  C17 UNL     1      22.271   1.784  49.993  1.00  0.00     0.188 A 
HETATM    5  N4  UNL     1      22.078   2.631  48.873  1.00  0.00    -0.287 NA
HETATM    6  C18 UNL     1      22.835   3.635  48.631  1.00  0.00     0.067 A 
ENDROOT
BRANCH   3   7
HETATM    7  C10 UNL     1      23.605   1.294  51.998  1.00  0.00    -0.027 A 
HETATM    8  C11 UNL     1      24.836   1.052  52.567  1.00  0.00     0.014 A 
HETATM    9  C12 UNL     1      25.093   0.244  53.648  1.00  0.00     0.035 A 
HETATM   10  C13 UNL     1      24.024  -0.398  54.234  1.00  0.00     0.088 A 
HETATM   11  C14 UNL     1      22.748  -0.222  53.739  1.00  0.00     0.014 A 
HETATM   12  N2  UNL     1      23.938  -1.243  55.287  1.00  0.00    -0.180 N 
HETATM   13  C15 UNL     1      21.893  -0.977  54.513  1.00  0.00     0.154 A 
HETATM   14  C16 UNL     1      22.581   0.622  52.633  1.00  0.00     0.027 A 
HETATM   15  N1  UNL     1      22.667  -1.587  55.452  1.00  0.00    -0.163 NA
BRANCH  12  16
HETATM   16  N3  UNL     1      24.973  -1.711  56.099  1.00  0.00    -0.322 N 
HETATM   17  H15 UNL     1      25.712  -0.961  56.146  1.00  0.00     0.179 HD
HETATM   18  H16 UNL     1      24.949  -2.665  56.554  1.00  0.00     0.179 HD
ENDBRANCH  12  16
ENDBRANCH   3   7
BRANCH   1  19
HETATM   19  C4  UNL     1      24.827   5.036  49.319  1.00  0.00    -0.015 C 
HETATM   20  C3  UNL     1      26.225   4.935  48.964  1.00  0.00    -0.042 A 
HETATM   21  C2  UNL     1      27.597   4.638  48.592  1.00  0.00     0.035 A 
HETATM   22  O1  UNL     1      26.974   5.969  48.904  1.00  0.00     0.000 OA
HETATM   23  C1  UNL     1      28.544   5.803  48.565  1.00  0.00     0.010 A 
BRANCH  19  24
HETATM   24  C5  UNL     1      24.572   6.472  49.535  1.00  0.00     0.207 C 
BRANCH  24  25
HETATM   25  O2  UNL     1      23.301   6.585  50.163  1.00  0.00    -0.391 OA
HETATM   26  C6  UNL     1      23.008   7.926  50.398  1.00  0.00     0.201 C 
ENDBRANCH  24  25
ENDBRANCH  19  24
ENDBRANCH   1  19
BRANCH   6  27
HETATM   27  C19 UNL     1      22.508   4.452  47.457  1.00  0.00     0.326 C 
BRANCH  27  28
HETATM   28  N5  UNL     1      21.509   5.420  47.878  1.00  0.00     0.083 N 
HETATM   29  H22 UNL     1      21.273   6.105  47.127  1.00  0.00     0.313 HD
HETATM   30  H23 UNL     1      21.893   5.929  48.707  1.00  0.00     0.313 HD
ENDBRANCH  27  28
ENDBRANCH   6  27
TORSDOF 7
ENDMDL
MODEL 8
REMARK VINA RESULT:      -7.9      4.238      7.841
REMARK  7 active torsions:
REMARK  status: ('A' for Active; 'I' for Inactive)
REMARK    1  A    between atoms: C4_5  and  C5_6 
REMARK    2  A    between atoms: C4_5  and  C7_9 
REMARK    3  A    between atoms: C5_6  and  O2_7 
REMARK    4  A    between atoms: C9_11  and  C10_12 
REMARK    5  A    between atoms: N2_19  and  N3_20 
REMARK    6  A    between atoms: C18_24  and  C19_25 
REMARK    7  A    between atoms: C19_25  and  N5_26 
ROOT
HETATM    1  C7  UNL     1      23.140   2.977  50.794  1.00  0.00    -0.001 A 
HETATM    2  C8  UNL     1      24.165   1.956  51.063  1.00  0.00     0.024 A 
HETATM    3  C9  UNL     1      24.837   1.937  52.195  1.00  0.00    -0.027 A 
HETATM    4  C17 UNL     1      24.620   2.918  53.278  1.00  0.00     0.188 A 
HETATM    5  N4  UNL     1      23.628   3.889  52.989  1.00  0.00    -0.287 NA
HETATM    6  C18 UNL     1      22.981   3.904  51.884  1.00  0.00     0.067 A 
ENDROOT
BRANCH   3   7
HETATM    7  C10 UNL     1      25.858   0.945  52.495  1.00  0.00    -0.027 A 
HETATM    8  C11 UNL     1      25.650  -0.412  52.386  1.00  0.00     0.014 A 
HETATM    9  C12 UNL     1      26.561  -1.404  52.654  1.00  0.00     0.035 A 
HETATM   10  C13 UNL     1      27.816  -1.022  53.075  1.00  0.00     0.088 A 
HETATM   11  C14 UNL     1      28.127   0.315  53.216  1.00  0.00     0.014 A 
HETATM   12  N2  UNL     1      28.917  -1.731  53.413  1.00  0.00    -0.180 N 
HETATM   13  C15 UNL     1      29.434   0.396  53.647  1.00  0.00     0.154 A 
HETATM   14  C16 UNL     1      27.133   1.258  52.920  1.00  0.00     0.027 A 
HETATM   15  N1  UNL     1      29.880  -0.885  53.754  1.00  0.00    -0.163 NA
BRANCH  12  16
HETATM   16  N3  UNL     1      29.074  -3.120  53.424  1.00  0.00    -0.322 N 
HETATM   17  H15 UNL     1      30.090  -3.332  53.244  1.00  0.00     0.179 HD
HETATM   18  H16 UNL     1      28.265  -3.780  53.591  1.00  0.00     0.179 HD
ENDBRANCH  12  16
ENDBRANCH   3   7
BRANCH   1  19
HETATM   19  C4  UNL     1      22.574   2.849  49.621  1.00  0.00    -0.015 C 
HETATM   20  C3  UNL     1      22.564   3.816  48.545  1.00  0.00    -0.042 A 
HETATM   21  C2  UNL     1      22.662   4.903  47.587  1.00  0.00     0.035 A 
HETATM   22  O1  UNL     1      21.968   3.578  47.440  1.00  0.00     0.000 OA
HETATM   23  C1  UNL     1      21.929   4.712  46.291  1.00  0.00     0.010 A 
BRANCH  19  24
HETATM   24  C5  UNL     1      21.822   1.685  49.118  1.00  0.00     0.207 C 
BRANCH  24  25
HETATM   25  O2  UNL     1      20.811   1.391  50.075  1.00  0.00    -0.391 OA
HETATM   26  C6  UNL     1      19.566   1.769  49.579  1.00  0.00     0.201 C 
ENDBRANCH  24  25
ENDBRANCH  19  24
ENDBRANCH   1  19
BRANCH   6  27
HETATM   27  C19 UNL     1      22.003   4.982  51.696  1.00  0.00     0.326 C 
BRANCH  27  28
HETATM   28  N5  UNL     1      22.750   6.227  51.634  1.00  0.00     0.083 N 
HETATM   29  H22 UNL     1      22.723   6.756  52.533  1.00  0.00     0.313 HD
HETATM   30  H23 UNL     1      22.332   6.809  50.873  1.00  0.00     0.313 HD
ENDBRANCH  27  28
ENDBRANCH   6  27
TORSDOF 7
ENDMDL
MODEL 9
REMARK VINA RESULT:      -7.8      2.702      7.030
REMARK  7 active torsions:
REMARK  status: ('A' for Active; 'I' for Inactive)
REMARK    1  A    between atoms: C4_5  and  C5_6 
REMARK    2  A    between atoms: C4_5  and  C7_9 
REMARK    3  A    between atoms: C5_6  and  O2_7 
REMARK    4  A    between atoms: C9_11  and  C10_12 
REMARK    5  A    between atoms: N2_19  and  N3_20 
REMARK    6  A    between atoms: C18_24  and  C19_25 
REMARK    7  A    between atoms: C19_25  and  N5_26 
ROOT
HETATM    1  C7  UNL     1      25.302   1.008  52.477  1.00  0.00    -0.001 A 
HETATM    2  C8  UNL     1      25.826   2.113  51.657  1.00  0.00     0.024 A 
HETATM    3  C9  UNL     1      25.031   2.861  50.923  1.00  0.00    -0.027 A 
HETATM    4  C17 UNL     1      23.567   2.666  50.861  1.00  0.00     0.188 A 
HETATM    5  N4  UNL     1      23.093   1.594  51.660  1.00  0.00    -0.287 NA
HETATM    6  C18 UNL     1      23.873   0.867  52.370  1.00  0.00     0.067 A 
ENDROOT
BRANCH   3   7
HETATM    7  C10 UNL     1      25.512   3.960  50.099  1.00  0.00    -0.027 A 
HETATM    8  C11 UNL     1      24.709   4.996  49.676  1.00  0.00     0.014 A 
HETATM    9  C12 UNL     1      25.091   6.062  48.898  1.00  0.00     0.035 A 
HETATM   10  C13 UNL     1      26.405   6.116  48.489  1.00  0.00     0.088 A 
HETATM   11  C14 UNL     1      27.292   5.126  48.859  1.00  0.00     0.014 A 
HETATM   12  N2  UNL     1      27.086   7.008  47.734  1.00  0.00    -0.180 N 
HETATM   13  C15 UNL     1      28.518   5.439  48.312  1.00  0.00     0.154 A 
HETATM   14  C16 UNL     1      26.813   4.076  49.655  1.00  0.00     0.027 A 
HETATM   15  N1  UNL     1      28.345   6.603  47.630  1.00  0.00    -0.163 NA
BRANCH  12  16
HETATM   16  N3  UNL     1      26.602   8.175  47.138  1.00  0.00    -0.322 N 
HETATM   17  H15 UNL     1      26.905   8.992  47.731  1.00  0.00     0.179 HD
HETATM   18  H16 UNL     1      26.036   8.162  46.245  1.00  0.00     0.179 HD
ENDBRANCH  12  16
ENDBRANCH   3   7
BRANCH   1  19
HETATM   19  C4  UNL     1      26.230   0.368  53.141  1.00  0.00    -0.015 C 
HETATM   20  C3  UNL     1      26.851  -0.889  52.783  1.00  0.00    -0.042 A 
HETATM   21  C2  UNL     1      27.356  -2.148  52.263  1.00  0.00     0.035 A 
HETATM   22  O1  UNL     1      27.748  -1.423  53.520  1.00  0.00     0.000 OA
HETATM   23  C1  UNL     1      28.368  -2.858  53.114  1.00  0.00     0.010 A 
BRANCH  19  24
HETATM   24  C5  UNL     1      26.867   0.782  54.404  1.00  0.00     0.207 C 
BRANCH  24  25
HETATM   25  O2  UNL     1      27.359   2.103  54.216  1.00  0.00    -0.391 OA
HETATM   26  C6  UNL     1      28.712   2.060  53.887  1.00  0.00     0.201 C 
ENDBRANCH  24  25
ENDBRANCH  19  24
ENDBRANCH   1  19
BRANCH   6  27
HETATM   27  C19 UNL     1      23.259  -0.231  53.126  1.00  0.00     0.326 C 
BRANCH  27  28
HETATM   28  N5  UNL     1      22.030   0.286  53.703  1.00  0.00     0.083 N 
HETATM   29  H22 UNL     1      21.941   1.321  53.598  1.00  0.00     0.313 HD
HETATM   30  H23 UNL     1      22.028   0.036  54.718  1.00  0.00     0.313 HD
ENDBRANCH  27  28
ENDBRANCH   6  27
TORSDOF 7
ENDMDL
