MODEL 1
REMARK VINA RESULT:      -9.5      0.000      0.000
REMARK  6 active torsions:
REMARK  status: ('A' for Active; 'I' for Inactive)
REMARK    1  A    between atoms: C1_2  and  C2_3 
REMARK       I    between atoms: C1_2  and  N2_13 
REMARK    2  A    between atoms: C3_4  and  C4_5 
REMARK    3  A    between atoms: C4_5  and  C5_6 
REMARK    4  A    between atoms: C5_6  and  N1_7 
REMARK    5  A    between atoms: N2_13  and  C10_14 
REMARK    6  A    between atoms: C15_21  and  C16_22 
ROOT
HETATM    1  C10 UNL     1      25.964   2.972  50.425  1.00  0.00     0.036 A 
HETATM    2  C11 UNL     1      24.614   3.171  50.200  1.00  0.00     0.032 A 
HETATM    3  C12 UNL     1      23.640   2.413  50.855  1.00  0.00     0.035 A 
HETATM    4  C13 UNL     1      24.134   1.469  51.726  1.00  0.00     0.070 A 
HETATM    5  N3  UNL     1      23.217   0.722  52.372  1.00  0.00    -0.241 NA
HETATM    6  C14 UNL     1      23.616  -0.224  53.242  1.00  0.00     0.234 A 
HETATM    7  N4  UNL     1      24.906  -0.456  53.495  1.00  0.00    -0.240 NA
HETATM    8  C15 UNL     1      25.855   0.245  52.893  1.00  0.00     0.082 A 
HETATM    9  C21 UNL     1      25.462   1.218  51.998  1.00  0.00     0.025 A 
HETATM   10  C22 UNL     1      26.385   1.996  51.324  1.00  0.00     0.045 A 
ENDROOT
BRANCH   1  11
HETATM   11  N2  UNL     1      26.916   3.770  49.733  1.00  0.00    -0.316 N 
HETATM   12  C1  UNL     1      27.051   4.945  48.947  1.00  0.00     0.300 C 
HETATM   13  O1  UNL     1      26.076   5.687  48.647  1.00  0.00    -0.258 OA
HETATM   14  H13 UNL     1      27.748   3.154  49.975  1.00  0.00     0.170 HD
BRANCH  12  15
HETATM   15  C2  UNL     1      28.386   5.245  48.506  1.00  0.00    -0.005 C 
HETATM   16  C3  UNL     1      29.518   5.506  48.111  1.00  0.00    -0.095 C 
BRANCH  16  17
HETATM   17  C4  UNL     1      30.866   5.817  47.612  1.00  0.00     0.114 C 
BRANCH  17  18
HETATM   18  C5  UNL     1      31.850   4.811  48.169  1.00  0.00     0.129 C 
BRANCH  18  19
HETATM   19  N1  UNL     1      32.296   3.861  47.216  1.00  0.00    -0.408 N 
HETATM   20  C6  UNL     1      33.140   2.813  47.707  1.00  0.00     0.143 C 
HETATM   21  C7  UNL     1      34.551   3.347  47.814  1.00  0.00     0.187 C 
HETATM   22  O2  UNL     1      34.656   4.677  47.425  1.00  0.00    -0.388 OA
HETATM   23  C8  UNL     1      34.169   4.886  46.141  1.00  0.00     0.187 C 
HETATM   24  C9  UNL     1      32.755   4.370  45.969  1.00  0.00     0.143 C 
ENDBRANCH  18  19
ENDBRANCH  17  18
ENDBRANCH  16  17
ENDBRANCH  12  15
ENDBRANCH   1  11
BRANCH   8  25
HETATM   25  C16 UNL     1      27.265   0.067  53.102  1.00  0.00     0.008 A 
HETATM   26  C17 UNL     1      27.548  -1.223  53.032  1.00  0.00    -0.009 A 
HETATM   27  C18 UNL     1      28.840  -1.474  53.145  1.00  0.00     0.055 A 
HETATM   28  C19 UNL     1      29.474  -0.180  53.389  1.00  0.00     0.118 A 
HETATM   29  F1  UNL     1      30.727   0.294  53.624  1.00  0.00    -0.206 F 
HETATM   30  C20 UNL     1      28.533   0.776  53.368  1.00  0.00     0.057 A 
ENDBRANCH   8  25
TORSDOF 6
ENDMDL
MODEL 2
REMARK VINA RESULT:      -9.3      2.340      2.867
REMARK  6 active torsions:
REMARK  status: ('A' for Active; 'I' for Inactive)
REMARK    1  A    between atoms: C1_2  and  C2_3 
REMARK       I    between atoms: C1_2  and  N2_13 
REMARK    2  A    between atoms: C3_4  and  C4_5 
REMARK    3  A    between atoms: C4_5  and  C5_6 
REMARK    4  A    between atoms: C5_6  and  N1_7 
REMARK    5  A    between atoms: N2_13  and  C10_14 
REMARK    6  A    between atoms: C15_21  and  C16_22 
ROOT
HETATM    1  C10 UNL     1      24.905   2.444  51.282  1.00  0.00     0.036 A 
HETATM    2  C11 UNL     1      23.531   2.597  51.265  1.00  0.00     0.032 A 
HETATM    3  C12 UNL     1      22.694   1.816  52.065  1.00  0.00     0.035 A 
HETATM    4  C13 UNL     1      23.346   0.899  52.857  1.00  0.00     0.070 A 
HETATM    5  N3  UNL     1      22.564   0.130  53.640  1.00  0.00    -0.241 NA
HETATM    6  C14 UNL     1      23.123  -0.792  54.445  1.00  0.00     0.234 A 
HETATM    7  N4  UNL     1      24.442  -0.980  54.499  1.00  0.00    -0.240 NA
HETATM    8  C15 UNL     1      25.265  -0.257  53.755  1.00  0.00     0.082 A 
HETATM    9  C21 UNL     1      24.708   0.693  52.925  1.00  0.00     0.025 A 
HETATM   10  C22 UNL     1      25.491   1.492  52.112  1.00  0.00     0.045 A 
ENDROOT
BRANCH   1  11
HETATM   11  N2  UNL     1      25.714   3.263  50.447  1.00  0.00    -0.316 N 
HETATM   12  C1  UNL     1      25.652   4.272  49.449  1.00  0.00     0.300 C 
HETATM   13  O1  UNL     1      24.566   4.743  49.014  1.00  0.00    -0.258 OA
HETATM   14  H13 UNL     1      26.638   2.876  50.802  1.00  0.00     0.170 HD
BRANCH  12  15
HETATM   15  C2  UNL     1      26.921   4.733  48.955  1.00  0.00    -0.005 C 
HETATM   16  C3  UNL     1      28.012   5.124  48.552  1.00  0.00    -0.095 C 
BRANCH  16  17
HETATM   17  C4  UNL     1      29.327   5.599  48.094  1.00  0.00     0.114 C 
BRANCH  17  18
HETATM   18  C5  UNL     1      29.351   7.112  48.124  1.00  0.00     0.129 C 
BRANCH  18  19
HETATM   19  N1  UNL     1      30.485   7.678  47.490  1.00  0.00    -0.408 N 
HETATM   20  C6  UNL     1      31.764   7.193  47.916  1.00  0.00     0.143 C 
HETATM   21  C7  UNL     1      32.142   7.903  49.196  1.00  0.00     0.187 C 
HETATM   22  O2  UNL     1      31.177   8.811  49.616  1.00  0.00    -0.388 OA
HETATM   23  C8  UNL     1      30.873   9.743  48.630  1.00  0.00     0.187 C 
HETATM   24  C9  UNL     1      30.486   9.091  47.319  1.00  0.00     0.143 C 
ENDBRANCH  18  19
ENDBRANCH  17  18
ENDBRANCH  16  17
ENDBRANCH  12  15
ENDBRANCH   1  11
BRANCH   8  25
HETATM   25  C16 UNL     1      26.695  -0.387  53.747  1.00  0.00     0.008 A 
HETATM   26  C17 UNL     1      27.189   0.267  54.786  1.00  0.00    -0.009 A 
HETATM   27  C18 UNL     1      28.500   0.141  54.897  1.00  0.00     0.055 A 
HETATM   28  C19 UNL     1      28.922  -0.642  53.739  1.00  0.00     0.118 A 
HETATM   29  F1  UNL     1      30.088  -1.106  53.213  1.00  0.00    -0.206 F 
HETATM   30  C20 UNL     1      27.839  -0.977  53.021  1.00  0.00     0.057 A 
ENDBRANCH   8  25
TORSDOF 6
ENDMDL
MODEL 3
REMARK VINA RESULT:      -9.3      2.587      3.295
REMARK  6 active torsions:
REMARK  status: ('A' for Active; 'I' for Inactive)
REMARK    1  A    between atoms: C1_2  and  C2_3 
REMARK       I    between atoms: C1_2  and  N2_13 
REMARK    2  A    between atoms: C3_4  and  C4_5 
REMARK    3  A    between atoms: C4_5  and  C5_6 
REMARK    4  A    between atoms: C5_6  and  N1_7 
REMARK    5  A    between atoms: N2_13  and  C10_14 
REMARK    6  A    between atoms: C15_21  and  C16_22 
ROOT
HETATM    1  C10 UNL     1      25.046   2.492  51.146  1.00  0.00     0.036 A 
HETATM    2  C11 UNL     1      23.673   2.640  51.075  1.00  0.00     0.032 A 
HETATM    3  C12 UNL     1      22.809   1.861  51.848  1.00  0.00     0.035 A 
HETATM    4  C13 UNL     1      23.433   0.950  52.669  1.00  0.00     0.070 A 
HETATM    5  N3  UNL     1      22.624   0.183  53.427  1.00  0.00    -0.241 NA
HETATM    6  C14 UNL     1      23.154  -0.732  54.258  1.00  0.00     0.234 A 
HETATM    7  N4  UNL     1      24.471  -0.915  54.364  1.00  0.00    -0.240 NA
HETATM    8  C15 UNL     1      25.320  -0.193  53.647  1.00  0.00     0.082 A 
HETATM    9  C21 UNL     1      24.791   0.750  52.791  1.00  0.00     0.025 A 
HETATM   10  C22 UNL     1      25.602   1.547  52.004  1.00  0.00     0.045 A 
ENDROOT
BRANCH   1  11
HETATM   11  N2  UNL     1      25.884   3.309  50.338  1.00  0.00    -0.316 N 
HETATM   12  C1  UNL     1      25.858   4.355  49.378  1.00  0.00     0.300 C 
HETATM   13  O1  UNL     1      24.790   4.884  48.964  1.00  0.00    -0.258 OA
HETATM   14  H13 UNL     1      26.793   2.873  50.674  1.00  0.00     0.170 HD
BRANCH  12  15
HETATM   15  C2  UNL     1      27.143   4.784  48.895  1.00  0.00    -0.005 C 
HETATM   16  C3  UNL     1      28.235   5.169  48.487  1.00  0.00    -0.095 C 
BRANCH  16  17
HETATM   17  C4  UNL     1      29.532   5.655  47.996  1.00  0.00     0.114 C 
BRANCH  17  18
HETATM   18  C5  UNL     1      29.455   7.151  47.775  1.00  0.00     0.129 C 
BRANCH  18  19
HETATM   19  N1  UNL     1      29.834   7.916  48.906  1.00  0.00    -0.408 N 
HETATM   20  C6  UNL     1      29.019   9.055  49.208  1.00  0.00     0.143 C 
HETATM   21  C7  UNL     1      29.442  10.196  48.312  1.00  0.00     0.187 C 
HETATM   22  O2  UNL     1      30.478   9.852  47.450  1.00  0.00    -0.388 OA
HETATM   23  C8  UNL     1      31.580   9.353  48.132  1.00  0.00     0.187 C 
HETATM   24  C9  UNL     1      31.220   8.204  49.051  1.00  0.00     0.143 C 
ENDBRANCH  18  19
ENDBRANCH  17  18
ENDBRANCH  16  17
ENDBRANCH  12  15
ENDBRANCH   1  11
BRANCH   8  25
HETATM   25  C16 UNL     1      26.750  -0.319  53.695  1.00  0.00     0.008 A 
HETATM   26  C17 UNL     1      27.196   0.303  54.774  1.00  0.00    -0.009 A 
HETATM   27  C18 UNL     1      28.502   0.179  54.936  1.00  0.00     0.055 A 
HETATM   28  C19 UNL     1      28.976  -0.566  53.772  1.00  0.00     0.118 A 
HETATM   29  F1  UNL     1      30.165  -1.009  53.281  1.00  0.00    -0.206 F 
HETATM   30  C20 UNL     1      27.925  -0.880  52.999  1.00  0.00     0.057 A 
ENDBRANCH   8  25
TORSDOF 6
ENDMDL
MODEL 4
REMARK VINA RESULT:      -9.1      2.684      8.822
REMARK  6 active torsions:
REMARK  status: ('A' for Active; 'I' for Inactive)
REMARK    1  A    between atoms: C1_2  and  C2_3 
REMARK       I    between atoms: C1_2  and  N2_13 
REMARK    2  A    between atoms: C3_4  and  C4_5 
REMARK    3  A    between atoms: C4_5  and  C5_6 
REMARK    4  A    between atoms: C5_6  and  N1_7 
REMARK    5  A    between atoms: N2_13  and  C10_14 
REMARK    6  A    between atoms: C15_21  and  C16_22 
ROOT
HETATM    1  C10 UNL     1      28.975   5.969  48.262  1.00  0.00     0.036 A 
HETATM    2  C11 UNL     1      28.655   7.305  48.103  1.00  0.00     0.032 A 
HETATM    3  C12 UNL     1      29.509   8.192  47.443  1.00  0.00     0.035 A 
HETATM    4  C13 UNL     1      30.673   7.630  46.974  1.00  0.00     0.070 A 
HETATM    5  N3  UNL     1      31.517   8.462  46.332  1.00  0.00    -0.241 NA
HETATM    6  C14 UNL     1      32.679   7.991  45.843  1.00  0.00     0.234 A 
HETATM    7  N4  UNL     1      33.035   6.712  45.969  1.00  0.00    -0.240 NA
HETATM    8  C15 UNL     1      32.250   5.844  46.589  1.00  0.00     0.082 A 
HETATM    9  C21 UNL     1      31.056   6.311  47.096  1.00  0.00     0.025 A 
HETATM   10  C22 UNL     1      30.175   5.475  47.758  1.00  0.00     0.045 A 
ENDROOT
BRANCH   1  11
HETATM   11  N2  UNL     1      28.073   5.107  48.943  1.00  0.00    -0.316 N 
HETATM   12  C1  UNL     1      26.692   4.861  49.165  1.00  0.00     0.300 C 
HETATM   13  O1  UNL     1      25.777   5.563  48.652  1.00  0.00    -0.258 OA
HETATM   14  H13 UNL     1      28.831   4.507  49.384  1.00  0.00     0.170 HD
BRANCH  12  15
HETATM   15  C2  UNL     1      26.391   3.748  50.023  1.00  0.00    -0.005 C 
HETATM   16  C3  UNL     1      26.147   2.786  50.745  1.00  0.00    -0.095 C 
BRANCH  16  17
HETATM   17  C4  UNL     1      25.864   1.617  51.592  1.00  0.00     0.114 C 
BRANCH  17  18
HETATM   18  C5  UNL     1      27.140   1.177  52.278  1.00  0.00     0.129 C 
BRANCH  18  19
HETATM   19  N1  UNL     1      27.071  -0.127  52.830  1.00  0.00    -0.408 N 
HETATM   20  C6  UNL     1      26.007  -0.373  53.757  1.00  0.00     0.143 C 
HETATM   21  C7  UNL     1      26.419   0.162  55.109  1.00  0.00     0.187 C 
HETATM   22  O2  UNL     1      27.683   0.741  55.100  1.00  0.00    -0.388 OA
HETATM   23  C8  UNL     1      28.653  -0.132  54.622  1.00  0.00     0.187 C 
HETATM   24  C9  UNL     1      28.296  -0.705  53.266  1.00  0.00     0.143 C 
ENDBRANCH  18  19
ENDBRANCH  17  18
ENDBRANCH  16  17
ENDBRANCH  12  15
ENDBRANCH   1  11
BRANCH   8  25
HETATM   25  C16 UNL     1      32.549   4.451  46.771  1.00  0.00     0.008 A 
HETATM   26  C17 UNL     1      33.714   4.342  47.387  1.00  0.00    -0.009 A 
HETATM   27  C18 UNL     1      34.037   3.089  47.659  1.00  0.00     0.055 A 
HETATM   28  C19 UNL     1      32.972   2.272  47.083  1.00  0.00     0.118 A 
HETATM   29  F1  UNL     1      32.678   0.950  46.960  1.00  0.00    -0.206 F 
HETATM   30  C20 UNL     1      32.052   3.080  46.535  1.00  0.00     0.057 A 
ENDBRANCH   8  25
TORSDOF 6
ENDMDL
MODEL 5
REMARK VINA RESULT:      -8.9      2.877      4.502
REMARK  6 active torsions:
REMARK  status: ('A' for Active; 'I' for Inactive)
REMARK    1  A    between atoms: C1_2  and  C2_3 
REMARK       I    between atoms: C1_2  and  N2_13 
REMARK    2  A    between atoms: C3_4  and  C4_5 
REMARK    3  A    between atoms: C4_5  and  C5_6 
REMARK    4  A    between atoms: C5_6  and  N1_7 
REMARK    5  A    between atoms: N2_13  and  C10_14 
REMARK    6  A    between atoms: C15_21  and  C16_22 
ROOT
HETATM    1  C10 UNL     1      26.607   2.110  52.105  1.00  0.00     0.036 A 
HETATM    2  C11 UNL     1      27.611   1.813  53.008  1.00  0.00     0.032 A 
HETATM    3  C12 UNL     1      27.407   0.927  54.069  1.00  0.00     0.035 A 
HETATM    4  C13 UNL     1      26.143   0.386  54.134  1.00  0.00     0.070 A 
HETATM    5  N3  UNL     1      25.917  -0.472  55.148  1.00  0.00    -0.241 NA
HETATM    6  C14 UNL     1      24.707  -1.045  55.283  1.00  0.00     0.234 A 
HETATM    7  N4  UNL     1      23.705  -0.792  54.439  1.00  0.00    -0.240 NA
HETATM    8  C15 UNL     1      23.863   0.042  53.423  1.00  0.00     0.082 A 
HETATM    9  C21 UNL     1      25.098   0.637  53.271  1.00  0.00     0.025 A 
HETATM   10  C22 UNL     1      25.352   1.521  52.238  1.00  0.00     0.045 A 
ENDROOT
BRANCH   1  11
HETATM   11  N2  UNL     1      26.864   3.020  51.043  1.00  0.00    -0.316 N 
HETATM   12  C1  UNL     1      26.296   3.571  49.864  1.00  0.00     0.300 C 
HETATM   13  O1  UNL     1      25.148   3.262  49.442  1.00  0.00    -0.258 OA
HETATM   14  H13 UNL     1      27.833   3.290  51.383  1.00  0.00     0.170 HD
BRANCH  12  15
HETATM   15  C2  UNL     1      27.120   4.520  49.165  1.00  0.00    -0.005 C 
HETATM   16  C3  UNL     1      27.840   5.319  48.574  1.00  0.00    -0.095 C 
BRANCH  16  17
HETATM   17  C4  UNL     1      28.723   6.267  47.879  1.00  0.00     0.114 C 
BRANCH  17  18
HETATM   18  C5  UNL     1      30.162   5.833  48.057  1.00  0.00     0.129 C 
BRANCH  18  19
HETATM   19  N1  UNL     1      30.841   6.517  49.096  1.00  0.00    -0.408 N 
HETATM   20  C6  UNL     1      30.886   7.946  48.997  1.00  0.00     0.143 C 
HETATM   21  C7  UNL     1      31.996   8.324  48.042  1.00  0.00     0.187 C 
HETATM   22  O2  UNL     1      32.660   7.220  47.520  1.00  0.00    -0.388 OA
HETATM   23  C8  UNL     1      33.157   6.390  48.518  1.00  0.00     0.187 C 
HETATM   24  C9  UNL     1      32.090   5.977  49.510  1.00  0.00     0.143 C 
ENDBRANCH  18  19
ENDBRANCH  17  18
ENDBRANCH  16  17
ENDBRANCH  12  15
ENDBRANCH   1  11
BRANCH   8  25
HETATM   25  C16 UNL     1      22.845   0.373  52.466  1.00  0.00     0.008 A 
HETATM   26  C17 UNL     1      21.691  -0.124  52.881  1.00  0.00    -0.009 A 
HETATM   27  C18 UNL     1      20.680   0.194  52.091  1.00  0.00     0.055 A 
HETATM   28  C19 UNL     1      21.266   0.940  50.980  1.00  0.00     0.118 A 
HETATM   29  F1  UNL     1      20.837   1.523  49.828  1.00  0.00    -0.206 F 
HETATM   30  C20 UNL     1      22.586   1.062  51.185  1.00  0.00     0.057 A 
ENDBRANCH   8  25
TORSDOF 6
ENDMDL
MODEL 6
REMARK VINA RESULT:      -8.5      4.104      5.927
REMARK  6 active torsions:
REMARK  status: ('A' for Active; 'I' for Inactive)
REMARK    1  A    between atoms: C1_2  and  C2_3 
REMARK       I    between atoms: C1_2  and  N2_13 
REMARK    2  A    between atoms: C3_4  and  C4_5 
REMARK    3  A    between atoms: C4_5  and  C5_6 
REMARK    4  A    between atoms: C5_6  and  N1_7 
REMARK    5  A    between atoms: N2_13  and  C10_14 
REMARK    6  A    between atoms: C15_21  and  C16_22 
ROOT
HETATM    1  C10 UNL     1      26.231   1.842  51.900  1.00  0.00     0.036 A 
HETATM    2  C11 UNL     1      27.272   1.230  52.574  1.00  0.00     0.032 A 
HETATM    3  C12 UNL     1      27.045   0.262  53.555  1.00  0.00     0.035 A 
HETATM    4  C13 UNL     1      25.719  -0.025  53.786  1.00  0.00     0.070 A 
HETATM    5  N3  UNL     1      25.470  -0.956  54.727  1.00  0.00    -0.241 NA
HETATM    6  C14 UNL     1      24.199  -1.294  55.014  1.00  0.00     0.234 A 
HETATM    7  N4  UNL     1      23.159  -0.735  54.394  1.00  0.00    -0.240 NA
HETATM    8  C15 UNL     1      23.338   0.186  53.459  1.00  0.00     0.082 A 
HETATM    9  C21 UNL     1      24.634   0.543  53.153  1.00  0.00     0.025 A 
HETATM   10  C22 UNL     1      24.914   1.497  52.191  1.00  0.00     0.045 A 
ENDROOT
BRANCH   1  11
HETATM   11  N2  UNL     1      26.514   2.823  50.911  1.00  0.00    -0.316 N 
HETATM   12  C1  UNL     1      25.954   3.496  49.793  1.00  0.00     0.300 C 
HETATM   13  O1  UNL     1      24.785   3.277  49.371  1.00  0.00    -0.258 OA
HETATM   14  H13 UNL     1      27.501   3.018  51.251  1.00  0.00     0.170 HD
BRANCH  12  15
HETATM   15  C2  UNL     1      26.811   4.460  49.157  1.00  0.00    -0.005 C 
HETATM   16  C3  UNL     1      27.529   5.296  48.617  1.00  0.00    -0.095 C 
BRANCH  16  17
HETATM   17  C4  UNL     1      28.367   6.313  47.963  1.00  0.00     0.114 C 
BRANCH  17  18
HETATM   18  C5  UNL     1      27.656   7.648  48.004  1.00  0.00     0.129 C 
BRANCH  18  19
HETATM   19  N1  UNL     1      27.586   8.219  49.300  1.00  0.00    -0.408 N 
HETATM   20  C6  UNL     1      26.283   8.587  49.766  1.00  0.00     0.143 C 
HETATM   21  C7  UNL     1      25.925   9.930  49.170  1.00  0.00     0.187 C 
HETATM   22  O2  UNL     1      26.922  10.440  48.347  1.00  0.00    -0.388 OA
HETATM   23  C8  UNL     1      28.146  10.523  49.000  1.00  0.00     0.187 C 
HETATM   24  C9  UNL     1      28.560   9.205  49.620  1.00  0.00     0.143 C 
ENDBRANCH  18  19
ENDBRANCH  17  18
ENDBRANCH  16  17
ENDBRANCH  12  15
ENDBRANCH   1  11
BRANCH   8  25
HETATM   25  C16 UNL     1      22.281   0.841  52.738  1.00  0.00     0.008 A 
HETATM   26  C17 UNL     1      21.676  -0.048  51.967  1.00  0.00    -0.009 A 
HETATM   27  C18 UNL     1      20.642   0.455  51.317  1.00  0.00     0.055 A 
HETATM   28  C19 UNL     1      20.612   1.875  51.659  1.00  0.00     0.118 A 
HETATM   29  F1  UNL     1      19.867   2.968  51.340  1.00  0.00    -0.206 F 
HETATM   30  C20 UNL     1      21.603   2.135  52.525  1.00  0.00     0.057 A 
ENDBRANCH   8  25
TORSDOF 6
ENDMDL
MODEL 7
REMARK VINA RESULT:      -8.5      3.312      9.132
REMARK  6 active torsions:
REMARK  status: ('A' for Active; 'I' for Inactive)
REMARK    1  A    between atoms: C1_2  and  C2_3 
REMARK       I    between atoms: C1_2  and  N2_13 
REMARK    2  A    between atoms: C3_4  and  C4_5 
REMARK    3  A    between atoms: C4_5  and  C5_6 
REMARK    4  A    between atoms: C5_6  and  N1_7 
REMARK    5  A    between atoms: N2_13  and  C10_14 
REMARK    6  A    between atoms: C15_21  and  C16_22 
ROOT
HETATM    1  C10 UNL     1      30.391   6.392  48.687  1.00  0.00     0.036 A 
HETATM    2  C11 UNL     1      30.850   7.645  49.051  1.00  0.00     0.032 A 
HETATM    3  C12 UNL     1      32.209   7.969  49.016  1.00  0.00     0.035 A 
HETATM    4  C13 UNL     1      33.033   6.951  48.595  1.00  0.00     0.070 A 
HETATM    5  N3  UNL     1      34.350   7.234  48.551  1.00  0.00    -0.241 NA
HETATM    6  C14 UNL     1      35.225   6.293  48.151  1.00  0.00     0.234 A 
HETATM    7  N4  UNL     1      34.834   5.070  47.789  1.00  0.00    -0.240 NA
HETATM    8  C15 UNL     1      33.554   4.729  47.810  1.00  0.00     0.082 A 
HETATM    9  C21 UNL     1      32.646   5.683  48.218  1.00  0.00     0.025 A 
HETATM   10  C22 UNL     1      31.290   5.414  48.271  1.00  0.00     0.045 A 
ENDROOT
BRANCH   1  11
HETATM   11  N2  UNL     1      28.999   6.111  48.741  1.00  0.00    -0.316 N 
HETATM   12  C1  UNL     1      27.739   6.534  48.240  1.00  0.00     0.300 C 
HETATM   13  O1  UNL     1      27.605   7.498  47.437  1.00  0.00    -0.258 OA
HETATM   14  H13 UNL     1      29.093   5.298  49.419  1.00  0.00     0.170 HD
BRANCH  12  15
HETATM   15  C2  UNL     1      26.604   5.785  48.708  1.00  0.00    -0.005 C 
HETATM   16  C3  UNL     1      25.645   5.130  49.104  1.00  0.00    -0.095 C 
BRANCH  16  17
HETATM   17  C4  UNL     1      24.506   4.322  49.566  1.00  0.00     0.114 C 
BRANCH  17  18
HETATM   18  C5  UNL     1      24.909   3.552  50.805  1.00  0.00     0.129 C 
BRANCH  18  19
HETATM   19  N1  UNL     1      23.931   3.567  51.831  1.00  0.00    -0.408 N 
HETATM   20  C6  UNL     1      24.313   2.991  53.086  1.00  0.00     0.143 C 
HETATM   21  C7  UNL     1      24.167   1.490  52.987  1.00  0.00     0.187 C 
HETATM   22  O2  UNL     1      23.719   1.071  51.741  1.00  0.00    -0.388 OA
HETATM   23  C8  UNL     1      22.526   1.686  51.381  1.00  0.00     0.187 C 
HETATM   24  C9  UNL     1      22.608   3.196  51.461  1.00  0.00     0.143 C 
ENDBRANCH  18  19
ENDBRANCH  17  18
ENDBRANCH  16  17
ENDBRANCH  12  15
ENDBRANCH   1  11
BRANCH   8  25
HETATM   25  C16 UNL     1      33.041   3.440  47.439  1.00  0.00     0.008 A 
HETATM   26  C17 UNL     1      33.536   2.530  48.262  1.00  0.00    -0.009 A 
HETATM   27  C18 UNL     1      33.061   1.318  48.035  1.00  0.00     0.055 A 
HETATM   28  C19 UNL     1      32.194   1.446  46.866  1.00  0.00     0.118 A 
HETATM   29  F1  UNL     1      31.433   0.629  46.089  1.00  0.00    -0.206 F 
HETATM   30  C20 UNL     1      32.166   2.731  46.483  1.00  0.00     0.057 A 
ENDBRANCH   8  25
TORSDOF 6
ENDMDL
MODEL 8
REMARK VINA RESULT:      -8.4      1.802      2.205
REMARK  6 active torsions:
REMARK  status: ('A' for Active; 'I' for Inactive)
REMARK    1  A    between atoms: C1_2  and  C2_3 
REMARK       I    between atoms: C1_2  and  N2_13 
REMARK    2  A    between atoms: C3_4  and  C4_5 
REMARK    3  A    between atoms: C4_5  and  C5_6 
REMARK    4  A    between atoms: C5_6  and  N1_7 
REMARK    5  A    between atoms: N2_13  and  C10_14 
REMARK    6  A    between atoms: C15_21  and  C16_22 
ROOT
HETATM    1  C10 UNL     1      26.125   3.919  49.740  1.00  0.00     0.036 A 
HETATM    2  C11 UNL     1      24.914   4.430  49.309  1.00  0.00     0.032 A 
HETATM    3  C12 UNL     1      23.702   4.021  49.871  1.00  0.00     0.035 A 
HETATM    4  C13 UNL     1      23.818   3.083  50.871  1.00  0.00     0.070 A 
HETATM    5  N3  UNL     1      22.664   2.669  51.432  1.00  0.00    -0.241 NA
HETATM    6  C14 UNL     1      22.690   1.752  52.417  1.00  0.00     0.234 A 
HETATM    7  N4  UNL     1      23.830   1.228  52.868  1.00  0.00    -0.240 NA
HETATM    8  C15 UNL     1      24.997   1.593  52.359  1.00  0.00     0.082 A 
HETATM    9  C21 UNL     1      24.988   2.532  51.349  1.00  0.00     0.025 A 
HETATM   10  C22 UNL     1      26.159   2.971  50.759  1.00  0.00     0.045 A 
ENDROOT
BRANCH   1  11
HETATM   11  N2  UNL     1      27.331   4.367  49.135  1.00  0.00    -0.316 N 
HETATM   12  C1  UNL     1      27.950   5.503  48.550  1.00  0.00     0.300 C 
HETATM   13  O1  UNL     1      27.372   6.620  48.438  1.00  0.00    -0.258 OA
HETATM   14  H13 UNL     1      27.831   3.433  49.220  1.00  0.00     0.170 HD
BRANCH  12  15
HETATM   15  C2  UNL     1      29.296   5.306  48.086  1.00  0.00    -0.005 C 
HETATM   16  C3  UNL     1      30.451   5.139  47.708  1.00  0.00    -0.095 C 
BRANCH  16  17
HETATM   17  C4  UNL     1      31.845   4.950  47.278  1.00  0.00     0.114 C 
BRANCH  17  18
HETATM   18  C5  UNL     1      32.744   5.866  48.080  1.00  0.00     0.129 C 
BRANCH  18  19
HETATM   19  N1  UNL     1      33.988   6.135  47.456  1.00  0.00    -0.408 N 
HETATM   20  C6  UNL     1      35.016   6.682  48.291  1.00  0.00     0.143 C 
HETATM   21  C7  UNL     1      34.779   8.169  48.429  1.00  0.00     0.187 C 
HETATM   22  O2  UNL     1      33.656   8.604  47.735  1.00  0.00    -0.388 OA
HETATM   23  C8  UNL     1      33.706   8.256  46.390  1.00  0.00     0.187 C 
HETATM   24  C9  UNL     1      33.943   6.774  46.186  1.00  0.00     0.143 C 
ENDBRANCH  18  19
ENDBRANCH  17  18
ENDBRANCH  16  17
ENDBRANCH  12  15
ENDBRANCH   1  11
BRANCH   8  25
HETATM   25  C16 UNL     1      26.273   1.085  52.781  1.00  0.00     0.008 A 
HETATM   26  C17 UNL     1      26.337  -0.203  52.489  1.00  0.00    -0.009 A 
HETATM   27  C18 UNL     1      27.509  -0.739  52.781  1.00  0.00     0.055 A 
HETATM   28  C19 UNL     1      28.286   0.327  53.408  1.00  0.00     0.118 A 
HETATM   29  F1  UNL     1      29.518   0.474  53.967  1.00  0.00    -0.206 F 
HETATM   30  C20 UNL     1      27.553   1.450  53.421  1.00  0.00     0.057 A 
ENDBRANCH   8  25
TORSDOF 6
ENDMDL
MODEL 9
REMARK VINA RESULT:      -8.1      2.953      9.502
REMARK  6 active torsions:
REMARK  status: ('A' for Active; 'I' for Inactive)
REMARK    1  A    between atoms: C1_2  and  C2_3 
REMARK       I    between atoms: C1_2  and  N2_13 
REMARK    2  A    between atoms: C3_4  and  C4_5 
REMARK    3  A    between atoms: C4_5  and  C5_6 
REMARK    4  A    between atoms: C5_6  and  N1_7 
REMARK    5  A    between atoms: N2_13  and  C10_14 
REMARK    6  A    between atoms: C15_21  and  C16_22 
ROOT
HETATM    1  C10 UNL     1      28.978   5.939  48.309  1.00  0.00     0.036 A 
HETATM    2  C11 UNL     1      28.694   7.285  48.166  1.00  0.00     0.032 A 
HETATM    3  C12 UNL     1      29.575   8.157  47.519  1.00  0.00     0.035 A 
HETATM    4  C13 UNL     1      30.725   7.568  47.046  1.00  0.00     0.070 A 
HETATM    5  N3  UNL     1      31.593   8.385  46.418  1.00  0.00    -0.241 NA
HETATM    6  C14 UNL     1      32.743   7.889  45.926  1.00  0.00     0.234 A 
HETATM    7  N4  UNL     1      33.064   6.599  46.037  1.00  0.00    -0.240 NA
HETATM    8  C15 UNL     1      32.253   5.745  46.643  1.00  0.00     0.082 A 
HETATM    9  C21 UNL     1      31.070   6.238  47.153  1.00  0.00     0.025 A 
HETATM   10  C22 UNL     1      30.165   5.418  47.801  1.00  0.00     0.045 A 
ENDROOT
BRANCH   1  11
HETATM   11  N2  UNL     1      28.050   5.093  48.976  1.00  0.00    -0.316 N 
HETATM   12  C1  UNL     1      26.661   4.861  49.163  1.00  0.00     0.300 C 
HETATM   13  O1  UNL     1      25.767   5.563  48.615  1.00  0.00    -0.258 OA
HETATM   14  H13 UNL     1      28.790   4.494  49.446  1.00  0.00     0.170 HD
BRANCH  12  15
HETATM   15  C2  UNL     1      26.328   3.762  50.027  1.00  0.00    -0.005 C 
HETATM   16  C3  UNL     1      26.024   2.824  50.758  1.00  0.00    -0.095 C 
BRANCH  16  17
HETATM   17  C4  UNL     1      25.635   1.706  51.631  1.00  0.00     0.114 C 
BRANCH  17  18
HETATM   18  C5  UNL     1      24.233   1.941  52.149  1.00  0.00     0.129 C 
BRANCH  18  19
HETATM   19  N1  UNL     1      23.246   1.152  51.508  1.00  0.00    -0.408 N 
HETATM   20  C6  UNL     1      22.555   1.760  50.410  1.00  0.00     0.143 C 
HETATM   21  C7  UNL     1      21.464   2.647  50.965  1.00  0.00     0.187 C 
HETATM   22  O2  UNL     1      21.420   2.645  52.354  1.00  0.00    -0.388 OA
HETATM   23  C8  UNL     1      21.294   1.361  52.871  1.00  0.00     0.187 C 
HETATM   24  C9  UNL     1      22.361   0.422  52.350  1.00  0.00     0.143 C 
ENDBRANCH  18  19
ENDBRANCH  17  18
ENDBRANCH  16  17
ENDBRANCH  12  15
ENDBRANCH   1  11
BRANCH   8  25
HETATM   25  C16 UNL     1      32.513   4.342  46.808  1.00  0.00     0.008 A 
HETATM   26  C17 UNL     1      33.636   4.194  47.491  1.00  0.00    -0.009 A 
HETATM   27  C18 UNL     1      33.917   2.929  47.751  1.00  0.00     0.055 A 
HETATM   28  C19 UNL     1      32.873   2.148  47.091  1.00  0.00     0.118 A 
HETATM   29  F1  UNL     1      32.562   0.835  46.917  1.00  0.00    -0.206 F 
HETATM   30  C20 UNL     1      32.005   2.988  46.508  1.00  0.00     0.057 A 
ENDBRANCH   8  25
TORSDOF 6
ENDMDL
