MODEL 1
REMARK VINA RESULT:      -7.4      0.000      0.000
REMARK  8 active torsions:
REMARK  status: ('A' for Active; 'I' for Inactive)
REMARK    1  A    between atoms: C2_2  and  C3_3 
REMARK    2  A    between atoms: C3_3  and  O1_4 
REMARK    3  A    between atoms: O1_4  and  C4_5 
REMARK    4  A    between atoms: C7_8  and  N1_9 
REMARK    5  A    between atoms: C9_11  and  C10_12 
REMARK    6  A    between atoms: C10_12  and  C11_13 
REMARK    7  A    between atoms: C11_13  and  C12_14 
REMARK    8  A    between atoms: C12_14  and  N2_15 
ROOT
HETATM    1  N1  UNL     1      22.092   1.823  50.442  1.00  0.00    -0.242 N 
HETATM    2  C8  UNL     1      23.348   2.217  50.966  1.00  0.00     0.143 A 
HETATM    3  C9  UNL     1      24.295   2.881  50.279  1.00  0.00     0.028 A 
HETATM    4  N3  UNL     1      23.920   3.166  48.948  1.00  0.00    -0.352 N 
HETATM    5  C18 UNL     1      22.683   2.805  48.354  1.00  0.00     0.230 A 
HETATM    6  N4  UNL     1      21.866   2.178  49.097  1.00  0.00    -0.163 NA
HETATM    7  H27 UNL     1      24.596   3.698  48.363  1.00  0.00     0.166 HD
ENDROOT
BRANCH   1   8
HETATM    8  C7  UNL     1      21.075   1.117  51.137  1.00  0.00     0.059 A 
HETATM    9  C6  UNL     1      19.803   1.086  50.616  1.00  0.00     0.034 A 
HETATM   10  C5  UNL     1      18.823   0.398  51.290  1.00  0.00     0.041 A 
HETATM   11  C4  UNL     1      19.034  -0.275  52.470  1.00  0.00     0.090 A 
HETATM   12  C20 UNL     1      20.346  -0.218  52.971  1.00  0.00     0.069 A 
HETATM   13  C19 UNL     1      21.358   0.466  52.318  1.00  0.00     0.058 A 
HETATM   14 CL1  UNL     1      20.917  -0.984  54.467  1.00  0.00    -0.081 Cl
BRANCH  11  15
HETATM   15  O1  UNL     1      18.279  -1.003  53.313  1.00  0.00    -0.349 OA
BRANCH  15  16
HETATM   16  C3  UNL     1      17.337  -1.994  53.134  1.00  0.00     0.175 C 
BRANCH  16  17
HETATM   17  C2  UNL     1      17.751  -3.270  53.786  1.00  0.00     0.022 C 
HETATM   18  C1  UNL     1      16.685  -4.307  53.490  1.00  0.00     0.007 C 
ENDBRANCH  16  17
ENDBRANCH  15  16
ENDBRANCH  11  15
ENDBRANCH   1   8
BRANCH   3  19
HETATM   19  C10 UNL     1      25.538   3.211  50.988  1.00  0.00     0.060 C 
BRANCH  19  20
HETATM   20  C11 UNL     1      26.632   2.202  50.931  1.00  0.00     0.036 C 
BRANCH  20  21
HETATM   21  C12 UNL     1      27.078   1.751  52.275  1.00  0.00     0.273 C 
BRANCH  21  22
HETATM   22  N2  UNL     1      26.720   0.392  52.596  1.00  0.00     0.097 N 
HETATM   23  C13 UNL     1      27.810  -0.451  52.966  1.00  0.00     0.299 C 
HETATM   24  C14 UNL     1      28.548   0.130  54.125  1.00  0.00     0.198 C 
HETATM   25  O2  UNL     1      27.726   0.706  55.068  1.00  0.00    -0.387 OA
HETATM   26  C15 UNL     1      26.429   0.192  55.038  1.00  0.00     0.203 C 
HETATM   27  C16 UNL     1      25.772   0.437  53.695  1.00  0.00     0.242 C 
HETATM   28  C17 UNL     1      24.683  -0.568  53.405  1.00  0.00     0.045 C 
ENDBRANCH  21  22
ENDBRANCH  20  21
ENDBRANCH  19  20
ENDBRANCH   3  19
TORSDOF 8
ENDMDL
MODEL 2
REMARK VINA RESULT:      -7.4      5.147      9.080
REMARK  8 active torsions:
REMARK  status: ('A' for Active; 'I' for Inactive)
REMARK    1  A    between atoms: C2_2  and  C3_3 
REMARK    2  A    between atoms: C3_3  and  O1_4 
REMARK    3  A    between atoms: O1_4  and  C4_5 
REMARK    4  A    between atoms: C7_8  and  N1_9 
REMARK    5  A    between atoms: C9_11  and  C10_12 
REMARK    6  A    between atoms: C10_12  and  C11_13 
REMARK    7  A    between atoms: C11_13  and  C12_14 
REMARK    8  A    between atoms: C12_14  and  N2_15 
ROOT
HETATM    1  N1  UNL     1      25.282   4.703  49.345  1.00  0.00    -0.242 N 
HETATM    2  C8  UNL     1      25.237   3.769  50.410  1.00  0.00     0.143 A 
HETATM    3  C9  UNL     1      24.131   3.125  50.824  1.00  0.00     0.028 A 
HETATM    4  N3  UNL     1      22.978   3.466  50.082  1.00  0.00    -0.352 N 
HETATM    5  C18 UNL     1      22.945   4.389  49.005  1.00  0.00     0.230 A 
HETATM    6  N4  UNL     1      24.049   4.939  48.703  1.00  0.00    -0.163 NA
HETATM    7  H27 UNL     1      22.089   2.989  50.333  1.00  0.00     0.166 HD
ENDROOT
BRANCH   1   8
HETATM    8  C7  UNL     1      26.429   5.403  48.888  1.00  0.00     0.059 A 
HETATM    9  C6  UNL     1      27.615   4.724  48.738  1.00  0.00     0.034 A 
HETATM   10  C5  UNL     1      28.722   5.405  48.292  1.00  0.00     0.041 A 
HETATM   11  C4  UNL     1      28.722   6.743  47.978  1.00  0.00     0.090 A 
HETATM   12  C20 UNL     1      27.491   7.403  48.145  1.00  0.00     0.069 A 
HETATM   13  C19 UNL     1      26.356   6.748  48.593  1.00  0.00     0.058 A 
HETATM   14 CL1  UNL     1      27.185   9.121  47.823  1.00  0.00    -0.081 Cl
BRANCH  11  15
HETATM   15  O1  UNL     1      29.632   7.630  47.535  1.00  0.00    -0.349 OA
BRANCH  15  16
HETATM   16  C3  UNL     1      30.828   8.097  48.037  1.00  0.00     0.175 C 
BRANCH  16  17
HETATM   17  C2  UNL     1      30.624   8.942  49.249  1.00  0.00     0.022 C 
HETATM   18  C1  UNL     1      30.730  10.393  48.826  1.00  0.00     0.007 C 
ENDBRANCH  16  17
ENDBRANCH  15  16
ENDBRANCH  11  15
ENDBRANCH   1   8
BRANCH   3  19
HETATM   19  C10 UNL     1      24.274   2.187  51.944  1.00  0.00     0.060 C 
BRANCH  19  20
HETATM   20  C11 UNL     1      24.640   2.768  53.266  1.00  0.00     0.036 C 
BRANCH  20  21
HETATM   21  C12 UNL     1      25.797   2.087  53.901  1.00  0.00     0.273 C 
BRANCH  21  22
HETATM   22  N2  UNL     1      26.635   1.356  52.983  1.00  0.00     0.097 N 
HETATM   23  C13 UNL     1      27.837   2.021  52.598  1.00  0.00     0.299 C 
HETATM   24  C14 UNL     1      28.647   2.372  53.801  1.00  0.00     0.198 C 
HETATM   25  O2  UNL     1      28.639   1.396  54.772  1.00  0.00    -0.387 OA
HETATM   26  C15 UNL     1      28.351   0.129  54.262  1.00  0.00     0.203 C 
HETATM   27  C16 UNL     1      26.982   0.096  53.615  1.00  0.00     0.242 C 
HETATM   28  C17 UNL     1      26.875  -0.988  52.571  1.00  0.00     0.045 C 
ENDBRANCH  21  22
ENDBRANCH  20  21
ENDBRANCH  19  20
ENDBRANCH   3  19
TORSDOF 8
ENDMDL
MODEL 3
REMARK VINA RESULT:      -7.4      2.803      7.133
REMARK  8 active torsions:
REMARK  status: ('A' for Active; 'I' for Inactive)
REMARK    1  A    between atoms: C2_2  and  C3_3 
REMARK    2  A    between atoms: C3_3  and  O1_4 
REMARK    3  A    between atoms: O1_4  and  C4_5 
REMARK    4  A    between atoms: C7_8  and  N1_9 
REMARK    5  A    between atoms: C9_11  and  C10_12 
REMARK    6  A    between atoms: C10_12  and  C11_13 
REMARK    7  A    between atoms: C11_13  and  C12_14 
REMARK    8  A    between atoms: C12_14  and  N2_15 
ROOT
HETATM    1  N1  UNL     1      21.924  -0.110  52.862  1.00  0.00    -0.242 N 
HETATM    2  C8  UNL     1      21.478   0.440  51.635  1.00  0.00     0.143 A 
HETATM    3  C9  UNL     1      20.189   0.556  51.266  1.00  0.00     0.028 A 
HETATM    4  N3  UNL     1      19.286   0.072  52.239  1.00  0.00    -0.352 N 
HETATM    5  C18 UNL     1      19.658  -0.489  53.489  1.00  0.00     0.230 A 
HETATM    6  N4  UNL     1      20.903  -0.551  53.728  1.00  0.00    -0.163 NA
HETATM    7  H27 UNL     1      18.271   0.151  52.032  1.00  0.00     0.166 HD
ENDROOT
BRANCH   1   8
HETATM    8  C7  UNL     1      23.274  -0.253  53.278  1.00  0.00     0.059 A 
HETATM    9  C6  UNL     1      23.545  -0.842  54.490  1.00  0.00     0.034 A 
HETATM   10  C5  UNL     1      24.854  -0.982  54.886  1.00  0.00     0.041 A 
HETATM   11  C4  UNL     1      25.929  -0.566  54.137  1.00  0.00     0.090 A 
HETATM   12  C20 UNL     1      25.611   0.032  52.904  1.00  0.00     0.069 A 
HETATM   13  C19 UNL     1      24.304   0.189  52.474  1.00  0.00     0.058 A 
HETATM   14 CL1  UNL     1      26.780   0.664  51.728  1.00  0.00    -0.081 Cl
BRANCH  11  15
HETATM   15  O1  UNL     1      27.266  -0.579  54.280  1.00  0.00    -0.349 OA
BRANCH  15  16
HETATM   16  C3  UNL     1      28.171   0.292  54.848  1.00  0.00     0.175 C 
BRANCH  16  17
HETATM   17  C2  UNL     1      29.453   0.329  54.086  1.00  0.00     0.022 C 
HETATM   18  C1  UNL     1      29.625  -1.014  53.404  1.00  0.00     0.007 C 
ENDBRANCH  16  17
ENDBRANCH  15  16
ENDBRANCH  11  15
ENDBRANCH   1   8
BRANCH   3  19
HETATM   19  C10 UNL     1      19.911   1.155  49.955  1.00  0.00     0.060 C 
BRANCH  19  20
HETATM   20  C11 UNL     1      21.001   1.965  49.342  1.00  0.00     0.036 C 
BRANCH  20  21
HETATM   21  C12 UNL     1      20.995   3.381  49.789  1.00  0.00     0.273 C 
BRANCH  21  22
HETATM   22  N2  UNL     1      22.256   4.062  49.631  1.00  0.00     0.097 N 
HETATM   23  C13 UNL     1      22.269   5.423  50.060  1.00  0.00     0.299 C 
HETATM   24  C14 UNL     1      21.854   5.523  51.490  1.00  0.00     0.198 C 
HETATM   25  O2  UNL     1      22.352   4.511  52.279  1.00  0.00    -0.387 OA
HETATM   26  C15 UNL     1      23.509   3.936  51.753  1.00  0.00     0.203 C 
HETATM   27  C16 UNL     1      23.250   3.325  50.391  1.00  0.00     0.242 C 
HETATM   28  C17 UNL     1      24.505   3.247  49.557  1.00  0.00     0.045 C 
ENDBRANCH  21  22
ENDBRANCH  20  21
ENDBRANCH  19  20
ENDBRANCH   3  19
TORSDOF 8
ENDMDL
MODEL 4
REMARK VINA RESULT:      -7.3      2.627      3.815
REMARK  8 active torsions:
REMARK  status: ('A' for Active; 'I' for Inactive)
REMARK    1  A    between atoms: C2_2  and  C3_3 
REMARK    2  A    between atoms: C3_3  and  O1_4 
REMARK    3  A    between atoms: O1_4  and  C4_5 
REMARK    4  A    between atoms: C7_8  and  N1_9 
REMARK    5  A    between atoms: C9_11  and  C10_12 
REMARK    6  A    between atoms: C10_12  and  C11_13 
REMARK    7  A    between atoms: C11_13  and  C12_14 
REMARK    8  A    between atoms: C12_14  and  N2_15 
ROOT
HETATM    1  N1  UNL     1      20.635  -0.889  53.567  1.00  0.00    -0.242 N 
HETATM    2  C8  UNL     1      21.511  -0.020  52.870  1.00  0.00     0.143 A 
HETATM    3  C9  UNL     1      22.796   0.204  53.198  1.00  0.00     0.028 A 
HETATM    4  N3  UNL     1      23.217  -0.526  54.332  1.00  0.00    -0.352 N 
HETATM    5  C18 UNL     1      22.399  -1.414  55.079  1.00  0.00     0.230 A 
HETATM    6  N4  UNL     1      21.201  -1.545  54.679  1.00  0.00    -0.163 NA
HETATM    7  H27 UNL     1      24.206  -0.419  54.631  1.00  0.00     0.166 HD
ENDROOT
BRANCH   1   8
HETATM    8  C7  UNL     1      19.274  -1.141  53.252  1.00  0.00     0.059 A 
HETATM    9  C6  UNL     1      18.559  -0.196  52.555  1.00  0.00     0.034 A 
HETATM   10  C5  UNL     1      17.243  -0.447  52.248  1.00  0.00     0.041 A 
HETATM   11  C4  UNL     1      16.583  -1.602  52.596  1.00  0.00     0.090 A 
HETATM   12  C20 UNL     1      17.348  -2.543  53.308  1.00  0.00     0.069 A 
HETATM   13  C19 UNL     1      18.675  -2.322  53.635  1.00  0.00     0.058 A 
HETATM   14 CL1  UNL     1      16.771  -4.118  53.890  1.00  0.00    -0.081 Cl
BRANCH  11  15
HETATM   15  O1  UNL     1      15.340  -2.089  52.430  1.00  0.00    -0.349 OA
BRANCH  15  16
HETATM   16  C3  UNL     1      14.399  -1.975  51.429  1.00  0.00     0.175 C 
BRANCH  16  17
HETATM   17  C2  UNL     1      14.649  -2.946  50.325  1.00  0.00     0.022 C 
HETATM   18  C1  UNL     1      14.558  -4.343  50.906  1.00  0.00     0.007 C 
ENDBRANCH  16  17
ENDBRANCH  15  16
ENDBRANCH  11  15
ENDBRANCH   1   8
BRANCH   3  19
HETATM   19  C10 UNL     1      23.556   1.137  52.357  1.00  0.00     0.060 C 
BRANCH  19  20
HETATM   20  C11 UNL     1      24.177   2.306  53.041  1.00  0.00     0.036 C 
BRANCH  20  21
HETATM   21  C12 UNL     1      25.474   1.982  53.686  1.00  0.00     0.273 C 
BRANCH  21  22
HETATM   22  N2  UNL     1      26.345   1.153  52.889  1.00  0.00     0.097 N 
HETATM   23  C13 UNL     1      27.530   1.795  52.420  1.00  0.00     0.299 C 
HETATM   24  C14 UNL     1      28.315   2.342  53.564  1.00  0.00     0.198 C 
HETATM   25  O2  UNL     1      28.327   1.517  54.666  1.00  0.00    -0.387 OA
HETATM   26  C15 UNL     1      28.085   0.181  54.343  1.00  0.00     0.203 C 
HETATM   27  C16 UNL     1      26.724   0.010  53.699  1.00  0.00     0.242 C 
HETATM   28  C17 UNL     1      26.664  -1.217  52.822  1.00  0.00     0.045 C 
ENDBRANCH  21  22
ENDBRANCH  20  21
ENDBRANCH  19  20
ENDBRANCH   3  19
TORSDOF 8
ENDMDL
MODEL 5
REMARK VINA RESULT:      -7.2      4.154      7.639
REMARK  8 active torsions:
REMARK  status: ('A' for Active; 'I' for Inactive)
REMARK    1  A    between atoms: C2_2  and  C3_3 
REMARK    2  A    between atoms: C3_3  and  O1_4 
REMARK    3  A    between atoms: O1_4  and  C4_5 
REMARK    4  A    between atoms: C7_8  and  N1_9 
REMARK    5  A    between atoms: C9_11  and  C10_12 
REMARK    6  A    between atoms: C10_12  and  C11_13 
REMARK    7  A    between atoms: C11_13  and  C12_14 
REMARK    8  A    between atoms: C12_14  and  N2_15 
ROOT
HETATM    1  N1  UNL     1      23.770   2.876  50.886  1.00  0.00    -0.242 N 
HETATM    2  C8  UNL     1      24.072   2.066  52.010  1.00  0.00     0.143 A 
HETATM    3  C9  UNL     1      23.389   0.964  52.371  1.00  0.00     0.028 A 
HETATM    4  N3  UNL     1      22.313   0.668  51.505  1.00  0.00    -0.352 N 
HETATM    5  C18 UNL     1      21.952   1.429  50.363  1.00  0.00     0.230 A 
HETATM    6  N4  UNL     1      22.665   2.451  50.120  1.00  0.00    -0.163 NA
HETATM    7  H27 UNL     1      21.753  -0.184  51.710  1.00  0.00     0.166 HD
ENDROOT
BRANCH   1   8
HETATM    8  C7  UNL     1      24.465   4.046  50.482  1.00  0.00     0.059 A 
HETATM    9  C6  UNL     1      23.943   5.279  50.795  1.00  0.00     0.034 A 
HETATM   10  C5  UNL     1      24.621   6.409  50.406  1.00  0.00     0.041 A 
HETATM   11  C4  UNL     1      25.809   6.388  49.714  1.00  0.00     0.090 A 
HETATM   12  C20 UNL     1      26.310   5.109  49.412  1.00  0.00     0.069 A 
HETATM   13  C19 UNL     1      25.652   3.950  49.789  1.00  0.00     0.058 A 
HETATM   14 CL1  UNL     1      27.813   4.767  48.533  1.00  0.00    -0.081 Cl
BRANCH  11  15
HETATM   15  O1  UNL     1      26.656   7.311  49.224  1.00  0.00    -0.349 OA
BRANCH  15  16
HETATM   16  C3  UNL     1      26.644   8.114  48.103  1.00  0.00     0.175 C 
BRANCH  16  17
HETATM   17  C2  UNL     1      28.005   8.637  47.787  1.00  0.00     0.022 C 
HETATM   18  C1  UNL     1      28.580   7.788  46.671  1.00  0.00     0.007 C 
ENDBRANCH  16  17
ENDBRANCH  15  16
ENDBRANCH  11  15
ENDBRANCH   1   8
BRANCH   3  19
HETATM   19  C10 UNL     1      23.847   0.246  53.566  1.00  0.00     0.060 C 
BRANCH  19  20
HETATM   20  C11 UNL     1      25.007  -0.673  53.394  1.00  0.00     0.036 C 
BRANCH  20  21
HETATM   21  C12 UNL     1      26.232  -0.200  54.089  1.00  0.00     0.273 C 
BRANCH  21  22
HETATM   22  N2  UNL     1      27.415  -0.180  53.265  1.00  0.00     0.097 N 
HETATM   23  C13 UNL     1      27.544   0.960  52.418  1.00  0.00     0.299 C 
HETATM   24  C14 UNL     1      27.509   2.215  53.223  1.00  0.00     0.198 C 
HETATM   25  O2  UNL     1      28.186   2.120  54.418  1.00  0.00    -0.387 OA
HETATM   26  C15 UNL     1      29.168   1.129  54.404  1.00  0.00     0.203 C 
HETATM   27  C16 UNL     1      28.565  -0.237  54.148  1.00  0.00     0.242 C 
HETATM   28  C17 UNL     1      29.564  -1.193  53.543  1.00  0.00     0.045 C 
ENDBRANCH  21  22
ENDBRANCH  20  21
ENDBRANCH  19  20
ENDBRANCH   3  19
TORSDOF 8
ENDMDL
MODEL 6
REMARK VINA RESULT:      -7.2      2.919      7.118
REMARK  8 active torsions:
REMARK  status: ('A' for Active; 'I' for Inactive)
REMARK    1  A    between atoms: C2_2  and  C3_3 
REMARK    2  A    between atoms: C3_3  and  O1_4 
REMARK    3  A    between atoms: O1_4  and  C4_5 
REMARK    4  A    between atoms: C7_8  and  N1_9 
REMARK    5  A    between atoms: C9_11  and  C10_12 
REMARK    6  A    between atoms: C10_12  and  C11_13 
REMARK    7  A    between atoms: C11_13  and  C12_14 
REMARK    8  A    between atoms: C12_14  and  N2_15 
ROOT
HETATM    1  N1  UNL     1      21.765   0.034  53.230  1.00  0.00    -0.242 N 
HETATM    2  C8  UNL     1      21.200   1.113  52.506  1.00  0.00     0.143 A 
HETATM    3  C9  UNL     1      19.889   1.260  52.239  1.00  0.00     0.028 A 
HETATM    4  N3  UNL     1      19.095   0.215  52.761  1.00  0.00    -0.352 N 
HETATM    5  C18 UNL     1      19.588  -0.895  53.495  1.00  0.00     0.230 A 
HETATM    6  N4  UNL     1      20.843  -0.931  53.684  1.00  0.00    -0.163 NA
HETATM    7  H27 UNL     1      18.068   0.274  52.612  1.00  0.00     0.166 HD
ENDROOT
BRANCH   1   8
HETATM    8  C7  UNL     1      23.141  -0.154  53.522  1.00  0.00     0.059 A 
HETATM    9  C6  UNL     1      23.499  -0.813  54.674  1.00  0.00     0.034 A 
HETATM   10  C5  UNL     1      24.833  -0.995  54.951  1.00  0.00     0.041 A 
HETATM   11  C4  UNL     1      25.850  -0.556  54.137  1.00  0.00     0.090 A 
HETATM   12  C20 UNL     1      25.444   0.114  52.970  1.00  0.00     0.069 A 
HETATM   13  C19 UNL     1      24.109   0.315  52.660  1.00  0.00     0.058 A 
HETATM   14 CL1  UNL     1      26.525   0.790  51.735  1.00  0.00    -0.081 Cl
BRANCH  11  15
HETATM   15  O1  UNL     1      27.195  -0.598  54.167  1.00  0.00    -0.349 OA
BRANCH  15  16
HETATM   16  C3  UNL     1      28.158   0.159  54.799  1.00  0.00     0.175 C 
BRANCH  16  17
HETATM   17  C2  UNL     1      29.389   0.289  53.968  1.00  0.00     0.022 C 
HETATM   18  C1  UNL     1      29.752  -1.091  53.459  1.00  0.00     0.007 C 
ENDBRANCH  16  17
ENDBRANCH  15  16
ENDBRANCH  11  15
ENDBRANCH   1   8
BRANCH   3  19
HETATM   19  C10 UNL     1      19.483   2.447  51.477  1.00  0.00     0.060 C 
BRANCH  19  20
HETATM   20  C11 UNL     1      20.533   3.108  50.652  1.00  0.00     0.036 C 
BRANCH  20  21
HETATM   21  C12 UNL     1      20.954   4.425  51.194  1.00  0.00     0.273 C 
BRANCH  21  22
HETATM   22  N2  UNL     1      22.086   5.011  50.520  1.00  0.00     0.097 N 
HETATM   23  C13 UNL     1      22.939   5.804  51.346  1.00  0.00     0.299 C 
HETATM   24  C14 UNL     1      23.439   5.002  52.500  1.00  0.00     0.198 C 
HETATM   25  O2  UNL     1      23.754   3.703  52.172  1.00  0.00    -0.387 OA
HETATM   26  C15 UNL     1      24.048   3.545  50.817  1.00  0.00     0.203 C 
HETATM   27  C16 UNL     1      22.866   3.928  49.950  1.00  0.00     0.242 C 
HETATM   28  C17 UNL     1      23.293   4.347  48.564  1.00  0.00     0.045 C 
ENDBRANCH  21  22
ENDBRANCH  20  21
ENDBRANCH  19  20
ENDBRANCH   3  19
TORSDOF 8
ENDMDL
MODEL 7
REMARK VINA RESULT:      -7.1      5.070      6.761
REMARK  8 active torsions:
REMARK  status: ('A' for Active; 'I' for Inactive)
REMARK    1  A    between atoms: C2_2  and  C3_3 
REMARK    2  A    between atoms: C3_3  and  O1_4 
REMARK    3  A    between atoms: O1_4  and  C4_5 
REMARK    4  A    between atoms: C7_8  and  N1_9 
REMARK    5  A    between atoms: C9_11  and  C10_12 
REMARK    6  A    between atoms: C10_12  and  C11_13 
REMARK    7  A    between atoms: C11_13  and  C12_14 
REMARK    8  A    between atoms: C12_14  and  N2_15 
ROOT
HETATM    1  N1  UNL     1      25.547   4.030  50.524  1.00  0.00    -0.242 N 
HETATM    2  C8  UNL     1      26.714   4.071  49.720  1.00  0.00     0.143 A 
HETATM    3  C9  UNL     1      27.170   5.162  49.078  1.00  0.00     0.028 A 
HETATM    4  N3  UNL     1      26.365   6.305  49.283  1.00  0.00    -0.352 N 
HETATM    5  C18 UNL     1      25.186   6.341  50.073  1.00  0.00     0.230 A 
HETATM    6  N4  UNL     1      24.849   5.250  50.630  1.00  0.00    -0.163 NA
HETATM    7  H27 UNL     1      26.669   7.192  48.835  1.00  0.00     0.166 HD
ENDROOT
BRANCH   1   8
HETATM    8  C7  UNL     1      25.036   2.895  51.207  1.00  0.00     0.059 A 
HETATM    9  C6  UNL     1      23.708   2.866  51.560  1.00  0.00     0.034 A 
HETATM   10  C5  UNL     1      23.217   1.763  52.218  1.00  0.00     0.041 A 
HETATM   11  C4  UNL     1      23.979   0.669  52.551  1.00  0.00     0.090 A 
HETATM   12  C20 UNL     1      25.332   0.738  52.174  1.00  0.00     0.069 A 
HETATM   13  C19 UNL     1      25.860   1.833  51.511  1.00  0.00     0.058 A 
HETATM   14 CL1  UNL     1      26.554  -0.516  52.469  1.00  0.00    -0.081 Cl
BRANCH  11  15
HETATM   15  O1  UNL     1      23.762  -0.504  53.174  1.00  0.00    -0.349 OA
BRANCH  15  16
HETATM   16  C3  UNL     1      23.540  -0.857  54.488  1.00  0.00     0.175 C 
BRANCH  16  17
HETATM   17  C2  UNL     1      22.160  -1.387  54.690  1.00  0.00     0.022 C 
HETATM   18  C1  UNL     1      21.208  -0.209  54.700  1.00  0.00     0.007 C 
ENDBRANCH  16  17
ENDBRANCH  15  16
ENDBRANCH  11  15
ENDBRANCH   1   8
BRANCH   3  19
HETATM   19  C10 UNL     1      28.400   5.019  48.291  1.00  0.00     0.060 C 
BRANCH  19  20
HETATM   20  C11 UNL     1      29.295   6.208  48.219  1.00  0.00     0.036 C 
BRANCH  20  21
HETATM   21  C12 UNL     1      30.725   5.874  48.436  1.00  0.00     0.273 C 
BRANCH  21  22
HETATM   22  N2  UNL     1      31.407   5.383  47.264  1.00  0.00     0.097 N 
HETATM   23  C13 UNL     1      32.261   6.327  46.620  1.00  0.00     0.299 C 
HETATM   24  C14 UNL     1      33.281   6.846  47.577  1.00  0.00     0.198 C 
HETATM   25  O2  UNL     1      33.777   5.883  48.426  1.00  0.00    -0.387 OA
HETATM   26  C15 UNL     1      33.652   4.592  47.911  1.00  0.00     0.203 C 
HETATM   27  C16 UNL     1      32.200   4.236  47.667  1.00  0.00     0.242 C 
HETATM   28  C17 UNL     1      32.048   3.175  46.605  1.00  0.00     0.045 C 
ENDBRANCH  21  22
ENDBRANCH  20  21
ENDBRANCH  19  20
ENDBRANCH   3  19
TORSDOF 8
ENDMDL
MODEL 8
REMARK VINA RESULT:      -7.1      5.512      7.188
REMARK  8 active torsions:
REMARK  status: ('A' for Active; 'I' for Inactive)
REMARK    1  A    between atoms: C2_2  and  C3_3 
REMARK    2  A    between atoms: C3_3  and  O1_4 
REMARK    3  A    between atoms: O1_4  and  C4_5 
REMARK    4  A    between atoms: C7_8  and  N1_9 
REMARK    5  A    between atoms: C9_11  and  C10_12 
REMARK    6  A    between atoms: C10_12  and  C11_13 
REMARK    7  A    between atoms: C11_13  and  C12_14 
REMARK    8  A    between atoms: C12_14  and  N2_15 
ROOT
HETATM    1  N1  UNL     1      26.270   4.782  49.374  1.00  0.00    -0.242 N 
HETATM    2  C8  UNL     1      27.609   4.683  48.918  1.00  0.00     0.143 A 
HETATM    3  C9  UNL     1      28.281   5.662  48.284  1.00  0.00     0.028 A 
HETATM    4  N3  UNL     1      27.518   6.838  48.109  1.00  0.00    -0.352 N 
HETATM    5  C18 UNL     1      26.177   7.011  48.539  1.00  0.00     0.230 A 
HETATM    6  N4  UNL     1      25.641   6.019  49.123  1.00  0.00    -0.163 NA
HETATM    7  H27 UNL     1      27.982   7.644  47.646  1.00  0.00     0.166 HD
ENDROOT
BRANCH   1   8
HETATM    8  C7  UNL     1      25.531   3.769  50.039  1.00  0.00     0.059 A 
HETATM    9  C6  UNL     1      24.171   3.699  49.854  1.00  0.00     0.034 A 
HETATM   10  C5  UNL     1      23.460   2.713  50.496  1.00  0.00     0.041 A 
HETATM   11  C4  UNL     1      24.030   1.775  51.324  1.00  0.00     0.090 A 
HETATM   12  C20 UNL     1      25.423   1.880  51.488  1.00  0.00     0.069 A 
HETATM   13  C19 UNL     1      26.169   2.861  50.857  1.00  0.00     0.058 A 
HETATM   14 CL1  UNL     1      26.430   0.818  52.492  1.00  0.00    -0.081 Cl
BRANCH  11  15
HETATM   15  O1  UNL     1      23.585   0.737  52.055  1.00  0.00    -0.349 OA
BRANCH  15  16
HETATM   16  C3  UNL     1      22.841   0.635  53.211  1.00  0.00     0.175 C 
BRANCH  16  17
HETATM   17  C2  UNL     1      23.187  -0.593  53.982  1.00  0.00     0.022 C 
HETATM   18  C1  UNL     1      21.931  -1.068  54.685  1.00  0.00     0.007 C 
ENDBRANCH  16  17
ENDBRANCH  15  16
ENDBRANCH  11  15
ENDBRANCH   1   8
BRANCH   3  19
HETATM   19  C10 UNL     1      29.666   5.382  47.886  1.00  0.00     0.060 C 
BRANCH  19  20
HETATM   20  C11 UNL     1      30.736   6.132  48.602  1.00  0.00     0.036 C 
BRANCH  20  21
HETATM   21  C12 UNL     1      32.007   5.371  48.710  1.00  0.00     0.273 C 
BRANCH  21  22
HETATM   22  N2  UNL     1      32.492   4.842  47.460  1.00  0.00     0.097 N 
HETATM   23  C13 UNL     1      33.542   5.592  46.851  1.00  0.00     0.299 C 
HETATM   24  C14 UNL     1      34.696   5.728  47.786  1.00  0.00     0.198 C 
HETATM   25  O2  UNL     1      34.950   4.588  48.515  1.00  0.00    -0.387 OA
HETATM   26  C15 UNL     1      34.470   3.433  47.896  1.00  0.00     0.203 C 
HETATM   27  C16 UNL     1      32.968   3.493  47.711  1.00  0.00     0.242 C 
HETATM   28  C17 UNL     1      32.503   2.621  46.570  1.00  0.00     0.045 C 
ENDBRANCH  21  22
ENDBRANCH  20  21
ENDBRANCH  19  20
ENDBRANCH   3  19
TORSDOF 8
ENDMDL
MODEL 9
REMARK VINA RESULT:      -6.9      3.213      7.258
REMARK  8 active torsions:
REMARK  status: ('A' for Active; 'I' for Inactive)
REMARK    1  A    between atoms: C2_2  and  C3_3 
REMARK    2  A    between atoms: C3_3  and  O1_4 
REMARK    3  A    between atoms: O1_4  and  C4_5 
REMARK    4  A    between atoms: C7_8  and  N1_9 
REMARK    5  A    between atoms: C9_11  and  C10_12 
REMARK    6  A    between atoms: C10_12  and  C11_13 
REMARK    7  A    between atoms: C11_13  and  C12_14 
REMARK    8  A    between atoms: C12_14  and  N2_15 
ROOT
HETATM    1  N1  UNL     1      22.489   1.183  52.095  1.00  0.00    -0.242 N 
HETATM    2  C8  UNL     1      22.091   2.514  51.811  1.00  0.00     0.143 A 
HETATM    3  C9  UNL     1      20.893   2.870  51.312  1.00  0.00     0.028 A 
HETATM    4  N3  UNL     1      20.033   1.772  51.091  1.00  0.00    -0.352 N 
HETATM    5  C18 UNL     1      20.360   0.415  51.352  1.00  0.00     0.230 A 
HETATM    6  N4  UNL     1      21.520   0.197  51.819  1.00  0.00    -0.163 NA
HETATM    7  H27 UNL     1      19.081   1.974  50.727  1.00  0.00     0.166 HD
ENDROOT
BRANCH   1   8
HETATM    8  C7  UNL     1      23.745   0.774  52.614  1.00  0.00     0.059 A 
HETATM    9  C6  UNL     1      24.894   1.129  51.950  1.00  0.00     0.034 A 
HETATM   10  C5  UNL     1      26.108   0.734  52.459  1.00  0.00     0.041 A 
HETATM   11  C4  UNL     1      26.252  -0.005  53.609  1.00  0.00     0.090 A 
HETATM   12  C20 UNL     1      25.053  -0.349  54.259  1.00  0.00     0.069 A 
HETATM   13  C19 UNL     1      23.813   0.032  53.774  1.00  0.00     0.058 A 
HETATM   14 CL1  UNL     1      24.922  -1.294  55.756  1.00  0.00    -0.081 Cl
BRANCH  11  15
HETATM   15  O1  UNL     1      27.285  -0.511  54.307  1.00  0.00    -0.349 OA
BRANCH  15  16
HETATM   16  C3  UNL     1      28.508  -0.009  54.697  1.00  0.00     0.175 C 
BRANCH  16  17
HETATM   17  C2  UNL     1      29.570  -0.306  53.693  1.00  0.00     0.022 C 
HETATM   18  C1  UNL     1      29.468  -1.774  53.331  1.00  0.00     0.007 C 
ENDBRANCH  16  17
ENDBRANCH  15  16
ENDBRANCH  11  15
ENDBRANCH   1   8
BRANCH   3  19
HETATM   19  C10 UNL     1      20.654   4.300  51.083  1.00  0.00     0.060 C 
BRANCH  19  20
HETATM   20  C11 UNL     1      21.692   5.244  51.586  1.00  0.00     0.036 C 
BRANCH  20  21
HETATM   21  C12 UNL     1      21.921   6.395  50.676  1.00  0.00     0.273 C 
BRANCH  21  22
HETATM   22  N2  UNL     1      22.943   6.175  49.683  1.00  0.00     0.097 N 
HETATM   23  C13 UNL     1      23.172   7.269  48.796  1.00  0.00     0.299 C 
HETATM   24  C14 UNL     1      23.519   8.499  49.565  1.00  0.00     0.198 C 
HETATM   25  O2  UNL     1      24.337   8.260  50.645  1.00  0.00    -0.387 OA
HETATM   26  C15 UNL     1      25.081   7.086  50.509  1.00  0.00     0.203 C 
HETATM   27  C16 UNL     1      24.179   5.876  50.383  1.00  0.00     0.242 C 
HETATM   28  C17 UNL     1      24.856   4.738  49.659  1.00  0.00     0.045 C 
ENDBRANCH  21  22
ENDBRANCH  20  21
ENDBRANCH  19  20
ENDBRANCH   3  19
TORSDOF 8
ENDMDL
