MODEL 1
REMARK VINA RESULT:      -7.9      0.000      0.000
REMARK  6 active torsions:
REMARK  status: ('A' for Active; 'I' for Inactive)
REMARK    1  A    between atoms: N1_1  and  C1_2 
REMARK    2  A    between atoms: C1_2  and  N2_3 
REMARK    3  A    between atoms: N2_3  and  C2_4 
REMARK    4  A    between atoms: C7_11  and  C8_12 
REMARK    5  A    between atoms: C12_16  and  C13_17 
REMARK    6  A    between atoms: C14_18  and  O1_19 
ROOT
HETATM    1  C2  UNL     1      20.622   1.005  49.925  1.00  0.00     0.030 A 
HETATM    2  C3  UNL     1      19.368   0.705  50.401  1.00  0.00     0.031 A 
HETATM    3  C4  UNL     1      19.154   0.296  51.721  1.00  0.00     0.035 A 
HETATM    4  C5  UNL     1      20.226   0.181  52.605  1.00  0.00     0.070 A 
HETATM    5  N3  UNL     1      20.109  -0.213  53.879  1.00  0.00    -0.241 NA
HETATM    6  C6  UNL     1      21.222  -0.298  54.641  1.00  0.00     0.234 A 
HETATM    7  N4  UNL     1      22.414   0.003  54.138  1.00  0.00    -0.240 NA
HETATM    8  C7  UNL     1      22.602   0.410  52.852  1.00  0.00     0.081 A 
HETATM    9  C16 UNL     1      21.466   0.489  52.092  1.00  0.00     0.025 A 
HETATM   10  C17 UNL     1      21.686   0.893  50.792  1.00  0.00     0.045 A 
ENDROOT
BRANCH   8  11
HETATM   11  C8  UNL     1      23.990   0.682  52.518  1.00  0.00    -0.005 A 
HETATM   12  C9  UNL     1      24.578   1.811  51.994  1.00  0.00     0.014 A 
HETATM   13  C10 UNL     1      25.928   1.862  51.724  1.00  0.00     0.002 A 
HETATM   14  C11 UNL     1      26.767   0.795  51.962  1.00  0.00     0.021 A 
HETATM   15  C12 UNL     1      26.223  -0.358  52.488  1.00  0.00     0.020 A 
HETATM   16  C15 UNL     1      24.869  -0.383  52.749  1.00  0.00     0.034 A 
BRANCH  15  17
HETATM   17  C13 UNL     1      27.063  -1.493  52.750  1.00  0.00    -0.037 C 
HETATM   18  C14 UNL     1      27.771  -2.443  52.989  1.00  0.00     0.057 C 
BRANCH  18  19
HETATM   19  O1  UNL     1      28.580  -3.515  53.282  1.00  0.00    -0.314 OA
HETATM   20  H12 UNL     1      29.280  -3.482  54.025  1.00  0.00     0.230 HD
ENDBRANCH  18  19
ENDBRANCH  15  17
ENDBRANCH   8  11
BRANCH   1  21
HETATM   21  N2  UNL     1      20.824   1.419  48.581  1.00  0.00    -0.365 N 
HETATM   22  H5  UNL     1      21.347   0.798  47.928  1.00  0.00     0.161 HD
BRANCH  21  23
HETATM   23  C1  UNL     1      20.297   2.699  48.148  1.00  0.00     0.389 C 
BRANCH  23  24
HETATM   24  N1  UNL     1      19.080   2.572  47.363  1.00  0.00     0.095 N 
HETATM   25  H1  UNL     1      18.291   2.984  47.911  1.00  0.00     0.314 HD
HETATM   26  H2  UNL     1      18.857   1.541  47.278  1.00  0.00     0.314 HD
ENDBRANCH  23  24
ENDBRANCH  21  23
ENDBRANCH   1  21
TORSDOF 6
ENDMDL
MODEL 2
REMARK VINA RESULT:      -7.8      3.649      7.212
REMARK  6 active torsions:
REMARK  status: ('A' for Active; 'I' for Inactive)
REMARK    1  A    between atoms: N1_1  and  C1_2 
REMARK    2  A    between atoms: C1_2  and  N2_3 
REMARK    3  A    between atoms: N2_3  and  C2_4 
REMARK    4  A    between atoms: C7_11  and  C8_12 
REMARK    5  A    between atoms: C12_16  and  C13_17 
REMARK    6  A    between atoms: C14_18  and  O1_19 
ROOT
HETATM    1  C2  UNL     1      26.705  -0.054  53.035  1.00  0.00     0.030 A 
HETATM    2  C3  UNL     1      27.441   0.956  52.464  1.00  0.00     0.031 A 
HETATM    3  C4  UNL     1      26.844   2.112  51.951  1.00  0.00     0.035 A 
HETATM    4  C5  UNL     1      25.460   2.273  52.007  1.00  0.00     0.070 A 
HETATM    5  N3  UNL     1      24.809   3.341  51.532  1.00  0.00    -0.241 NA
HETATM    6  C6  UNL     1      23.462   3.384  51.631  1.00  0.00     0.234 A 
HETATM    7  N4  UNL     1      22.791   2.383  52.192  1.00  0.00    -0.240 NA
HETATM    8  C7  UNL     1      23.392   1.270  52.695  1.00  0.00     0.081 A 
HETATM    9  C16 UNL     1      24.755   1.240  52.585  1.00  0.00     0.025 A 
HETATM   10  C17 UNL     1      25.336   0.098  53.092  1.00  0.00     0.045 A 
ENDROOT
BRANCH   8  11
HETATM   11  C8  UNL     1      22.462   0.304  53.258  1.00  0.00    -0.005 A 
HETATM   12  C9  UNL     1      22.653  -0.667  54.216  1.00  0.00     0.014 A 
HETATM   13  C10 UNL     1      21.634  -1.510  54.601  1.00  0.00     0.002 A 
HETATM   14  C11 UNL     1      20.371  -1.433  54.057  1.00  0.00     0.021 A 
HETATM   15  C12 UNL     1      20.131  -0.475  53.094  1.00  0.00     0.020 A 
HETATM   16  C15 UNL     1      21.168   0.356  52.726  1.00  0.00     0.034 A 
BRANCH  15  17
HETATM   17  C13 UNL     1      18.828  -0.363  52.502  1.00  0.00    -0.037 C 
HETATM   18  C14 UNL     1      17.723  -0.280  52.018  1.00  0.00     0.057 C 
BRANCH  18  19
HETATM   19  O1  UNL     1      16.459  -0.200  51.483  1.00  0.00    -0.314 OA
HETATM   20  H12 UNL     1      16.251   0.375  50.665  1.00  0.00     0.230 HD
ENDBRANCH  18  19
ENDBRANCH  15  17
ENDBRANCH   8  11
BRANCH   1  21
HETATM   21  N2  UNL     1      27.326  -1.223  53.551  1.00  0.00    -0.365 N 
HETATM   22  H5  UNL     1      27.695  -1.218  54.525  1.00  0.00     0.161 HD
BRANCH  21  23
HETATM   23  C1  UNL     1      27.431  -2.398  52.708  1.00  0.00     0.389 C 
BRANCH  23  24
HETATM   24  N1  UNL     1      28.512  -3.285  53.108  1.00  0.00     0.095 N 
HETATM   25  H1  UNL     1      28.465  -3.414  54.144  1.00  0.00     0.314 HD
HETATM   26  H2  UNL     1      29.425  -2.782  52.927  1.00  0.00     0.314 HD
ENDBRANCH  23  24
ENDBRANCH  21  23
ENDBRANCH   1  21
TORSDOF 6
ENDMDL
MODEL 3
REMARK VINA RESULT:      -7.8      3.313      5.239
REMARK  6 active torsions:
REMARK  status: ('A' for Active; 'I' for Inactive)
REMARK    1  A    between atoms: N1_1  and  C1_2 
REMARK    2  A    between atoms: C1_2  and  N2_3 
REMARK    3  A    between atoms: N2_3  and  C2_4 
REMARK    4  A    between atoms: C7_11  and  C8_12 
REMARK    5  A    between atoms: C12_16  and  C13_17 
REMARK    6  A    between atoms: C14_18  and  O1_19 
ROOT
HETATM    1  C2  UNL     1      21.505  -0.143  54.154  1.00  0.00     0.030 A 
HETATM    2  C3  UNL     1      21.967  -0.991  55.132  1.00  0.00     0.031 A 
HETATM    3  C4  UNL     1      23.325  -1.300  55.266  1.00  0.00     0.035 A 
HETATM    4  C5  UNL     1      24.261  -0.746  54.394  1.00  0.00     0.070 A 
HETATM    5  N3  UNL     1      25.575  -0.997  54.446  1.00  0.00    -0.241 NA
HETATM    6  C6  UNL     1      26.390  -0.411  53.542  1.00  0.00     0.234 A 
HETATM    7  N4  UNL     1      25.898   0.403  52.613  1.00  0.00    -0.240 NA
HETATM    8  C7  UNL     1      24.574   0.701  52.506  1.00  0.00     0.081 A 
HETATM    9  C16 UNL     1      23.762   0.098  53.427  1.00  0.00     0.025 A 
HETATM   10  C17 UNL     1      22.426   0.408  53.289  1.00  0.00     0.045 A 
ENDROOT
BRANCH   8  11
HETATM   11  C8  UNL     1      24.262   1.610  51.415  1.00  0.00    -0.005 A 
HETATM   12  C9  UNL     1      23.080   1.831  50.746  1.00  0.00     0.014 A 
HETATM   13  C10 UNL     1      22.996   2.734  49.709  1.00  0.00     0.002 A 
HETATM   14  C11 UNL     1      24.081   3.467  49.282  1.00  0.00     0.021 A 
HETATM   15  C12 UNL     1      25.288   3.280  49.923  1.00  0.00     0.020 A 
HETATM   16  C15 UNL     1      25.345   2.371  50.958  1.00  0.00     0.034 A 
BRANCH  15  17
HETATM   17  C13 UNL     1      26.443   4.025  49.508  1.00  0.00    -0.037 C 
HETATM   18  C14 UNL     1      27.428   4.642  49.171  1.00  0.00     0.057 C 
BRANCH  18  19
HETATM   19  O1  UNL     1      28.558   5.332  48.803  1.00  0.00    -0.314 OA
HETATM   20  H12 UNL     1      28.632   5.816  47.908  1.00  0.00     0.230 HD
ENDBRANCH  18  19
ENDBRANCH  15  17
ENDBRANCH   8  11
BRANCH   1  21
HETATM   21  N2  UNL     1      20.123   0.162  54.030  1.00  0.00    -0.365 N 
HETATM   22  H5  UNL     1      19.728   0.970  54.556  1.00  0.00     0.161 HD
BRANCH  21  23
HETATM   23  C1  UNL     1      19.292  -0.661  53.173  1.00  0.00     0.389 C 
BRANCH  23  24
HETATM   24  N1  UNL     1      18.490  -1.620  53.915  1.00  0.00     0.095 N 
HETATM   25  H1  UNL     1      18.999  -2.532  53.931  1.00  0.00     0.314 HD
HETATM   26  H2  UNL     1      17.606  -1.799  53.361  1.00  0.00     0.314 HD
ENDBRANCH  23  24
ENDBRANCH  21  23
ENDBRANCH   1  21
TORSDOF 6
ENDMDL
MODEL 4
REMARK VINA RESULT:      -7.7      3.449      6.046
REMARK  6 active torsions:
REMARK  status: ('A' for Active; 'I' for Inactive)
REMARK    1  A    between atoms: N1_1  and  C1_2 
REMARK    2  A    between atoms: C1_2  and  N2_3 
REMARK    3  A    between atoms: N2_3  and  C2_4 
REMARK    4  A    between atoms: C7_11  and  C8_12 
REMARK    5  A    between atoms: C12_16  and  C13_17 
REMARK    6  A    between atoms: C14_18  and  O1_19 
ROOT
HETATM    1  C2  UNL     1      25.356  -0.122  54.130  1.00  0.00     0.030 A 
HETATM    2  C3  UNL     1      25.083  -0.953  55.191  1.00  0.00     0.031 A 
HETATM    3  C4  UNL     1      23.787  -1.402  55.468  1.00  0.00     0.035 A 
HETATM    4  C5  UNL     1      22.720  -1.011  54.661  1.00  0.00     0.070 A 
HETATM    5  N3  UNL     1      21.451  -1.387  54.862  1.00  0.00    -0.241 NA
HETATM    6  C6  UNL     1      20.495  -0.938  54.019  1.00  0.00     0.234 A 
HETATM    7  N4  UNL     1      20.806  -0.136  53.005  1.00  0.00    -0.240 NA
HETATM    8  C7  UNL     1      22.075   0.282  52.745  1.00  0.00     0.081 A 
HETATM    9  C16 UNL     1      23.031  -0.179  53.608  1.00  0.00     0.025 A 
HETATM   10  C17 UNL     1      24.305   0.268  53.328  1.00  0.00     0.045 A 
ENDROOT
BRANCH   8  11
HETATM   11  C8  UNL     1      22.180   1.156  51.589  1.00  0.00    -0.005 A 
HETATM   12  C9  UNL     1      21.894   0.922  50.262  1.00  0.00     0.014 A 
HETATM   13  C10 UNL     1      22.087   1.890  49.301  1.00  0.00     0.002 A 
HETATM   14  C11 UNL     1      22.572   3.143  49.606  1.00  0.00     0.021 A 
HETATM   15  C12 UNL     1      22.871   3.424  50.922  1.00  0.00     0.020 A 
HETATM   16  C15 UNL     1      22.670   2.438  51.865  1.00  0.00     0.034 A 
BRANCH  15  17
HETATM   17  C13 UNL     1      23.380   4.718  51.281  1.00  0.00    -0.037 C 
HETATM   18  C14 UNL     1      23.823   5.800  51.592  1.00  0.00     0.057 C 
BRANCH  18  19
HETATM   19  O1  UNL     1      24.341   7.019  51.959  1.00  0.00    -0.314 OA
HETATM   20  H12 UNL     1      23.901   7.605  52.670  1.00  0.00     0.230 HD
ENDBRANCH  18  19
ENDBRANCH  15  17
ENDBRANCH   8  11
BRANCH   1  21
HETATM   21  N2  UNL     1      26.677   0.326  53.861  1.00  0.00    -0.365 N 
HETATM   22  H5  UNL     1      27.485  -0.270  54.137  1.00  0.00     0.161 HD
BRANCH  21  23
HETATM   23  C1  UNL     1      26.869   1.607  53.209  1.00  0.00     0.389 C 
BRANCH  23  24
HETATM   24  N1  UNL     1      27.487   2.596  54.077  1.00  0.00     0.095 N 
HETATM   25  H1  UNL     1      27.041   3.522  53.889  1.00  0.00     0.314 HD
HETATM   26  H2  UNL     1      28.496   2.702  53.777  1.00  0.00     0.314 HD
ENDBRANCH  23  24
ENDBRANCH  21  23
ENDBRANCH   1  21
TORSDOF 6
ENDMDL
MODEL 5
REMARK VINA RESULT:      -7.6      3.716      6.339
REMARK  6 active torsions:
REMARK  status: ('A' for Active; 'I' for Inactive)
REMARK    1  A    between atoms: N1_1  and  C1_2 
REMARK    2  A    between atoms: C1_2  and  N2_3 
REMARK    3  A    between atoms: N2_3  and  C2_4 
REMARK    4  A    between atoms: C7_11  and  C8_12 
REMARK    5  A    between atoms: C12_16  and  C13_17 
REMARK    6  A    between atoms: C14_18  and  O1_19 
ROOT
HETATM    1  C2  UNL     1      26.731   1.961  52.537  1.00  0.00     0.030 A 
HETATM    2  C3  UNL     1      27.643   1.537  53.474  1.00  0.00     0.031 A 
HETATM    3  C4  UNL     1      27.316   0.592  54.453  1.00  0.00     0.035 A 
HETATM    4  C5  UNL     1      26.035   0.046  54.503  1.00  0.00     0.070 A 
HETATM    5  N3  UNL     1      25.638  -0.854  55.412  1.00  0.00    -0.241 NA
HETATM    6  C6  UNL     1      24.366  -1.307  55.371  1.00  0.00     0.234 A 
HETATM    7  N4  UNL     1      23.518  -0.869  54.445  1.00  0.00    -0.240 NA
HETATM    8  C7  UNL     1      23.858   0.044  53.493  1.00  0.00     0.081 A 
HETATM    9  C16 UNL     1      25.149   0.495  53.549  1.00  0.00     0.025 A 
HETATM   10  C17 UNL     1      25.462   1.425  52.582  1.00  0.00     0.045 A 
ENDROOT
BRANCH   8  11
HETATM   11  C8  UNL     1      22.772   0.379  52.587  1.00  0.00    -0.005 A 
HETATM   12  C9  UNL     1      22.770   1.136  51.437  1.00  0.00     0.014 A 
HETATM   13  C10 UNL     1      21.613   1.358  50.722  1.00  0.00     0.002 A 
HETATM   14  C11 UNL     1      20.398   0.838  51.110  1.00  0.00     0.021 A 
HETATM   15  C12 UNL     1      20.351   0.072  52.256  1.00  0.00     0.020 A 
HETATM   16  C15 UNL     1      21.522  -0.134  52.953  1.00  0.00     0.034 A 
BRANCH  15  17
HETATM   17  C13 UNL     1      19.103  -0.486  52.695  1.00  0.00    -0.037 C 
HETATM   18  C14 UNL     1      18.042  -0.942  53.056  1.00  0.00     0.057 C 
BRANCH  18  19
HETATM   19  O1  UNL     1      16.827  -1.442  53.458  1.00  0.00    -0.314 OA
HETATM   20  H12 UNL     1      16.294  -1.026  54.222  1.00  0.00     0.230 HD
ENDBRANCH  18  19
ENDBRANCH  15  17
ENDBRANCH   8  11
BRANCH   1  21
HETATM   21  N2  UNL     1      27.077   2.921  51.549  1.00  0.00    -0.365 N 
HETATM   22  H5  UNL     1      28.015   3.374  51.581  1.00  0.00     0.161 HD
BRANCH  21  23
HETATM   23  C1  UNL     1      26.113   3.251  50.516  1.00  0.00     0.389 C 
BRANCH  23  24
HETATM   24  N1  UNL     1      25.891   4.682  50.389  1.00  0.00     0.095 N 
HETATM   25  H1  UNL     1      25.481   4.868  49.445  1.00  0.00     0.314 HD
HETATM   26  H2  UNL     1      26.837   5.157  50.385  1.00  0.00     0.314 HD
ENDBRANCH  23  24
ENDBRANCH  21  23
ENDBRANCH   1  21
TORSDOF 6
ENDMDL
MODEL 6
REMARK VINA RESULT:      -7.5      5.239      7.762
REMARK  6 active torsions:
REMARK  status: ('A' for Active; 'I' for Inactive)
REMARK    1  A    between atoms: N1_1  and  C1_2 
REMARK    2  A    between atoms: C1_2  and  N2_3 
REMARK    3  A    between atoms: N2_3  and  C2_4 
REMARK    4  A    between atoms: C7_11  and  C8_12 
REMARK    5  A    between atoms: C12_16  and  C13_17 
REMARK    6  A    between atoms: C14_18  and  O1_19 
ROOT
HETATM    1  C2  UNL     1      25.929   2.183  53.061  1.00  0.00     0.030 A 
HETATM    2  C3  UNL     1      24.928   1.309  53.414  1.00  0.00     0.031 A 
HETATM    3  C4  UNL     1      23.829   1.065  52.584  1.00  0.00     0.035 A 
HETATM    4  C5  UNL     1      23.718   1.713  51.355  1.00  0.00     0.070 A 
HETATM    5  N3  UNL     1      22.696   1.545  50.507  1.00  0.00    -0.241 NA
HETATM    6  C6  UNL     1      22.689   2.235  49.345  1.00  0.00     0.234 A 
HETATM    7  N4  UNL     1      23.679   3.069  49.045  1.00  0.00    -0.240 NA
HETATM    8  C7  UNL     1      24.747   3.285  49.862  1.00  0.00     0.081 A 
HETATM    9  C16 UNL     1      24.739   2.581  51.035  1.00  0.00     0.025 A 
HETATM   10  C17 UNL     1      25.825   2.827  51.847  1.00  0.00     0.045 A 
ENDROOT
BRANCH   8  11
HETATM   11  C8  UNL     1      25.707   4.241  49.333  1.00  0.00    -0.005 A 
HETATM   12  C9  UNL     1      27.053   4.107  49.079  1.00  0.00     0.014 A 
HETATM   13  C10 UNL     1      27.803   5.155  48.592  1.00  0.00     0.002 A 
HETATM   14  C11 UNL     1      27.255   6.392  48.330  1.00  0.00     0.021 A 
HETATM   15  C12 UNL     1      25.909   6.573  48.568  1.00  0.00     0.020 A 
HETATM   16  C15 UNL     1      25.181   5.508  49.056  1.00  0.00     0.034 A 
BRANCH  15  17
HETATM   17  C13 UNL     1      25.300   7.847  48.309  1.00  0.00    -0.037 C 
HETATM   18  C14 UNL     1      24.802   8.925  48.078  1.00  0.00     0.057 C 
BRANCH  18  19
HETATM   19  O1  UNL     1      24.254  10.156  47.804  1.00  0.00    -0.314 OA
HETATM   20  H12 UNL     1      24.693  11.026  48.107  1.00  0.00     0.230 HD
ENDBRANCH  18  19
ENDBRANCH  15  17
ENDBRANCH   8  11
BRANCH   1  21
HETATM   21  N2  UNL     1      27.039   2.421  53.914  1.00  0.00    -0.365 N 
HETATM   22  H5  UNL     1      26.873   2.694  54.906  1.00  0.00     0.161 HD
BRANCH  21  23
HETATM   23  C1  UNL     1      28.381   2.279  53.384  1.00  0.00     0.389 C 
BRANCH  23  24
HETATM   24  N1  UNL     1      29.394   2.199  54.424  1.00  0.00     0.095 N 
HETATM   25  H1  UNL     1      29.057   2.739  55.253  1.00  0.00     0.314 HD
HETATM   26  H2  UNL     1      30.251   2.714  54.080  1.00  0.00     0.314 HD
ENDBRANCH  23  24
ENDBRANCH  21  23
ENDBRANCH   1  21
TORSDOF 6
ENDMDL
MODEL 7
REMARK VINA RESULT:      -7.5      3.312      5.861
REMARK  6 active torsions:
REMARK  status: ('A' for Active; 'I' for Inactive)
REMARK    1  A    between atoms: N1_1  and  C1_2 
REMARK    2  A    between atoms: C1_2  and  N2_3 
REMARK    3  A    between atoms: N2_3  and  C2_4 
REMARK    4  A    between atoms: C7_11  and  C8_12 
REMARK    5  A    between atoms: C12_16  and  C13_17 
REMARK    6  A    between atoms: C14_18  and  O1_19 
ROOT
HETATM    1  C2  UNL     1      23.663  -0.489  53.885  1.00  0.00     0.030 A 
HETATM    2  C3  UNL     1      22.909  -1.231  54.762  1.00  0.00     0.031 A 
HETATM    3  C4  UNL     1      21.521  -1.349  54.632  1.00  0.00     0.035 A 
HETATM    4  C5  UNL     1      20.855  -0.705  53.591  1.00  0.00     0.070 A 
HETATM    5  N3  UNL     1      19.531  -0.757  53.401  1.00  0.00    -0.241 NA
HETATM    6  C6  UNL     1      18.992  -0.084  52.361  1.00  0.00     0.234 A 
HETATM    7  N4  UNL     1      19.761   0.621  51.537  1.00  0.00    -0.240 NA
HETATM    8  C7  UNL     1      21.112   0.715  51.674  1.00  0.00     0.081 A 
HETATM    9  C16 UNL     1      21.643   0.029  52.732  1.00  0.00     0.025 A 
HETATM   10  C17 UNL     1      23.010   0.151  52.853  1.00  0.00     0.045 A 
ENDROOT
BRANCH   8  11
HETATM   11  C8  UNL     1      21.748   1.541  50.661  1.00  0.00    -0.005 A 
HETATM   12  C9  UNL     1      21.929   1.323  49.314  1.00  0.00     0.014 A 
HETATM   13  C10 UNL     1      22.588   2.234  48.518  1.00  0.00     0.002 A 
HETATM   14  C11 UNL     1      23.103   3.410  49.017  1.00  0.00     0.021 A 
HETATM   15  C12 UNL     1      22.946   3.673  50.361  1.00  0.00     0.020 A 
HETATM   16  C15 UNL     1      22.282   2.745  51.136  1.00  0.00     0.034 A 
BRANCH  15  17
HETATM   17  C13 UNL     1      23.468   4.888  50.921  1.00  0.00    -0.037 C 
HETATM   18  C14 UNL     1      23.927   5.904  51.390  1.00  0.00     0.057 C 
BRANCH  18  19
HETATM   19  O1  UNL     1      24.468   7.049  51.924  1.00  0.00    -0.314 OA
HETATM   20  H12 UNL     1      24.765   7.833  51.341  1.00  0.00     0.230 HD
ENDBRANCH  18  19
ENDBRANCH  15  17
ENDBRANCH   8  11
BRANCH   1  21
HETATM   21  N2  UNL     1      25.072  -0.378  54.029  1.00  0.00    -0.365 N 
HETATM   22  H5  UNL     1      25.464   0.108  54.863  1.00  0.00     0.161 HD
BRANCH  21  23
HETATM   23  C1  UNL     1      25.933  -0.944  53.010  1.00  0.00     0.389 C 
BRANCH  23  24
HETATM   24  N1  UNL     1      27.252  -1.291  53.514  1.00  0.00     0.095 N 
HETATM   25  H1  UNL     1      27.472  -0.663  54.319  1.00  0.00     0.314 HD
HETATM   26  H2  UNL     1      27.958  -1.047  52.764  1.00  0.00     0.314 HD
ENDBRANCH  23  24
ENDBRANCH  21  23
ENDBRANCH   1  21
TORSDOF 6
ENDMDL
MODEL 8
REMARK VINA RESULT:      -7.4      3.857      6.339
REMARK  6 active torsions:
REMARK  status: ('A' for Active; 'I' for Inactive)
REMARK    1  A    between atoms: N1_1  and  C1_2 
REMARK    2  A    between atoms: C1_2  and  N2_3 
REMARK    3  A    between atoms: N2_3  and  C2_4 
REMARK    4  A    between atoms: C7_11  and  C8_12 
REMARK    5  A    between atoms: C12_16  and  C13_17 
REMARK    6  A    between atoms: C14_18  and  O1_19 
ROOT
HETATM    1  C2  UNL     1      23.889  -0.323  53.776  1.00  0.00     0.030 A 
HETATM    2  C3  UNL     1      24.577  -0.888  54.823  1.00  0.00     0.031 A 
HETATM    3  C4  UNL     1      25.900  -0.542  55.114  1.00  0.00     0.035 A 
HETATM    4  C5  UNL     1      26.568   0.402  54.336  1.00  0.00     0.070 A 
HETATM    5  N3  UNL     1      27.835   0.782  54.540  1.00  0.00    -0.241 NA
HETATM    6  C6  UNL     1      28.384   1.700  53.715  1.00  0.00     0.234 A 
HETATM    7  N4  UNL     1      27.680   2.221  52.715  1.00  0.00    -0.240 NA
HETATM    8  C7  UNL     1      26.388   1.879  52.453  1.00  0.00     0.081 A 
HETATM    9  C16 UNL     1      25.847   0.946  53.296  1.00  0.00     0.025 A 
HETATM   10  C17 UNL     1      24.543   0.611  53.002  1.00  0.00     0.045 A 
ENDROOT
BRANCH   8  11
HETATM   11  C8  UNL     1      25.817   2.570  51.309  1.00  0.00    -0.005 A 
HETATM   12  C9  UNL     1      24.537   2.553  50.802  1.00  0.00     0.014 A 
HETATM   13  C10 UNL     1      24.198   3.272  49.677  1.00  0.00     0.002 A 
HETATM   14  C11 UNL     1      25.111   4.049  48.997  1.00  0.00     0.021 A 
HETATM   15  C12 UNL     1      26.405   4.098  49.469  1.00  0.00     0.020 A 
HETATM   16  C15 UNL     1      26.720   3.369  50.596  1.00  0.00     0.034 A 
BRANCH  15  17
HETATM   17  C13 UNL     1      27.387   4.895  48.788  1.00  0.00    -0.037 C 
HETATM   18  C14 UNL     1      28.210   5.581  48.227  1.00  0.00     0.057 C 
BRANCH  18  19
HETATM   19  O1  UNL     1      29.140   6.378  47.602  1.00  0.00    -0.314 OA
HETATM   20  H12 UNL     1      29.868   5.993  46.999  1.00  0.00     0.230 HD
ENDBRANCH  18  19
ENDBRANCH  15  17
ENDBRANCH   8  11
BRANCH   1  21
HETATM   21  N2  UNL     1      22.545  -0.685  53.491  1.00  0.00    -0.365 N 
HETATM   22  H5  UNL     1      22.338  -1.639  53.125  1.00  0.00     0.161 HD
BRANCH  21  23
HETATM   23  C1  UNL     1      21.490   0.283  53.717  1.00  0.00     0.389 C 
BRANCH  23  24
HETATM   24  N1  UNL     1      20.787   0.071  54.972  1.00  0.00     0.095 N 
HETATM   25  H1  UNL     1      20.020  -0.619  54.806  1.00  0.00     0.314 HD
HETATM   26  H2  UNL     1      20.302   0.976  55.227  1.00  0.00     0.314 HD
ENDBRANCH  23  24
ENDBRANCH  21  23
ENDBRANCH   1  21
TORSDOF 6
ENDMDL
MODEL 9
REMARK VINA RESULT:      -7.4      3.535      6.195
REMARK  6 active torsions:
REMARK  status: ('A' for Active; 'I' for Inactive)
REMARK    1  A    between atoms: N1_1  and  C1_2 
REMARK    2  A    between atoms: C1_2  and  N2_3 
REMARK    3  A    between atoms: N2_3  and  C2_4 
REMARK    4  A    between atoms: C7_11  and  C8_12 
REMARK    5  A    between atoms: C12_16  and  C13_17 
REMARK    6  A    between atoms: C14_18  and  O1_19 
ROOT
HETATM    1  C2  UNL     1      24.573   3.239  51.266  1.00  0.00     0.030 A 
HETATM    2  C3  UNL     1      25.914   3.267  50.965  1.00  0.00     0.031 A 
HETATM    3  C4  UNL     1      26.773   2.217  51.303  1.00  0.00     0.035 A 
HETATM    4  C5  UNL     1      26.283   1.093  51.966  1.00  0.00     0.070 A 
HETATM    5  N3  UNL     1      27.038   0.050  52.333  1.00  0.00    -0.241 NA
HETATM    6  C6  UNL     1      26.455  -0.983  52.981  1.00  0.00     0.234 A 
HETATM    7  N4  UNL     1      25.154  -0.968  53.251  1.00  0.00    -0.240 NA
HETATM    8  C7  UNL     1      24.331   0.060  52.904  1.00  0.00     0.081 A 
HETATM    9  C16 UNL     1      24.936   1.099  52.251  1.00  0.00     0.025 A 
HETATM   10  C17 UNL     1      24.082   2.130  51.922  1.00  0.00     0.045 A 
ENDROOT
BRANCH   8  11
HETATM   11  C8  UNL     1      22.947  -0.136  53.302  1.00  0.00    -0.005 A 
HETATM   12  C9  UNL     1      22.413  -0.583  54.490  1.00  0.00     0.014 A 
HETATM   13  C10 UNL     1      21.054  -0.722  54.663  1.00  0.00     0.002 A 
HETATM   14  C11 UNL     1      20.151  -0.423  53.666  1.00  0.00     0.021 A 
HETATM   15  C12 UNL     1      20.638   0.030  52.459  1.00  0.00     0.020 A 
HETATM   16  C15 UNL     1      22.003   0.160  52.311  1.00  0.00     0.034 A 
BRANCH  15  17
HETATM   17  C13 UNL     1      19.730   0.351  51.394  1.00  0.00    -0.037 C 
HETATM   18  C14 UNL     1      18.971   0.606  50.488  1.00  0.00     0.057 C 
BRANCH  18  19
HETATM   19  O1  UNL     1      18.115   0.878  49.446  1.00  0.00    -0.314 OA
HETATM   20  H12 UNL     1      18.453   1.094  48.508  1.00  0.00     0.230 HD
ENDBRANCH  18  19
ENDBRANCH  15  17
ENDBRANCH   8  11
BRANCH   1  21
HETATM   21  N2  UNL     1      23.712   4.314  50.917  1.00  0.00    -0.365 N 
HETATM   22  H5  UNL     1      23.372   4.399  49.936  1.00  0.00     0.161 HD
BRANCH  21  23
HETATM   23  C1  UNL     1      23.326   5.270  51.937  1.00  0.00     0.389 C 
BRANCH  23  24
HETATM   24  N1  UNL     1      24.290   6.347  52.095  1.00  0.00     0.095 N 
HETATM   25  H1  UNL     1      23.779   7.256  52.031  1.00  0.00     0.314 HD
HETATM   26  H2  UNL     1      24.937   6.326  51.257  1.00  0.00     0.314 HD
ENDBRANCH  23  24
ENDBRANCH  21  23
ENDBRANCH   1  21
TORSDOF 6
ENDMDL
