MODEL 1
REMARK VINA RESULT:      -7.1      0.000      0.000
REMARK  7 active torsions:
REMARK  status: ('A' for Active; 'I' for Inactive)
REMARK    1  A    between atoms: N1_2  and  C3_4 
REMARK    2  A    between atoms: C3_4  and  C4_5 
REMARK       I    between atoms: C4_5  and  N2_7 
REMARK    3  A    between atoms: N2_7  and  C5_8 
REMARK    4  A    between atoms: C8_11  and  C9_12 
REMARK    5  A    between atoms: C9_12  and  C10_13 
REMARK    6  A    between atoms: C13_18  and  O2_19 
REMARK    7  A    between atoms: O2_19  and  C14_20 
ROOT
HETATM    1  C5  UNL     1      24.208   1.157  52.929  1.00  0.00     0.071 C 
HETATM    2  C6  UNL     1      24.203   2.239  52.064  1.00  0.00     0.040 C 
HETATM    3  C7  UNL     1      22.985   2.265  51.263  1.00  0.00    -0.046 C 
HETATM    4  C8  UNL     1      22.676   2.152  49.988  1.00  0.00    -0.053 C 
HETATM    5  C11 UNL     1      21.470   1.251  49.688  1.00  0.00     0.154 C 
HETATM    6  N3  UNL     1      21.536   0.173  50.755  1.00  0.00    -0.387 N 
HETATM    7  C12 UNL     1      22.115   0.620  51.982  1.00  0.00     0.046 C 
HETATM    8  C13 UNL     1      23.010   0.209  52.882  1.00  0.00     0.127 C 
HETATM    9  C15 UNL     1      21.697   2.147  52.148  1.00  0.00     0.098 C 
HETATM   10  H17 UNL     1      21.357  -0.861  51.047  1.00  0.00     0.159 HD
ENDROOT
BRANCH   1  11
HETATM   11  N2  UNL     1      25.191   0.853  53.815  1.00  0.00    -0.323 N 
HETATM   12  C4  UNL     1      26.289   0.155  53.306  1.00  0.00     0.239 C 
HETATM   13  O1  UNL     1      26.434  -0.211  52.105  1.00  0.00    -0.271 OA
HETATM   14  H9  UNL     1      25.205   1.084  54.828  1.00  0.00     0.169 HD
BRANCH  12  15
HETATM   15  C3  UNL     1      27.488  -0.299  54.029  1.00  0.00     0.219 C 
BRANCH  15  16
HETATM   16  N1  UNL     1      28.719   0.276  53.654  1.00  0.00    -0.413 N 
HETATM   17  C1  UNL     1      28.944   1.644  53.925  1.00  0.00     0.143 C 
HETATM   18  C2  UNL     1      29.843  -0.572  53.510  1.00  0.00     0.143 C 
ENDBRANCH  15  16
ENDBRANCH  12  15
ENDBRANCH   1  11
BRANCH   8  19
HETATM   19  O2  UNL     1      22.493  -0.923  53.401  1.00  0.00    -0.251 OA
BRANCH  19  20
HETATM   20  C14 UNL     1      21.881  -0.938  54.677  1.00  0.00     0.530 C 
HETATM   21  F2  UNL     1      21.338   0.268  55.006  1.00  0.00    -0.144 F 
HETATM   22  F3  UNL     1      22.881  -1.306  55.575  1.00  0.00    -0.144 F 
HETATM   23  F4  UNL     1      20.981  -1.978  54.679  1.00  0.00    -0.144 F 
ENDBRANCH  19  20
ENDBRANCH   8  19
BRANCH   4  24
HETATM   24  C9  UNL     1      23.733   2.963  49.277  1.00  0.00     0.068 C 
BRANCH  24  25
HETATM   25  C10 UNL     1      23.249   4.383  49.090  1.00  0.00     0.226 C 
HETATM   26  F1  UNL     1      24.290   5.077  48.506  1.00  0.00    -0.255 F 
ENDBRANCH  24  25
ENDBRANCH   4  24
TORSDOF 7
ENDMDL
MODEL 2
REMARK VINA RESULT:      -7.0      1.828      4.936
REMARK  7 active torsions:
REMARK  status: ('A' for Active; 'I' for Inactive)
REMARK    1  A    between atoms: N1_2  and  C3_4 
REMARK    2  A    between atoms: C3_4  and  C4_5 
REMARK       I    between atoms: C4_5  and  N2_7 
REMARK    3  A    between atoms: N2_7  and  C5_8 
REMARK    4  A    between atoms: C8_11  and  C9_12 
REMARK    5  A    between atoms: C9_12  and  C10_13 
REMARK    6  A    between atoms: C13_18  and  O2_19 
REMARK    7  A    between atoms: O2_19  and  C14_20 
ROOT
HETATM    1  C5  UNL     1      24.618   1.154  52.199  1.00  0.00     0.071 C 
HETATM    2  C6  UNL     1      23.793   0.213  52.794  1.00  0.00     0.040 C 
HETATM    3  C7  UNL     1      22.388   0.545  52.590  1.00  0.00    -0.046 C 
HETATM    4  C8  UNL     1      21.365   0.878  53.349  1.00  0.00    -0.053 C 
HETATM    5  C11 UNL     1      20.516   2.044  52.822  1.00  0.00     0.154 C 
HETATM    6  N3  UNL     1      21.515   2.942  52.116  1.00  0.00    -0.387 N 
HETATM    7  C12 UNL     1      22.622   2.234  51.555  1.00  0.00     0.046 C 
HETATM    8  C13 UNL     1      23.951   2.332  51.489  1.00  0.00     0.127 C 
HETATM    9  C15 UNL     1      22.061   0.821  51.083  1.00  0.00     0.098 C 
HETATM   10  H17 UNL     1      21.823   3.946  51.827  1.00  0.00     0.159 HD
ENDROOT
BRANCH   1  11
HETATM   11  N2  UNL     1      25.976   1.131  52.196  1.00  0.00    -0.323 N 
HETATM   12  C4  UNL     1      26.609   1.809  53.242  1.00  0.00     0.239 C 
HETATM   13  O1  UNL     1      26.024   2.433  54.172  1.00  0.00    -0.271 OA
HETATM   14  H9  UNL     1      26.586   0.665  51.496  1.00  0.00     0.169 HD
BRANCH  12  15
HETATM   15  C3  UNL     1      28.053   1.947  53.489  1.00  0.00     0.219 C 
BRANCH  15  16
HETATM   16  N1  UNL     1      28.706   0.855  54.096  1.00  0.00    -0.413 N 
HETATM   17  C1  UNL     1      27.991   0.060  55.019  1.00  0.00     0.143 C 
HETATM   18  C2  UNL     1      29.813   0.276  53.429  1.00  0.00     0.143 C 
ENDBRANCH  15  16
ENDBRANCH  12  15
ENDBRANCH   1  11
BRANCH   8  19
HETATM   19  O2  UNL     1      24.187   3.473  50.812  1.00  0.00    -0.251 OA
BRANCH  19  20
HETATM   20  C14 UNL     1      24.616   3.457  49.463  1.00  0.00     0.530 C 
HETATM   21  F2  UNL     1      23.788   2.727  48.664  1.00  0.00    -0.144 F 
HETATM   22  F3  UNL     1      25.904   2.925  49.481  1.00  0.00    -0.144 F 
HETATM   23  F4  UNL     1      24.763   4.767  49.072  1.00  0.00    -0.144 F 
ENDBRANCH  19  20
ENDBRANCH   8  19
BRANCH   4  24
HETATM   24  C9  UNL     1      21.471  -0.043  54.541  1.00  0.00     0.068 C 
BRANCH  24  25
HETATM   25  C10 UNL     1      20.895  -1.396  54.195  1.00  0.00     0.226 C 
HETATM   26  F1  UNL     1      21.807  -2.334  54.637  1.00  0.00    -0.255 F 
ENDBRANCH  24  25
ENDBRANCH   4  24
TORSDOF 7
ENDMDL
MODEL 3
REMARK VINA RESULT:      -6.8      2.329      5.574
REMARK  7 active torsions:
REMARK  status: ('A' for Active; 'I' for Inactive)
REMARK    1  A    between atoms: N1_2  and  C3_4 
REMARK    2  A    between atoms: C3_4  and  C4_5 
REMARK       I    between atoms: C4_5  and  N2_7 
REMARK    3  A    between atoms: N2_7  and  C5_8 
REMARK    4  A    between atoms: C8_11  and  C9_12 
REMARK    5  A    between atoms: C9_12  and  C10_13 
REMARK    6  A    between atoms: C13_18  and  O2_19 
REMARK    7  A    between atoms: O2_19  and  C14_20 
ROOT
HETATM    1  C5  UNL     1      24.125   0.940  52.029  1.00  0.00     0.071 C 
HETATM    2  C6  UNL     1      25.404   1.467  51.955  1.00  0.00     0.040 C 
HETATM    3  C7  UNL     1      26.324   0.731  52.814  1.00  0.00    -0.046 C 
HETATM    4  C8  UNL     1      27.047   0.989  53.885  1.00  0.00    -0.053 C 
HETATM    5  C11 UNL     1      26.998  -0.088  54.978  1.00  0.00     0.154 C 
HETATM    6  N3  UNL     1      25.589  -0.647  54.887  1.00  0.00    -0.387 N 
HETATM    7  C12 UNL     1      25.039  -0.595  53.570  1.00  0.00     0.046 C 
HETATM    8  C13 UNL     1      23.901  -0.246  52.967  1.00  0.00     0.127 C 
HETATM    9  C15 UNL     1      26.254  -0.814  52.564  1.00  0.00     0.098 C 
HETATM   10  H17 UNL     1      24.727  -1.084  55.388  1.00  0.00     0.159 HD
ENDROOT
BRANCH   1  11
HETATM   11  N2  UNL     1      23.041   1.389  51.345  1.00  0.00    -0.323 N 
HETATM   12  C4  UNL     1      22.513   2.615  51.758  1.00  0.00     0.239 C 
HETATM   13  O1  UNL     1      22.958   3.325  52.704  1.00  0.00    -0.271 OA
HETATM   14  H9  UNL     1      22.567   0.912  50.553  1.00  0.00     0.169 HD
BRANCH  12  15
HETATM   15  C3  UNL     1      21.355   3.336  51.203  1.00  0.00     0.219 C 
BRANCH  15  16
HETATM   16  N1  UNL     1      21.627   4.449  50.383  1.00  0.00    -0.413 N 
HETATM   17  C1  UNL     1      21.342   5.743  50.873  1.00  0.00     0.143 C 
HETATM   18  C2  UNL     1      22.608   4.316  49.371  1.00  0.00     0.143 C 
ENDBRANCH  15  16
ENDBRANCH  12  15
ENDBRANCH   1  11
BRANCH   8  19
HETATM   19  O2  UNL     1      22.972  -1.096  53.448  1.00  0.00    -0.251 OA
BRANCH  19  20
HETATM   20  C14 UNL     1      22.087  -0.714  54.484  1.00  0.00     0.530 C 
HETATM   21  F2  UNL     1      22.576  -1.012  55.721  1.00  0.00    -0.144 F 
HETATM   22  F3  UNL     1      20.894  -1.388  54.233  1.00  0.00    -0.144 F 
HETATM   23  F4  UNL     1      21.804   0.619  54.299  1.00  0.00    -0.144 F 
ENDBRANCH  19  20
ENDBRANCH   8  19
BRANCH   4  24
HETATM   24  C9  UNL     1      27.632   2.355  53.618  1.00  0.00     0.068 C 
BRANCH  24  25
HETATM   25  C10 UNL     1      29.128   2.322  53.828  1.00  0.00     0.226 C 
HETATM   26  F1  UNL     1      29.562   1.099  53.357  1.00  0.00    -0.255 F 
ENDBRANCH  24  25
ENDBRANCH   4  24
TORSDOF 7
ENDMDL
MODEL 4
REMARK VINA RESULT:      -6.8      2.227      4.759
REMARK  7 active torsions:
REMARK  status: ('A' for Active; 'I' for Inactive)
REMARK    1  A    between atoms: N1_2  and  C3_4 
REMARK    2  A    between atoms: C3_4  and  C4_5 
REMARK       I    between atoms: C4_5  and  N2_7 
REMARK    3  A    between atoms: N2_7  and  C5_8 
REMARK    4  A    between atoms: C8_11  and  C9_12 
REMARK    5  A    between atoms: C9_12  and  C10_13 
REMARK    6  A    between atoms: C13_18  and  O2_19 
REMARK    7  A    between atoms: O2_19  and  C14_20 
ROOT
HETATM    1  C5  UNL     1      24.456   1.898  53.108  1.00  0.00     0.071 C 
HETATM    2  C6  UNL     1      23.817   0.745  53.534  1.00  0.00     0.040 C 
HETATM    3  C7  UNL     1      22.469   0.659  52.984  1.00  0.00    -0.046 C 
HETATM    4  C8  UNL     1      21.241   0.664  53.459  1.00  0.00    -0.053 C 
HETATM    5  C11 UNL     1      20.248   1.545  52.686  1.00  0.00     0.154 C 
HETATM    6  N3  UNL     1      21.088   2.711  52.197  1.00  0.00    -0.387 N 
HETATM    7  C12 UNL     1      22.453   2.367  51.953  1.00  0.00     0.046 C 
HETATM    8  C13 UNL     1      23.673   2.847  52.202  1.00  0.00     0.127 C 
HETATM    9  C15 UNL     1      22.453   0.863  51.430  1.00  0.00     0.098 C 
HETATM   10  H17 UNL     1      21.156   3.767  51.941  1.00  0.00     0.159 HD
ENDROOT
BRANCH   1  11
HETATM   11  N2  UNL     1      25.721   2.270  53.432  1.00  0.00    -0.323 N 
HETATM   12  C4  UNL     1      26.752   1.510  52.872  1.00  0.00     0.239 C 
HETATM   13  O1  UNL     1      26.599   0.519  52.102  1.00  0.00    -0.271 OA
HETATM   14  H9  UNL     1      25.996   3.056  54.053  1.00  0.00     0.169 HD
BRANCH  12  15
HETATM   15  C3  UNL     1      28.203   1.685  53.045  1.00  0.00     0.219 C 
BRANCH  15  16
HETATM   16  N1  UNL     1      28.863   0.768  53.887  1.00  0.00    -0.413 N 
HETATM   17  C1  UNL     1      28.176   0.254  55.008  1.00  0.00     0.143 C 
HETATM   18  C2  UNL     1      29.931   0.009  53.349  1.00  0.00     0.143 C 
ENDBRANCH  15  16
ENDBRANCH  12  15
ENDBRANCH   1  11
BRANCH   8  19
HETATM   19  O2  UNL     1      23.729   4.024  51.545  1.00  0.00    -0.251 OA
BRANCH  19  20
HETATM   20  C14 UNL     1      23.541   5.255  52.217  1.00  0.00     0.530 C 
HETATM   21  F2  UNL     1      23.726   5.144  53.563  1.00  0.00    -0.144 F 
HETATM   22  F3  UNL     1      22.242   5.659  51.914  1.00  0.00    -0.144 F 
HETATM   23  F4  UNL     1      24.365   6.174  51.611  1.00  0.00    -0.144 F 
ENDBRANCH  19  20
ENDBRANCH   8  19
BRANCH   4  24
HETATM   24  C9  UNL     1      21.313  -0.214  54.685  1.00  0.00     0.068 C 
BRANCH  24  25
HETATM   25  C10 UNL     1      21.142  -1.662  54.289  1.00  0.00     0.226 C 
HETATM   26  F1  UNL     1      19.815  -1.819  53.942  1.00  0.00    -0.255 F 
ENDBRANCH  24  25
ENDBRANCH   4  24
TORSDOF 7
ENDMDL
MODEL 5
REMARK VINA RESULT:      -6.7      7.676     10.505
REMARK  7 active torsions:
REMARK  status: ('A' for Active; 'I' for Inactive)
REMARK    1  A    between atoms: N1_2  and  C3_4 
REMARK    2  A    between atoms: C3_4  and  C4_5 
REMARK       I    between atoms: C4_5  and  N2_7 
REMARK    3  A    between atoms: N2_7  and  C5_8 
REMARK    4  A    between atoms: C8_11  and  C9_12 
REMARK    5  A    between atoms: C9_12  and  C10_13 
REMARK    6  A    between atoms: C13_18  and  O2_19 
REMARK    7  A    between atoms: O2_19  and  C14_20 
ROOT
HETATM    1  C5  UNL     1      30.481   6.228  48.488  1.00  0.00     0.071 C 
HETATM    2  C6  UNL     1      29.473   5.336  48.157  1.00  0.00     0.040 C 
HETATM    3  C7  UNL     1      28.168   5.987  48.187  1.00  0.00    -0.046 C 
HETATM    4  C8  UNL     1      27.061   5.877  48.891  1.00  0.00    -0.053 C 
HETATM    5  C11 UNL     1      26.441   7.207  49.341  1.00  0.00     0.154 C 
HETATM    6  N3  UNL     1      27.636   8.114  49.575  1.00  0.00    -0.387 N 
HETATM    7  C12 UNL     1      28.752   7.814  48.735  1.00  0.00     0.046 C 
HETATM    8  C13 UNL     1      30.074   7.660  48.834  1.00  0.00     0.127 C 
HETATM    9  C15 UNL     1      28.152   7.311  47.349  1.00  0.00     0.098 C 
HETATM   10  H17 UNL     1      28.089   8.933  50.131  1.00  0.00     0.159 HD
ENDROOT
BRANCH   1  11
HETATM   11  N2  UNL     1      31.807   5.942  48.543  1.00  0.00    -0.323 N 
HETATM   12  C4  UNL     1      32.515   6.057  47.343  1.00  0.00     0.239 C 
HETATM   13  O1  UNL     1      32.024   6.399  46.230  1.00  0.00    -0.271 OA
HETATM   14  H9  UNL     1      32.343   5.644  49.381  1.00  0.00     0.169 HD
BRANCH  12  15
HETATM   15  C3  UNL     1      33.948   5.813  47.111  1.00  0.00     0.219 C 
BRANCH  15  16
HETATM   16  N1  UNL     1      34.631   5.040  48.070  1.00  0.00    -0.413 N 
HETATM   17  C1  UNL     1      34.864   3.672  47.805  1.00  0.00     0.143 C 
HETATM   18  C2  UNL     1      35.489   5.701  48.982  1.00  0.00     0.143 C 
ENDBRANCH  15  16
ENDBRANCH  12  15
ENDBRANCH   1  11
BRANCH   8  19
HETATM   19  O2  UNL     1      30.541   8.863  49.224  1.00  0.00    -0.251 OA
BRANCH  19  20
HETATM   20  C14 UNL     1      31.353   9.651  48.374  1.00  0.00     0.530 C 
HETATM   21  F2  UNL     1      31.299  10.976  48.688  1.00  0.00    -0.144 F 
HETATM   22  F3  UNL     1      30.891   9.416  47.081  1.00  0.00    -0.144 F 
HETATM   23  F4  UNL     1      32.619   9.115  48.417  1.00  0.00    -0.144 F 
ENDBRANCH  19  20
ENDBRANCH   8  19
BRANCH   4  24
HETATM   24  C9  UNL     1      26.855   4.387  49.030  1.00  0.00     0.068 C 
BRANCH  24  25
HETATM   25  C10 UNL     1      25.664   4.115  49.918  1.00  0.00     0.226 C 
HETATM   26  F1  UNL     1      24.838   3.261  49.215  1.00  0.00    -0.255 F 
ENDBRANCH  24  25
ENDBRANCH   4  24
TORSDOF 7
ENDMDL
MODEL 6
REMARK VINA RESULT:      -6.6      7.343     10.270
REMARK  7 active torsions:
REMARK  status: ('A' for Active; 'I' for Inactive)
REMARK    1  A    between atoms: N1_2  and  C3_4 
REMARK    2  A    between atoms: C3_4  and  C4_5 
REMARK       I    between atoms: C4_5  and  N2_7 
REMARK    3  A    between atoms: N2_7  and  C5_8 
REMARK    4  A    between atoms: C8_11  and  C9_12 
REMARK    5  A    between atoms: C9_12  and  C10_13 
REMARK    6  A    between atoms: C13_18  and  O2_19 
REMARK    7  A    between atoms: O2_19  and  C14_20 
ROOT
HETATM    1  C5  UNL     1      29.754   7.237  48.208  1.00  0.00     0.071 C 
HETATM    2  C6  UNL     1      28.763   6.330  47.867  1.00  0.00     0.040 C 
HETATM    3  C7  UNL     1      27.458   6.778  48.341  1.00  0.00    -0.046 C 
HETATM    4  C8  UNL     1      26.558   6.355  49.203  1.00  0.00    -0.053 C 
HETATM    5  C11 UNL     1      25.968   7.442  50.113  1.00  0.00     0.154 C 
HETATM    6  N3  UNL     1      27.116   8.411  50.328  1.00  0.00    -0.387 N 
HETATM    7  C12 UNL     1      28.023   8.475  49.226  1.00  0.00     0.046 C 
HETATM    8  C13 UNL     1      29.338   8.474  49.003  1.00  0.00     0.127 C 
HETATM    9  C15 UNL     1      27.152   8.254  47.912  1.00  0.00     0.098 C 
HETATM   10  H17 UNL     1      27.627   9.121  50.977  1.00  0.00     0.159 HD
ENDROOT
BRANCH   1  11
HETATM   11  N2  UNL     1      31.073   7.121  47.907  1.00  0.00    -0.323 N 
HETATM   12  C4  UNL     1      31.804   6.204  48.668  1.00  0.00     0.239 C 
HETATM   13  O1  UNL     1      31.339   5.488  49.600  1.00  0.00    -0.271 OA
HETATM   14  H9  UNL     1      31.590   7.646  47.175  1.00  0.00     0.169 HD
BRANCH  12  15
HETATM   15  C3  UNL     1      33.234   5.874  48.560  1.00  0.00     0.219 C 
BRANCH  15  16
HETATM   16  N1  UNL     1      33.570   4.707  47.846  1.00  0.00    -0.413 N 
HETATM   17  C1  UNL     1      32.982   4.488  46.581  1.00  0.00     0.143 C 
HETATM   18  C2  UNL     1      34.807   4.077  48.128  1.00  0.00     0.143 C 
ENDBRANCH  15  16
ENDBRANCH  12  15
ENDBRANCH   1  11
BRANCH   8  19
HETATM   19  O2  UNL     1      29.796   9.595  49.596  1.00  0.00    -0.251 OA
BRANCH  19  20
HETATM   20  C14 UNL     1      30.485  10.591  48.862  1.00  0.00     0.530 C 
HETATM   21  F2  UNL     1      30.563  11.771  49.538  1.00  0.00    -0.144 F 
HETATM   22  F3  UNL     1      29.783  10.735  47.667  1.00  0.00    -0.144 F 
HETATM   23  F4  UNL     1      31.705  10.061  48.513  1.00  0.00    -0.144 F 
ENDBRANCH  19  20
ENDBRANCH   8  19
BRANCH   4  24
HETATM   24  C9  UNL     1      26.498   4.863  48.977  1.00  0.00     0.068 C 
BRANCH  24  25
HETATM   25  C10 UNL     1      25.537   4.234  49.959  1.00  0.00     0.226 C 
HETATM   26  F1  UNL     1      24.966   3.156  49.311  1.00  0.00    -0.255 F 
ENDBRANCH  24  25
ENDBRANCH   4  24
TORSDOF 7
ENDMDL
MODEL 7
REMARK VINA RESULT:      -6.3      3.223      6.353
REMARK  7 active torsions:
REMARK  status: ('A' for Active; 'I' for Inactive)
REMARK    1  A    between atoms: N1_2  and  C3_4 
REMARK    2  A    between atoms: C3_4  and  C4_5 
REMARK       I    between atoms: C4_5  and  N2_7 
REMARK    3  A    between atoms: N2_7  and  C5_8 
REMARK    4  A    between atoms: C8_11  and  C9_12 
REMARK    5  A    between atoms: C9_12  and  C10_13 
REMARK    6  A    between atoms: C13_18  and  O2_19 
REMARK    7  A    between atoms: O2_19  and  C14_20 
ROOT
HETATM    1  C5  UNL     1      22.777   1.142  51.440  1.00  0.00     0.071 C 
HETATM    2  C6  UNL     1      23.879   1.103  52.278  1.00  0.00     0.040 C 
HETATM    3  C7  UNL     1      24.838   2.146  51.932  1.00  0.00    -0.046 C 
HETATM    4  C8  UNL     1      26.074   2.197  51.480  1.00  0.00    -0.053 C 
HETATM    5  C11 UNL     1      26.316   3.221  50.362  1.00  0.00     0.154 C 
HETATM    6  N3  UNL     1      25.012   3.238  49.584  1.00  0.00    -0.387 N 
HETATM    7  C12 UNL     1      23.866   2.951  50.387  1.00  0.00     0.046 C 
HETATM    8  C13 UNL     1      22.764   2.200  50.337  1.00  0.00     0.127 C 
HETATM    9  C15 UNL     1      24.162   3.556  51.829  1.00  0.00     0.098 C 
HETATM   10  H17 UNL     1      24.497   3.356  48.632  1.00  0.00     0.159 HD
ENDROOT
BRANCH   1  11
HETATM   11  N2  UNL     1      21.702   0.315  51.503  1.00  0.00    -0.323 N 
HETATM   12  C4  UNL     1      20.599   0.786  52.221  1.00  0.00     0.239 C 
HETATM   13  O1  UNL     1      20.528   1.903  52.807  1.00  0.00    -0.271 OA
HETATM   14  H9  UNL     1      21.621  -0.629  51.076  1.00  0.00     0.169 HD
BRANCH  12  15
HETATM   15  C3  UNL     1      19.311   0.110  52.449  1.00  0.00     0.219 C 
BRANCH  15  16
HETATM   16  N1  UNL     1      19.274  -0.872  53.459  1.00  0.00    -0.413 N 
HETATM   17  C1  UNL     1      18.169  -1.749  53.517  1.00  0.00     0.143 C 
HETATM   18  C2  UNL     1      20.498  -1.297  54.031  1.00  0.00     0.143 C 
ENDBRANCH  15  16
ENDBRANCH  12  15
ENDBRANCH   1  11
BRANCH   8  19
HETATM   19  O2  UNL     1      22.059   2.679  49.292  1.00  0.00    -0.251 OA
BRANCH  19  20
HETATM   20  C14 UNL     1      21.781   1.877  48.159  1.00  0.00     0.530 C 
HETATM   21  F2  UNL     1      21.506   0.585  48.493  1.00  0.00    -0.144 F 
HETATM   22  F3  UNL     1      22.909   1.963  47.346  1.00  0.00    -0.144 F 
HETATM   23  F4  UNL     1      20.774   2.503  47.462  1.00  0.00    -0.144 F 
ENDBRANCH  19  20
ENDBRANCH   8  19
BRANCH   4  24
HETATM   24  C9  UNL     1      26.797   1.121  52.255  1.00  0.00     0.068 C 
BRANCH  24  25
HETATM   25  C10 UNL     1      27.360   1.699  53.532  1.00  0.00     0.226 C 
HETATM   26  F1  UNL     1      26.674   1.098  54.569  1.00  0.00    -0.255 F 
ENDBRANCH  24  25
ENDBRANCH   4  24
TORSDOF 7
ENDMDL
MODEL 8
REMARK VINA RESULT:      -6.3      3.294      7.022
REMARK  7 active torsions:
REMARK  status: ('A' for Active; 'I' for Inactive)
REMARK    1  A    between atoms: N1_2  and  C3_4 
REMARK    2  A    between atoms: C3_4  and  C4_5 
REMARK       I    between atoms: C4_5  and  N2_7 
REMARK    3  A    between atoms: N2_7  and  C5_8 
REMARK    4  A    between atoms: C8_11  and  C9_12 
REMARK    5  A    between atoms: C9_12  and  C10_13 
REMARK    6  A    between atoms: C13_18  and  O2_19 
REMARK    7  A    between atoms: O2_19  and  C14_20 
ROOT
HETATM    1  C5  UNL     1      22.560   1.766  51.686  1.00  0.00     0.071 C 
HETATM    2  C6  UNL     1      23.208   0.965  52.613  1.00  0.00     0.040 C 
HETATM    3  C7  UNL     1      24.526   1.499  52.935  1.00  0.00    -0.046 C 
HETATM    4  C8  UNL     1      25.777   1.113  52.786  1.00  0.00    -0.053 C 
HETATM    5  C11 UNL     1      26.738   2.201  52.287  1.00  0.00     0.154 C 
HETATM    6  N3  UNL     1      25.886   3.057  51.367  1.00  0.00    -0.387 N 
HETATM    7  C12 UNL     1      24.507   3.096  51.740  1.00  0.00     0.046 C 
HETATM    8  C13 UNL     1      23.306   2.994  51.168  1.00  0.00     0.127 C 
HETATM    9  C15 UNL     1      24.467   3.014  53.329  1.00  0.00     0.098 C 
HETATM   10  H17 UNL     1      25.815   3.689  50.483  1.00  0.00     0.159 HD
ENDROOT
BRANCH   1  11
HETATM   11  N2  UNL     1      21.315   1.552  51.186  1.00  0.00    -0.323 N 
HETATM   12  C4  UNL     1      20.255   2.116  51.901  1.00  0.00     0.239 C 
HETATM   13  O1  UNL     1      20.364   2.795  52.961  1.00  0.00    -0.271 OA
HETATM   14  H9  UNL     1      21.076   1.012  50.331  1.00  0.00     0.169 HD
BRANCH  12  15
HETATM   15  C3  UNL     1      18.818   2.048  51.593  1.00  0.00     0.219 C 
BRANCH  15  16
HETATM   16  N1  UNL     1      18.259   0.766  51.419  1.00  0.00    -0.413 N 
HETATM   17  C1  UNL     1      17.814   0.384  50.134  1.00  0.00     0.143 C 
HETATM   18  C2  UNL     1      18.614  -0.253  52.336  1.00  0.00     0.143 C 
ENDBRANCH  15  16
ENDBRANCH  12  15
ENDBRANCH   1  11
BRANCH   8  19
HETATM   19  O2  UNL     1      23.229   4.042  50.323  1.00  0.00    -0.251 OA
BRANCH  19  20
HETATM   20  C14 UNL     1      23.488   3.896  48.939  1.00  0.00     0.530 C 
HETATM   21  F2  UNL     1      23.519   2.590  48.553  1.00  0.00    -0.144 F 
HETATM   22  F3  UNL     1      24.712   4.522  48.714  1.00  0.00    -0.144 F 
HETATM   23  F4  UNL     1      22.556   4.657  48.273  1.00  0.00    -0.144 F 
ENDBRANCH  19  20
ENDBRANCH   8  19
BRANCH   4  24
HETATM   24  C9  UNL     1      25.757  -0.355  53.137  1.00  0.00     0.068 C 
BRANCH  24  25
HETATM   25  C10 UNL     1      26.764  -1.098  52.290  1.00  0.00     0.226 C 
HETATM   26  F1  UNL     1      27.807  -1.437  53.129  1.00  0.00    -0.255 F 
ENDBRANCH  24  25
ENDBRANCH   4  24
TORSDOF 7
ENDMDL
MODEL 9
REMARK VINA RESULT:      -6.2      3.713      6.225
REMARK  7 active torsions:
REMARK  status: ('A' for Active; 'I' for Inactive)
REMARK    1  A    between atoms: N1_2  and  C3_4 
REMARK    2  A    between atoms: C3_4  and  C4_5 
REMARK       I    between atoms: C4_5  and  N2_7 
REMARK    3  A    between atoms: N2_7  and  C5_8 
REMARK    4  A    between atoms: C8_11  and  C9_12 
REMARK    5  A    between atoms: C9_12  and  C10_13 
REMARK    6  A    between atoms: C13_18  and  O2_19 
REMARK    7  A    between atoms: O2_19  and  C14_20 
ROOT
HETATM    1  C5  UNL     1      22.361   2.539  51.681  1.00  0.00     0.071 C 
HETATM    2  C6  UNL     1      23.259   1.492  51.810  1.00  0.00     0.040 C 
HETATM    3  C7  UNL     1      22.671   0.387  52.559  1.00  0.00    -0.046 C 
HETATM    4  C8  UNL     1      22.896  -0.215  53.708  1.00  0.00    -0.053 C 
HETATM    5  C11 UNL     1      21.644  -0.508  54.546  1.00  0.00     0.154 C 
HETATM    6  N3  UNL     1      20.713   0.652  54.242  1.00  0.00    -0.387 N 
HETATM    7  C12 UNL     1      20.882   1.189  52.929  1.00  0.00     0.046 C 
HETATM    8  C13 UNL     1      20.988   2.379  52.333  1.00  0.00     0.127 C 
HETATM    9  C15 UNL     1      21.274  -0.034  51.988  1.00  0.00     0.098 C 
HETATM   10  H17 UNL     1      19.933   1.333  54.578  1.00  0.00     0.159 HD
ENDROOT
BRANCH   1  11
HETATM   11  N2  UNL     1      22.594   3.709  51.031  1.00  0.00    -0.323 N 
HETATM   12  C4  UNL     1      23.222   4.714  51.772  1.00  0.00     0.239 C 
HETATM   13  O1  UNL     1      23.582   4.620  52.980  1.00  0.00    -0.271 OA
HETATM   14  H9  UNL     1      22.349   3.930  50.046  1.00  0.00     0.169 HD
BRANCH  12  15
HETATM   15  C3  UNL     1      23.595   6.067  51.328  1.00  0.00     0.219 C 
BRANCH  15  16
HETATM   16  N1  UNL     1      22.778   6.668  50.350  1.00  0.00    -0.413 N 
HETATM   17  C1  UNL     1      21.594   7.321  50.758  1.00  0.00     0.143 C 
HETATM   18  C2  UNL     1      23.370   7.059  49.125  1.00  0.00     0.143 C 
ENDBRANCH  15  16
ENDBRANCH  12  15
ENDBRANCH   1  11
BRANCH   8  19
HETATM   19  O2  UNL     1      19.809   2.992  52.560  1.00  0.00    -0.251 OA
BRANCH  19  20
HETATM   20  C14 UNL     1      18.962   3.381  51.496  1.00  0.00     0.530 C 
HETATM   21  F2  UNL     1      18.935   2.460  50.491  1.00  0.00    -0.144 F 
HETATM   22  F3  UNL     1      19.451   4.606  51.048  1.00  0.00    -0.144 F 
HETATM   23  F4  UNL     1      17.729   3.652  52.042  1.00  0.00    -0.144 F 
ENDBRANCH  19  20
ENDBRANCH   8  19
BRANCH   4  24
HETATM   24  C9  UNL     1      24.400  -0.340  53.773  1.00  0.00     0.068 C 
BRANCH  24  25
HETATM   25  C10 UNL     1      24.805  -0.969  55.086  1.00  0.00     0.226 C 
HETATM   26  F1  UNL     1      25.905  -0.263  55.535  1.00  0.00    -0.255 F 
ENDBRANCH  24  25
ENDBRANCH   4  24
TORSDOF 7
ENDMDL
