MODEL 1
REMARK VINA RESULT:      -8.2      0.000      0.000
REMARK  0 active torsions:
REMARK  status: ('A' for Active; 'I' for Inactive)
ROOT
HETATM    1  C1  UNL     1      27.955   2.331  53.410  1.00  0.00    -0.002 C 
HETATM    2  C2  UNL     1      28.046   1.260  54.219  1.00  0.00     0.004 C 
HETATM    3  C3  UNL     1      27.823  -0.206  53.983  1.00  0.00     0.177 C 
HETATM    4  C4  UNL     1      27.331  -0.432  52.549  1.00  0.00     0.201 C 
HETATM    5  O1  UNL     1      25.987  -0.327  52.395  1.00  0.00    -0.379 OA
HETATM    6  C5  UNL     1      25.465   0.770  51.791  1.00  0.00     0.148 C 
HETATM    7  C6  UNL     1      26.492   1.771  51.326  1.00  0.00     0.005 C 
HETATM    8  C7  UNL     1      27.348   2.495  52.070  1.00  0.00    -0.002 C 
HETATM    9  C8  UNL     1      24.416   1.488  52.606  1.00  0.00     0.078 C 
HETATM   10  C9  UNL     1      23.182   0.699  52.828  1.00  0.00    -0.012 A 
HETATM   11  C10 UNL     1      23.246  -0.296  53.779  1.00  0.00     0.107 A 
HETATM   12  S1  UNL     1      21.484  -0.996  53.708  1.00  0.00    -0.072 SA
HETATM   13  C11 UNL     1      20.908   0.013  52.533  1.00  0.00     0.019 A 
HETATM   14  C12 UNL     1      22.004   0.879  52.177  1.00  0.00    -0.032 A 
HETATM   15  C13 UNL     1      21.541   1.827  51.106  1.00  0.00     0.070 C 
HETATM   16  C14 UNL     1      20.313   2.581  51.608  1.00  0.00     0.274 C 
HETATM   17  N1  UNL     1      19.293   1.665  52.072  1.00  0.00     0.088 N 
HETATM   18  C15 UNL     1      19.629   0.291  51.751  1.00  0.00     0.316 C 
HETATM   19  N2  UNL     1      24.384  -0.534  54.462  1.00  0.00    -0.218 N 
HETATM   20  C16 UNL     1      24.612  -1.053  55.598  1.00  0.00     0.258 A 
HETATM   21  N3  UNL     1      25.659  -0.596  54.791  1.00  0.00    -0.163 N 
HETATM   22  N4  UNL     1      26.906  -0.775  54.953  1.00  0.00    -0.182 NA
HETATM   23  H15 UNL     1      18.328   1.921  51.776  1.00  0.00     0.316 HD
ENDROOT
TORSDOF 0
ENDMDL
MODEL 2
REMARK VINA RESULT:      -8.1      1.039      1.194
REMARK  0 active torsions:
REMARK  status: ('A' for Active; 'I' for Inactive)
ROOT
HETATM    1  C1  UNL     1      27.932   1.910  53.828  1.00  0.00    -0.002 C 
HETATM    2  C2  UNL     1      27.684   0.708  54.381  1.00  0.00     0.004 C 
HETATM    3  C3  UNL     1      27.174  -0.581  53.807  1.00  0.00     0.177 C 
HETATM    4  C4  UNL     1      26.824  -0.389  52.327  1.00  0.00     0.201 C 
HETATM    5  O1  UNL     1      25.566   0.066  52.104  1.00  0.00    -0.379 OA
HETATM    6  C5  UNL     1      25.376   1.356  51.725  1.00  0.00     0.148 C 
HETATM    7  C6  UNL     1      26.648   2.151  51.572  1.00  0.00     0.005 C 
HETATM    8  C7  UNL     1      27.545   2.482  52.519  1.00  0.00    -0.002 C 
HETATM    9  C8  UNL     1      24.420   2.127  52.603  1.00  0.00     0.078 C 
HETATM   10  C9  UNL     1      23.024   1.632  52.553  1.00  0.00    -0.012 A 
HETATM   11  C10 UNL     1      22.751   0.480  53.259  1.00  0.00     0.107 A 
HETATM   12  S1  UNL     1      20.900   0.256  52.906  1.00  0.00    -0.072 SA
HETATM   13  C11 UNL     1      20.709   1.589  51.949  1.00  0.00     0.019 A 
HETATM   14  C12 UNL     1      22.004   2.218  51.875  1.00  0.00    -0.032 A 
HETATM   15  C13 UNL     1      21.896   3.446  51.014  1.00  0.00     0.070 C 
HETATM   16  C14 UNL     1      20.813   4.357  51.582  1.00  0.00     0.274 C 
HETATM   17  N1  UNL     1      19.567   3.640  51.754  1.00  0.00     0.088 N 
HETATM   18  C15 UNL     1      19.629   2.319  51.159  1.00  0.00     0.316 C 
HETATM   19  N2  UNL     1      23.716  -0.158  53.951  1.00  0.00    -0.218 N 
HETATM   20  C16 UNL     1      23.682  -0.934  54.955  1.00  0.00     0.258 A 
HETATM   21  N3  UNL     1      24.895  -0.592  54.348  1.00  0.00    -0.163 N 
HETATM   22  N4  UNL     1      26.042  -1.095  54.556  1.00  0.00    -0.182 NA
HETATM   23  H15 UNL     1      18.726   4.176  51.455  1.00  0.00     0.316 HD
ENDROOT
TORSDOF 0
ENDMDL
MODEL 3
REMARK VINA RESULT:      -8.1      2.001      5.943
REMARK  0 active torsions:
REMARK  status: ('A' for Active; 'I' for Inactive)
ROOT
HETATM    1  C1  UNL     1      20.687   1.108  49.736  1.00  0.00    -0.002 C 
HETATM    2  C2  UNL     1      19.876   0.562  50.660  1.00  0.00     0.004 C 
HETATM    3  C3  UNL     1      19.581   0.927  52.086  1.00  0.00     0.177 C 
HETATM    4  C4  UNL     1      20.463   2.104  52.515  1.00  0.00     0.201 C 
HETATM    5  O1  UNL     1      21.684   1.748  52.986  1.00  0.00    -0.379 OA
HETATM    6  C5  UNL     1      22.785   1.946  52.217  1.00  0.00     0.148 C 
HETATM    7  C6  UNL     1      22.502   2.588  50.882  1.00  0.00     0.005 C 
HETATM    8  C7  UNL     1      21.781   2.098  49.857  1.00  0.00    -0.002 C 
HETATM    9  C8  UNL     1      23.621   0.708  51.997  1.00  0.00     0.078 C 
HETATM   10  C9  UNL     1      24.254   0.183  53.229  1.00  0.00    -0.012 A 
HETATM   11  C10 UNL     1      23.440  -0.515  54.094  1.00  0.00     0.107 A 
HETATM   12  S1  UNL     1      24.662  -0.974  55.471  1.00  0.00    -0.072 SA
HETATM   13  C11 UNL     1      25.995  -0.256  54.811  1.00  0.00     0.019 A 
HETATM   14  C12 UNL     1      25.560   0.331  53.568  1.00  0.00    -0.032 A 
HETATM   15  C13 UNL     1      26.735   1.004  52.915  1.00  0.00     0.070 C 
HETATM   16  C14 UNL     1      27.857  -0.016  52.741  1.00  0.00     0.274 C 
HETATM   17  N1  UNL     1      28.167  -0.667  53.996  1.00  0.00     0.088 N 
HETATM   18  C15 UNL     1      27.475  -0.038  55.105  1.00  0.00     0.316 C 
HETATM   19  N2  UNL     1      22.131  -0.698  53.824  1.00  0.00    -0.218 N 
HETATM   20  C16 UNL     1      21.294  -1.581  54.187  1.00  0.00     0.258 A 
HETATM   21  N3  UNL     1      20.916  -0.534  53.342  1.00  0.00    -0.163 N 
HETATM   22  N4  UNL     1      19.744  -0.208  52.977  1.00  0.00    -0.182 NA
HETATM   23  H15 UNL     1      29.187  -0.782  54.173  1.00  0.00     0.316 HD
ENDROOT
TORSDOF 0
ENDMDL
MODEL 4
REMARK VINA RESULT:      -8.0      2.927      3.951
REMARK  0 active torsions:
REMARK  status: ('A' for Active; 'I' for Inactive)
ROOT
HETATM    1  C1  UNL     1      26.562  -0.842  52.995  1.00  0.00    -0.002 C 
HETATM    2  C2  UNL     1      27.407   0.166  52.707  1.00  0.00     0.004 C 
HETATM    3  C3  UNL     1      27.417   1.616  53.095  1.00  0.00     0.177 C 
HETATM    4  C4  UNL     1      26.160   1.946  53.907  1.00  0.00     0.201 C 
HETATM    5  O1  UNL     1      25.080   2.280  53.157  1.00  0.00    -0.379 OA
HETATM    6  C5  UNL     1      24.061   1.395  53.016  1.00  0.00     0.148 C 
HETATM    7  C6  UNL     1      24.256   0.100  53.763  1.00  0.00     0.005 C 
HETATM    8  C7  UNL     1      25.199  -0.840  53.572  1.00  0.00    -0.002 C 
HETATM    9  C8  UNL     1      23.702   1.083  51.583  1.00  0.00     0.078 C 
HETATM   10  C9  UNL     1      23.151   2.238  50.836  1.00  0.00    -0.012 A 
HETATM   11  C10 UNL     1      24.055   3.187  50.408  1.00  0.00     0.107 A 
HETATM   12  S1  UNL     1      22.913   4.421  49.527  1.00  0.00    -0.072 SA
HETATM   13  C11 UNL     1      21.494   3.619  49.798  1.00  0.00     0.019 A 
HETATM   14  C12 UNL     1      21.840   2.432  50.540  1.00  0.00    -0.032 A 
HETATM   15  C13 UNL     1      20.584   1.654  50.819  1.00  0.00     0.070 C 
HETATM   16  C14 UNL     1      19.881   1.358  49.498  1.00  0.00     0.274 C 
HETATM   17  N1  UNL     1      19.672   2.570  48.736  1.00  0.00     0.088 N 
HETATM   18  C15 UNL     1      20.002   3.749  49.514  1.00  0.00     0.316 C 
HETATM   19  N2  UNL     1      25.372   3.062  50.669  1.00  0.00    -0.218 N 
HETATM   20  C16 UNL     1      26.408   3.513  50.092  1.00  0.00     0.258 A 
HETATM   21  N3  UNL     1      26.509   2.716  51.236  1.00  0.00    -0.163 N 
HETATM   22  N4  UNL     1      27.542   2.482  51.938  1.00  0.00    -0.182 NA
HETATM   23  H15 UNL     1      18.733   2.634  48.290  1.00  0.00     0.316 HD
ENDROOT
TORSDOF 0
ENDMDL
MODEL 5
REMARK VINA RESULT:      -7.8      2.773      6.549
REMARK  0 active torsions:
REMARK  status: ('A' for Active; 'I' for Inactive)
ROOT
HETATM    1  C1  UNL     1      19.525   2.725  51.956  1.00  0.00    -0.002 C 
HETATM    2  C2  UNL     1      20.015   3.623  51.083  1.00  0.00     0.004 C 
HETATM    3  C3  UNL     1      20.827   3.473  49.829  1.00  0.00     0.177 C 
HETATM    4  C4  UNL     1      21.186   1.999  49.615  1.00  0.00     0.201 C 
HETATM    5  O1  UNL     1      22.316   1.599  50.250  1.00  0.00    -0.379 OA
HETATM    6  C5  UNL     1      22.224   0.823  51.360  1.00  0.00     0.148 C 
HETATM    7  C6  UNL     1      20.813   0.467  51.753  1.00  0.00     0.005 C 
HETATM    8  C7  UNL     1      19.826   1.289  52.155  1.00  0.00    -0.002 C 
HETATM    9  C8  UNL     1      22.944   1.376  52.567  1.00  0.00     0.078 C 
HETATM   10  C9  UNL     1      24.416   1.439  52.412  1.00  0.00    -0.012 A 
HETATM   11  C10 UNL     1      24.914   2.466  51.640  1.00  0.00     0.107 A 
HETATM   12  S1  UNL     1      26.781   2.140  51.742  1.00  0.00    -0.072 SA
HETATM   13  C11 UNL     1      26.704   0.802  52.708  1.00  0.00     0.019 A 
HETATM   14  C12 UNL     1      25.304   0.576  52.969  1.00  0.00    -0.032 A 
HETATM   15  C13 UNL     1      25.167  -0.635  53.849  1.00  0.00     0.070 C 
HETATM   16  C14 UNL     1      25.991  -0.424  55.116  1.00  0.00     0.274 C 
HETATM   17  N1  UNL     1      27.359  -0.075  54.794  1.00  0.00     0.088 N 
HETATM   18  C15 UNL     1      27.623  -0.216  53.375  1.00  0.00     0.316 C 
HETATM   19  N2  UNL     1      24.091   3.358  51.052  1.00  0.00    -0.218 N 
HETATM   20  C16 UNL     1      24.257   4.555  50.665  1.00  0.00     0.258 A 
HETATM   21  N3  UNL     1      23.025   3.912  50.511  1.00  0.00    -0.163 N 
HETATM   22  N4  UNL     1      22.014   4.309  49.853  1.00  0.00    -0.182 NA
HETATM   23  H15 UNL     1      28.069  -0.558  55.384  1.00  0.00     0.316 HD
ENDROOT
TORSDOF 0
ENDMDL
MODEL 6
REMARK VINA RESULT:      -7.7      3.153      4.378
REMARK  0 active torsions:
REMARK  status: ('A' for Active; 'I' for Inactive)
ROOT
HETATM    1  C1  UNL     1      26.792   2.232  51.282  1.00  0.00    -0.002 C 
HETATM    2  C2  UNL     1      26.246   2.776  50.179  1.00  0.00     0.004 C 
HETATM    3  C3  UNL     1      25.147   3.780  49.988  1.00  0.00     0.177 C 
HETATM    4  C4  UNL     1      24.536   4.148  51.344  1.00  0.00     0.201 C 
HETATM    5  O1  UNL     1      23.542   3.320  51.754  1.00  0.00    -0.379 OA
HETATM    6  C5  UNL     1      23.780   2.427  52.748  1.00  0.00     0.148 C 
HETATM    7  C6  UNL     1      25.177   2.484  53.313  1.00  0.00     0.005 C 
HETATM    8  C7  UNL     1      26.340   2.217  52.692  1.00  0.00    -0.002 C 
HETATM    9  C8  UNL     1      23.456   0.996  52.389  1.00  0.00     0.078 C 
HETATM   10  C9  UNL     1      22.015   0.747  52.152  1.00  0.00    -0.012 A 
HETATM   11  C10 UNL     1      21.504   1.170  50.945  1.00  0.00     0.107 A 
HETATM   12  S1  UNL     1      19.688   0.642  51.102  1.00  0.00    -0.072 SA
HETATM   13  C11 UNL     1      19.795  -0.020  52.611  1.00  0.00     0.019 A 
HETATM   14  C12 UNL     1      21.168   0.138  53.022  1.00  0.00    -0.032 A 
HETATM   15  C13 UNL     1      21.332  -0.449  54.396  1.00  0.00     0.070 C 
HETATM   16  C14 UNL     1      20.871  -1.904  54.372  1.00  0.00     0.274 C 
HETATM   17  N1  UNL     1      19.533  -2.017  53.833  1.00  0.00     0.088 N 
HETATM   18  C15 UNL     1      18.922  -0.714  53.650  1.00  0.00     0.316 C 
HETATM   19  N2  UNL     1      22.286   1.787  50.035  1.00  0.00    -0.218 N 
HETATM   20  C16 UNL     1      22.209   1.901  48.774  1.00  0.00     0.258 A 
HETATM   21  N3  UNL     1      23.262   2.481  49.487  1.00  0.00    -0.163 N 
HETATM   22  N4  UNL     1      24.135   3.301  49.064  1.00  0.00    -0.182 NA
HETATM   23  H15 UNL     1      18.921  -2.678  54.355  1.00  0.00     0.316 HD
ENDROOT
TORSDOF 0
ENDMDL
MODEL 7
REMARK VINA RESULT:      -7.5      2.976      4.019
REMARK  0 active torsions:
REMARK  status: ('A' for Active; 'I' for Inactive)
ROOT
HETATM    1  C1  UNL     1      27.269   0.587  55.000  1.00  0.00    -0.002 C 
HETATM    2  C2  UNL     1      26.135  -0.131  55.100  1.00  0.00     0.004 C 
HETATM    3  C3  UNL     1      25.387  -0.978  54.112  1.00  0.00     0.177 C 
HETATM    4  C4  UNL     1      26.063  -0.897  52.739  1.00  0.00     0.201 C 
HETATM    5  O1  UNL     1      25.653   0.145  51.973  1.00  0.00    -0.379 OA
HETATM    6  C5  UNL     1      26.470   1.215  51.803  1.00  0.00     0.148 C 
HETATM    7  C6  UNL     1      27.802   1.097  52.500  1.00  0.00     0.005 C 
HETATM    8  C7  UNL     1      28.049   1.024  53.821  1.00  0.00    -0.002 C 
HETATM    9  C8  UNL     1      25.843   2.540  52.166  1.00  0.00     0.078 C 
HETATM   10  C9  UNL     1      24.713   2.931  51.292  1.00  0.00    -0.012 A 
HETATM   11  C10 UNL     1      23.510   2.297  51.513  1.00  0.00     0.107 A 
HETATM   12  S1  UNL     1      22.410   3.109  50.198  1.00  0.00    -0.072 SA
HETATM   13  C11 UNL     1      23.559   4.108  49.557  1.00  0.00     0.019 A 
HETATM   14  C12 UNL     1      24.768   3.859  50.301  1.00  0.00    -0.032 A 
HETATM   15  C13 UNL     1      25.858   4.743  49.763  1.00  0.00     0.070 C 
HETATM   16  C14 UNL     1      25.396   6.196  49.830  1.00  0.00     0.274 C 
HETATM   17  N1  UNL     1      24.116   6.365  49.176  1.00  0.00     0.088 N 
HETATM   18  C15 UNL     1      23.718   5.164  48.468  1.00  0.00     0.316 C 
HETATM   19  N2  UNL     1      23.383   1.362  52.477  1.00  0.00    -0.218 N 
HETATM   20  C16 UNL     1      22.387   0.945  53.143  1.00  0.00     0.258 A 
HETATM   21  N3  UNL     1      23.664   0.415  53.349  1.00  0.00    -0.163 N 
HETATM   22  N4  UNL     1      23.986  -0.605  54.035  1.00  0.00    -0.182 NA
HETATM   23  H15 UNL     1      24.052   7.220  48.584  1.00  0.00     0.316 HD
ENDROOT
TORSDOF 0
ENDMDL
MODEL 8
REMARK VINA RESULT:      -7.5      2.741      6.042
REMARK  0 active torsions:
REMARK  status: ('A' for Active; 'I' for Inactive)
ROOT
HETATM    1  C1  UNL     1      23.026   4.780  48.158  1.00  0.00    -0.002 C 
HETATM    2  C2  UNL     1      21.743   4.464  48.411  1.00  0.00     0.004 C 
HETATM    3  C3  UNL     1      20.914   4.536  49.660  1.00  0.00     0.177 C 
HETATM    4  C4  UNL     1      21.783   4.993  50.836  1.00  0.00     0.201 C 
HETATM    5  O1  UNL     1      22.437   3.990  51.474  1.00  0.00    -0.379 OA
HETATM    6  C5  UNL     1      23.773   3.836  51.290  1.00  0.00     0.148 C 
HETATM    7  C6  UNL     1      24.396   4.860  50.375  1.00  0.00     0.005 C 
HETATM    8  C7  UNL     1      24.162   5.061  49.065  1.00  0.00    -0.002 C 
HETATM    9  C8  UNL     1      24.182   2.457  50.831  1.00  0.00     0.078 C 
HETATM   10  C9  UNL     1      23.931   1.391  51.829  1.00  0.00    -0.012 A 
HETATM   11  C10 UNL     1      22.628   0.964  51.964  1.00  0.00     0.107 A 
HETATM   12  S1  UNL     1      22.806  -0.363  53.308  1.00  0.00    -0.072 SA
HETATM   13  C11 UNL     1      24.437  -0.220  53.525  1.00  0.00     0.019 A 
HETATM   14  C12 UNL     1      24.874   0.806  52.611  1.00  0.00    -0.032 A 
HETATM   15  C13 UNL     1      26.360   0.985  52.760  1.00  0.00     0.070 C 
HETATM   16  C14 UNL     1      27.046  -0.359  52.533  1.00  0.00     0.274 C 
HETATM   17  N1  UNL     1      26.482  -1.383  53.386  1.00  0.00     0.088 N 
HETATM   18  C15 UNL     1      25.565  -0.817  54.358  1.00  0.00     0.316 C 
HETATM   19  N2  UNL     1      21.638   1.503  51.223  1.00  0.00    -0.218 N 
HETATM   20  C16 UNL     1      20.507   1.064  50.851  1.00  0.00     0.258 A 
HETATM   21  N3  UNL     1      20.936   2.345  50.493  1.00  0.00    -0.163 N 
HETATM   22  N4  UNL     1      20.260   3.272  49.946  1.00  0.00    -0.182 NA
HETATM   23  H15 UNL     1      27.190  -2.010  53.821  1.00  0.00     0.316 HD
ENDROOT
TORSDOF 0
ENDMDL
MODEL 9
REMARK VINA RESULT:      -7.1      1.370      1.612
REMARK  0 active torsions:
REMARK  status: ('A' for Active; 'I' for Inactive)
ROOT
HETATM    1  C1  UNL     1      26.292   2.213  53.724  1.00  0.00    -0.002 C 
HETATM    2  C2  UNL     1      26.382   1.110  54.490  1.00  0.00     0.004 C 
HETATM    3  C3  UNL     1      26.212  -0.349  54.182  1.00  0.00     0.177 C 
HETATM    4  C4  UNL     1      25.785  -0.526  52.721  1.00  0.00     0.201 C 
HETATM    5  O1  UNL     1      24.446  -0.452  52.516  1.00  0.00    -0.379 OA
HETATM    6  C5  UNL     1      23.916   0.656  51.938  1.00  0.00     0.148 C 
HETATM    7  C6  UNL     1      24.931   1.705  51.559  1.00  0.00     0.005 C 
HETATM    8  C7  UNL     1      25.735   2.419  52.368  1.00  0.00    -0.002 C 
HETATM    9  C8  UNL     1      22.815   1.309  52.739  1.00  0.00     0.078 C 
HETATM   10  C9  UNL     1      21.596   0.476  52.876  1.00  0.00    -0.012 A 
HETATM   11  C10 UNL     1      21.652  -0.557  53.785  1.00  0.00     0.107 A 
HETATM   12  S1  UNL     1      19.915  -1.303  53.612  1.00  0.00    -0.072 SA
HETATM   13  C11 UNL     1      19.358  -0.259  52.458  1.00  0.00     0.019 A 
HETATM   14  C12 UNL     1      20.441   0.652  52.185  1.00  0.00    -0.032 A 
HETATM   15  C13 UNL     1      19.993   1.633  51.137  1.00  0.00     0.070 C 
HETATM   16  C14 UNL     1      18.724   2.330  51.620  1.00  0.00     0.274 C 
HETATM   17  N1  UNL     1      17.715   1.366  52.001  1.00  0.00     0.088 N 
HETATM   18  C15 UNL     1      18.104   0.017  51.637  1.00  0.00     0.316 C 
HETATM   19  N2  UNL     1      22.768  -0.794  54.504  1.00  0.00    -0.218 N 
HETATM   20  C16 UNL     1      22.966  -1.355  55.625  1.00  0.00     0.258 A 
HETATM   21  N3  UNL     1      24.030  -0.835  54.882  1.00  0.00    -0.163 N 
HETATM   22  N4  UNL     1      25.274  -0.985  55.088  1.00  0.00    -0.182 NA
HETATM   23  H15 UNL     1      16.755   1.607  51.678  1.00  0.00     0.316 HD
ENDROOT
TORSDOF 0
ENDMDL
