MODEL 1
REMARK VINA RESULT:      -7.2      0.000      0.000
REMARK  5 active torsions:
REMARK  status: ('A' for Active; 'I' for Inactive)
REMARK    1  A    between atoms: O1_2  and  C2_3 
REMARK    2  A    between atoms: C6_9  and  N3_10 
REMARK    3  A    between atoms: N3_10  and  C7_11 
REMARK    4  A    between atoms: C7_11  and  P1_12 
REMARK    5  A    between atoms: C15_21  and  O2_22 
ROOT
HETATM    1  C2  UNL     1      26.106  -0.397  53.008  1.00  0.00     0.103 A 
HETATM    2  C3  UNL     1      26.753   0.423  52.104  1.00  0.00     0.072 A 
HETATM    3  C4  UNL     1      26.163   1.596  51.680  1.00  0.00     0.075 A 
HETATM    4  N1  UNL     1      26.785   2.421  50.786  1.00  0.00    -0.241 NA
HETATM    5  C5  UNL     1      26.170   3.571  50.391  1.00  0.00     0.235 A 
HETATM    6  N2  UNL     1      24.941   3.946  50.857  1.00  0.00    -0.224 NA
HETATM    7  C6  UNL     1      24.285   3.172  51.737  1.00  0.00     0.138 A 
HETATM    8  C13 UNL     1      24.926   2.014  52.121  1.00  0.00     0.041 A 
HETATM    9  C14 UNL     1      24.323   1.164  53.022  1.00  0.00     0.057 A 
HETATM   10  C15 UNL     1      24.865  -0.021  53.478  1.00  0.00     0.102 A 
ENDROOT
BRANCH   7  11
HETATM   11  N3  UNL     1      23.003   3.566  52.220  1.00  0.00    -0.357 N 
HETATM   12  H6  UNL     1      22.808   4.117  53.067  1.00  0.00     0.162 HD
BRANCH  11  13
HETATM   13  C7  UNL     1      21.898   3.114  51.391  1.00  0.00     0.071 A 
HETATM   14  C8  UNL     1      21.063   2.190  52.199  1.00  0.00     0.032 A 
HETATM   15  C9  UNL     1      20.679   0.965  51.949  1.00  0.00     0.032 A 
HETATM   16 CL1  UNL     1      19.684   0.038  53.046  1.00  0.00    -0.085 Cl
HETATM   17  C10 UNL     1      21.127   0.390  50.687  1.00  0.00     0.019 A 
HETATM   18  C11 UNL     1      21.881   1.124  49.881  1.00  0.00    -0.022 A 
HETATM   19  C12 UNL     1      22.356   2.515  50.093  1.00  0.00     0.067 A 
BRANCH  13  20
HETATM   20  P1  UNL     1      20.781   4.577  51.017  1.00  0.00    -0.106 P 
HETATM   21  H7  UNL     1      19.594   4.055  50.375  1.00  0.00     0.057 HD
HETATM   22  H8  UNL     1      20.505   5.343  52.212  1.00  0.00     0.057 HD
ENDBRANCH  13  20
ENDBRANCH  11  13
ENDBRANCH   7  11
BRANCH  10  23
HETATM   23  O2  UNL     1      24.242  -0.859  54.383  1.00  0.00    -0.353 OA
HETATM   24  C16 UNL     1      22.867  -1.000  54.569  1.00  0.00     0.210 C 
ENDBRANCH  10  23
BRANCH   1  25
HETATM   25  O1  UNL     1      26.676  -1.582  53.452  1.00  0.00    -0.353 OA
HETATM   26  C1  UNL     1      27.423  -2.444  52.650  1.00  0.00     0.210 C 
ENDBRANCH   1  25
TORSDOF 5
ENDMDL
MODEL 2
REMARK VINA RESULT:      -6.9      2.370      3.393
REMARK  5 active torsions:
REMARK  status: ('A' for Active; 'I' for Inactive)
REMARK    1  A    between atoms: O1_2  and  C2_3 
REMARK    2  A    between atoms: C6_9  and  N3_10 
REMARK    3  A    between atoms: N3_10  and  C7_11 
REMARK    4  A    between atoms: C7_11  and  P1_12 
REMARK    5  A    between atoms: C15_21  and  O2_22 
ROOT
HETATM    1  C2  UNL     1      26.497   0.182  54.058  1.00  0.00     0.103 A 
HETATM    2  C3  UNL     1      25.362  -0.525  53.713  1.00  0.00     0.072 A 
HETATM    3  C4  UNL     1      24.247   0.135  53.239  1.00  0.00     0.075 A 
HETATM    4  N1  UNL     1      23.114  -0.545  52.892  1.00  0.00    -0.241 NA
HETATM    5  C5  UNL     1      22.033   0.142  52.427  1.00  0.00     0.235 A 
HETATM    6  N2  UNL     1      22.028   1.501  52.288  1.00  0.00    -0.224 NA
HETATM    7  C6  UNL     1      23.116   2.220  52.614  1.00  0.00     0.138 A 
HETATM    8  C13 UNL     1      24.197   1.504  53.081  1.00  0.00     0.041 A 
HETATM    9  C14 UNL     1      25.352   2.163  53.438  1.00  0.00     0.057 A 
HETATM   10  C15 UNL     1      26.495   1.555  53.918  1.00  0.00     0.102 A 
ENDROOT
BRANCH   7  11
HETATM   11  N3  UNL     1      23.108   3.637  52.467  1.00  0.00    -0.357 N 
HETATM   12  H6  UNL     1      23.089   4.333  53.225  1.00  0.00     0.162 HD
BRANCH  11  13
HETATM   13  C7  UNL     1      23.131   4.086  51.084  1.00  0.00     0.071 A 
HETATM   14  C8  UNL     1      21.728   4.273  50.638  1.00  0.00     0.032 A 
HETATM   15  C9  UNL     1      21.098   3.771  49.607  1.00  0.00     0.032 A 
HETATM   16 CL1  UNL     1      19.423   4.121  49.253  1.00  0.00    -0.085 Cl
HETATM   17  C10 UNL     1      21.869   2.884  48.745  1.00  0.00     0.019 A 
HETATM   18  C11 UNL     1      23.137   2.642  49.047  1.00  0.00    -0.022 A 
HETATM   19  C12 UNL     1      23.919   3.172  50.192  1.00  0.00     0.067 A 
BRANCH  13  20
HETATM   20  P1  UNL     1      23.896   5.800  51.015  1.00  0.00    -0.106 P 
HETATM   21  H7  UNL     1      23.072   6.600  50.133  1.00  0.00     0.057 HD
HETATM   22  H8  UNL     1      24.043   6.361  52.339  1.00  0.00     0.057 HD
ENDBRANCH  13  20
ENDBRANCH  11  13
ENDBRANCH   7  11
BRANCH  10  23
HETATM   23  O2  UNL     1      27.645   2.237  54.270  1.00  0.00    -0.353 OA
HETATM   24  C16 UNL     1      28.690   2.592  53.417  1.00  0.00     0.210 C 
ENDBRANCH  10  23
BRANCH   1  25
HETATM   25  O1  UNL     1      27.634  -0.455  54.538  1.00  0.00    -0.353 OA
HETATM   26  C1  UNL     1      28.622  -1.013  53.729  1.00  0.00     0.210 C 
ENDBRANCH   1  25
TORSDOF 5
ENDMDL
MODEL 3
REMARK VINA RESULT:      -6.6      2.999      4.358
REMARK  5 active torsions:
REMARK  status: ('A' for Active; 'I' for Inactive)
REMARK    1  A    between atoms: O1_2  and  C2_3 
REMARK    2  A    between atoms: C6_9  and  N3_10 
REMARK    3  A    between atoms: N3_10  and  C7_11 
REMARK    4  A    between atoms: C7_11  and  P1_12 
REMARK    5  A    between atoms: C15_21  and  O2_22 
ROOT
HETATM    1  C2  UNL     1      26.892   1.970  52.434  1.00  0.00     0.103 A 
HETATM    2  C3  UNL     1      26.145   1.130  53.236  1.00  0.00     0.072 A 
HETATM    3  C4  UNL     1      24.830   0.855  52.924  1.00  0.00     0.075 A 
HETATM    4  N1  UNL     1      24.073   0.027  53.704  1.00  0.00    -0.241 NA
HETATM    5  C5  UNL     1      22.777  -0.221  53.363  1.00  0.00     0.235 A 
HETATM    6  N2  UNL     1      22.189   0.328  52.258  1.00  0.00    -0.224 NA
HETATM    7  C6  UNL     1      22.887   1.149  51.456  1.00  0.00     0.138 A 
HETATM    8  C13 UNL     1      24.195   1.385  51.821  1.00  0.00     0.041 A 
HETATM    9  C14 UNL     1      24.981   2.215  51.053  1.00  0.00     0.057 A 
HETATM   10  C15 UNL     1      26.300   2.526  51.318  1.00  0.00     0.102 A 
ENDROOT
BRANCH   7  11
HETATM   11  N3  UNL     1      22.270   1.720  50.305  1.00  0.00    -0.357 N 
HETATM   12  H6  UNL     1      22.263   1.328  49.354  1.00  0.00     0.162 HD
BRANCH  11  13
HETATM   13  C7  UNL     1      21.601   2.985  50.562  1.00  0.00     0.071 A 
HETATM   14  C8  UNL     1      22.223   4.020  49.700  1.00  0.00     0.032 A 
HETATM   15  C9  UNL     1      22.752   5.174  50.018  1.00  0.00     0.032 A 
HETATM   16 CL1  UNL     1      23.441   6.261  48.836  1.00  0.00    -0.085 Cl
HETATM   17  C10 UNL     1      22.745   5.523  51.433  1.00  0.00     0.019 A 
HETATM   18  C11 UNL     1      22.214   4.672  52.299  1.00  0.00    -0.022 A 
HETATM   19  C12 UNL     1      21.596   3.351  52.018  1.00  0.00     0.067 A 
BRANCH  13  20
HETATM   20  P1  UNL     1      19.823   2.862  49.969  1.00  0.00    -0.106 P 
HETATM   21  H7  UNL     1      19.679   3.780  48.859  1.00  0.00     0.057 HD
HETATM   22  H8  UNL     1      19.474   1.498  49.642  1.00  0.00     0.057 HD
ENDBRANCH  13  20
ENDBRANCH  11  13
ENDBRANCH   7  11
BRANCH  10  23
HETATM   23  O2  UNL     1      27.071   3.362  50.533  1.00  0.00    -0.353 OA
HETATM   24  C16 UNL     1      26.648   4.055  49.399  1.00  0.00     0.210 C 
ENDBRANCH  10  23
BRANCH   1  25
HETATM   25  O1  UNL     1      28.217   2.265  52.724  1.00  0.00    -0.353 OA
HETATM   26  C1  UNL     1      28.922   1.735  53.803  1.00  0.00     0.210 C 
ENDBRANCH   1  25
TORSDOF 5
ENDMDL
MODEL 4
REMARK VINA RESULT:      -6.3      2.597      3.653
REMARK  5 active torsions:
REMARK  status: ('A' for Active; 'I' for Inactive)
REMARK    1  A    between atoms: O1_2  and  C2_3 
REMARK    2  A    between atoms: C6_9  and  N3_10 
REMARK    3  A    between atoms: N3_10  and  C7_11 
REMARK    4  A    between atoms: C7_11  and  P1_12 
REMARK    5  A    between atoms: C15_21  and  O2_22 
ROOT
HETATM    1  C2  UNL     1      22.571  -0.114  53.134  1.00  0.00     0.103 A 
HETATM    2  C3  UNL     1      23.905  -0.412  52.936  1.00  0.00     0.072 A 
HETATM    3  C4  UNL     1      24.785   0.569  52.529  1.00  0.00     0.075 A 
HETATM    4  N1  UNL     1      26.109   0.295  52.327  1.00  0.00    -0.241 NA
HETATM    5  C5  UNL     1      26.948   1.291  51.926  1.00  0.00     0.235 A 
HETATM    6  N2  UNL     1      26.522   2.572  51.714  1.00  0.00    -0.224 NA
HETATM    7  C6  UNL     1      25.231   2.897  51.898  1.00  0.00     0.138 A 
HETATM    8  C13 UNL     1      24.402   1.873  52.303  1.00  0.00     0.041 A 
HETATM    9  C14 UNL     1      23.064   2.121  52.515  1.00  0.00     0.057 A 
HETATM   10  C15 UNL     1      22.138   1.179  52.920  1.00  0.00     0.102 A 
ENDROOT
BRANCH   7  11
HETATM   11  N3  UNL     1      24.790   4.234  51.676  1.00  0.00    -0.357 N 
HETATM   12  H6  UNL     1      24.743   4.989  52.373  1.00  0.00     0.162 HD
BRANCH  11  13
HETATM   13  C7  UNL     1      24.377   4.497  50.307  1.00  0.00     0.071 A 
HETATM   14  C8  UNL     1      23.008   5.068  50.340  1.00  0.00     0.032 A 
HETATM   15  C9  UNL     1      21.919   4.681  49.728  1.00  0.00     0.032 A 
HETATM   16 CL1  UNL     1      20.387   5.502  49.902  1.00  0.00    -0.085 Cl
HETATM   17  C10 UNL     1      22.038   3.506  48.873  1.00  0.00     0.019 A 
HETATM   18  C11 UNL     1      23.217   2.910  48.766  1.00  0.00    -0.022 A 
HETATM   19  C12 UNL     1      24.493   3.288  49.425  1.00  0.00     0.067 A 
BRANCH  13  20
HETATM   20  P1  UNL     1      25.457   5.862  49.599  1.00  0.00    -0.106 P 
HETATM   21  H7  UNL     1      24.606   7.013  49.389  1.00  0.00     0.057 HD
HETATM   22  H8  UNL     1      26.591   6.127  50.455  1.00  0.00     0.057 HD
ENDBRANCH  13  20
ENDBRANCH  11  13
ENDBRANCH   7  11
BRANCH  10  23
HETATM   23  O2  UNL     1      20.799   1.449  53.127  1.00  0.00    -0.353 OA
HETATM   24  C16 UNL     1      20.011   2.335  52.394  1.00  0.00     0.210 C 
ENDBRANCH  10  23
BRANCH   1  25
HETATM   25  O1  UNL     1      21.662  -1.080  53.543  1.00  0.00    -0.353 OA
HETATM   26  C1  UNL     1      21.646  -1.657  54.811  1.00  0.00     0.210 C 
ENDBRANCH   1  25
TORSDOF 5
ENDMDL
MODEL 5
REMARK VINA RESULT:      -6.3      3.102      4.718
REMARK  5 active torsions:
REMARK  status: ('A' for Active; 'I' for Inactive)
REMARK    1  A    between atoms: O1_2  and  C2_3 
REMARK    2  A    between atoms: C6_9  and  N3_10 
REMARK    3  A    between atoms: N3_10  and  C7_11 
REMARK    4  A    between atoms: C7_11  and  P1_12 
REMARK    5  A    between atoms: C15_21  and  O2_22 
ROOT
HETATM    1  C2  UNL     1      22.645  -0.018  53.458  1.00  0.00     0.103 A 
HETATM    2  C3  UNL     1      21.552   0.800  53.249  1.00  0.00     0.072 A 
HETATM    3  C4  UNL     1      21.714   2.054  52.698  1.00  0.00     0.075 A 
HETATM    4  N1  UNL     1      20.646   2.879  52.484  1.00  0.00    -0.241 NA
HETATM    5  C5  UNL     1      20.846   4.111  51.938  1.00  0.00     0.235 A 
HETATM    6  N2  UNL     1      22.086   4.568  51.587  1.00  0.00    -0.224 NA
HETATM    7  C6  UNL     1      23.171   3.799  51.776  1.00  0.00     0.138 A 
HETATM    8  C13 UNL     1      22.943   2.557  52.330  1.00  0.00     0.041 A 
HETATM    9  C14 UNL     1      24.001   1.705  52.557  1.00  0.00     0.057 A 
HETATM   10  C15 UNL     1      23.897   0.442  53.105  1.00  0.00     0.102 A 
ENDROOT
BRANCH   7  11
HETATM   11  N3  UNL     1      24.462   4.279  51.410  1.00  0.00    -0.357 N 
HETATM   12  H6  UNL     1      25.197   4.613  52.048  1.00  0.00     0.162 HD
BRANCH  11  13
HETATM   13  C7  UNL     1      24.708   4.271  49.977  1.00  0.00     0.071 A 
HETATM   14  C8  UNL     1      24.670   5.674  49.496  1.00  0.00     0.032 A 
HETATM   15  C9  UNL     1      23.958   6.219  48.543  1.00  0.00     0.032 A 
HETATM   16 CL1  UNL     1      24.064   7.913  48.128  1.00  0.00    -0.085 Cl
HETATM   17  C10 UNL     1      23.049   5.335  47.826  1.00  0.00     0.019 A 
HETATM   18  C11 UNL     1      22.996   4.056  48.171  1.00  0.00    -0.022 A 
HETATM   19  C12 UNL     1      23.769   3.365  49.234  1.00  0.00     0.067 A 
BRANCH  13  20
HETATM   20  P1  UNL     1      26.469   3.697  49.666  1.00  0.00    -0.106 P 
HETATM   21  H7  UNL     1      27.172   4.796  49.040  1.00  0.00     0.057 HD
HETATM   22  H8  UNL     1      27.089   3.230  50.886  1.00  0.00     0.057 HD
ENDBRANCH  13  20
ENDBRANCH  11  13
ENDBRANCH   7  11
BRANCH  10  23
HETATM   23  O2  UNL     1      24.973  -0.398  53.324  1.00  0.00    -0.353 OA
HETATM   24  C16 UNL     1      26.039  -0.167  54.193  1.00  0.00     0.210 C 
ENDBRANCH  10  23
BRANCH   1  25
HETATM   25  O1  UNL     1      22.511  -1.284  54.010  1.00  0.00    -0.353 OA
HETATM   26  C1  UNL     1      21.300  -1.841  54.415  1.00  0.00     0.210 C 
ENDBRANCH   1  25
TORSDOF 5
ENDMDL
MODEL 6
REMARK VINA RESULT:      -6.3      2.247      3.522
REMARK  5 active torsions:
REMARK  status: ('A' for Active; 'I' for Inactive)
REMARK    1  A    between atoms: O1_2  and  C2_3 
REMARK    2  A    between atoms: C6_9  and  N3_10 
REMARK    3  A    between atoms: N3_10  and  C7_11 
REMARK    4  A    between atoms: C7_11  and  P1_12 
REMARK    5  A    between atoms: C15_21  and  O2_22 
ROOT
HETATM    1  C2  UNL     1      26.169   0.119  52.605  1.00  0.00     0.103 A 
HETATM    2  C3  UNL     1      25.241  -0.645  53.284  1.00  0.00     0.072 A 
HETATM    3  C4  UNL     1      23.940  -0.207  53.418  1.00  0.00     0.075 A 
HETATM    4  N1  UNL     1      23.006  -0.947  54.085  1.00  0.00    -0.241 NA
HETATM    5  C5  UNL     1      21.730  -0.481  54.196  1.00  0.00     0.235 A 
HETATM    6  N2  UNL     1      21.334   0.713  53.661  1.00  0.00    -0.224 NA
HETATM    7  C6  UNL     1      22.211   1.482  52.995  1.00  0.00     0.138 A 
HETATM    8  C13 UNL     1      23.495   0.989  52.895  1.00  0.00     0.041 A 
HETATM    9  C14 UNL     1      24.457   1.714  52.228  1.00  0.00     0.057 A 
HETATM   10  C15 UNL     1      25.772   1.325  52.065  1.00  0.00     0.102 A 
ENDROOT
BRANCH   7  11
HETATM   11  N3  UNL     1      21.795   2.726  52.438  1.00  0.00    -0.357 N 
HETATM   12  H6  UNL     1      21.996   3.664  52.811  1.00  0.00     0.162 HD
BRANCH  11  13
HETATM   13  C7  UNL     1      21.010   2.593  51.222  1.00  0.00     0.071 A 
HETATM   14  C8  UNL     1      19.637   3.080  51.504  1.00  0.00     0.032 A 
HETATM   15  C9  UNL     1      18.483   2.487  51.338  1.00  0.00     0.032 A 
HETATM   16 CL1  UNL     1      16.960   3.244  51.737  1.00  0.00    -0.085 Cl
HETATM   17  C10 UNL     1      18.520   1.135  50.795  1.00  0.00     0.019 A 
HETATM   18  C11 UNL     1      19.695   0.595  50.505  1.00  0.00    -0.022 A 
HETATM   19  C12 UNL     1      21.042   1.201  50.662  1.00  0.00     0.067 A 
BRANCH  13  20
HETATM   20  P1  UNL     1      21.689   3.775  49.929  1.00  0.00    -0.106 P 
HETATM   21  H7  UNL     1      22.950   4.278  50.431  1.00  0.00     0.057 HD
HETATM   22  H8  UNL     1      21.793   3.134  48.638  1.00  0.00     0.057 HD
ENDBRANCH  13  20
ENDBRANCH  11  13
ENDBRANCH   7  11
BRANCH  10  23
HETATM   23  O2  UNL     1      26.721   2.069  51.390  1.00  0.00    -0.353 OA
HETATM   24  C16 UNL     1      26.505   2.855  50.258  1.00  0.00     0.210 C 
ENDBRANCH  10  23
BRANCH   1  25
HETATM   25  O1  UNL     1      27.485  -0.297  52.455  1.00  0.00    -0.353 OA
HETATM   26  C1  UNL     1      28.410  -0.369  53.495  1.00  0.00     0.210 C 
ENDBRANCH   1  25
TORSDOF 5
ENDMDL
MODEL 7
REMARK VINA RESULT:      -6.1      3.659      5.659
REMARK  5 active torsions:
REMARK  status: ('A' for Active; 'I' for Inactive)
REMARK    1  A    between atoms: O1_2  and  C2_3 
REMARK    2  A    between atoms: C6_9  and  N3_10 
REMARK    3  A    between atoms: N3_10  and  C7_11 
REMARK    4  A    between atoms: C7_11  and  P1_12 
REMARK    5  A    between atoms: C15_21  and  O2_22 
ROOT
HETATM    1  C2  UNL     1      19.143  -0.562  52.944  1.00  0.00     0.103 A 
HETATM    2  C3  UNL     1      20.351  -0.467  53.607  1.00  0.00     0.072 A 
HETATM    3  C4  UNL     1      21.443   0.106  52.988  1.00  0.00     0.075 A 
HETATM    4  N1  UNL     1      22.646   0.210  53.626  1.00  0.00    -0.241 NA
HETATM    5  C5  UNL     1      23.702   0.783  52.982  1.00  0.00     0.235 A 
HETATM    6  N2  UNL     1      23.612   1.267  51.708  1.00  0.00    -0.224 NA
HETATM    7  C6  UNL     1      22.452   1.191  51.034  1.00  0.00     0.138 A 
HETATM    8  C13 UNL     1      21.399   0.608  51.705  1.00  0.00     0.041 A 
HETATM    9  C14 UNL     1      20.174   0.491  51.087  1.00  0.00     0.057 A 
HETATM   10  C15 UNL     1      19.050  -0.073  51.656  1.00  0.00     0.102 A 
ENDROOT
BRANCH   7  11
HETATM   11  N3  UNL     1      22.362   1.697  49.704  1.00  0.00    -0.357 N 
HETATM   12  H6  UNL     1      22.268   1.145  48.842  1.00  0.00     0.162 HD
BRANCH  11  13
HETATM   13  C7  UNL     1      22.412   3.148  49.623  1.00  0.00     0.071 A 
HETATM   14  C8  UNL     1      23.789   3.541  49.232  1.00  0.00     0.032 A 
HETATM   15  C9  UNL     1      24.627   4.362  49.811  1.00  0.00     0.032 A 
HETATM   16 CL1  UNL     1      26.223   4.691  49.181  1.00  0.00    -0.085 Cl
HETATM   17  C10 UNL     1      24.164   5.005  51.033  1.00  0.00     0.019 A 
HETATM   18  C11 UNL     1      22.947   4.730  51.480  1.00  0.00    -0.022 A 
HETATM   19  C12 UNL     1      21.941   3.815  50.883  1.00  0.00     0.067 A 
BRANCH  13  20
HETATM   20  P1  UNL     1      21.323   3.714  48.201  1.00  0.00    -0.106 P 
HETATM   21  H7  UNL     1      20.842   2.525  47.532  1.00  0.00     0.057 HD
HETATM   22  H8  UNL     1      20.266   4.585  48.667  1.00  0.00     0.057 HD
ENDBRANCH  13  20
ENDBRANCH  11  13
ENDBRANCH   7  11
BRANCH  10  23
HETATM   23  O2  UNL     1      17.829  -0.180  51.017  1.00  0.00    -0.353 OA
HETATM   24  C16 UNL     1      17.401   0.567  49.921  1.00  0.00     0.210 C 
ENDBRANCH  10  23
BRANCH   1  25
HETATM   25  O1  UNL     1      18.028  -1.133  53.541  1.00  0.00    -0.353 OA
HETATM   26  C1  UNL     1      17.825  -2.505  53.676  1.00  0.00     0.210 C 
ENDBRANCH   1  25
TORSDOF 5
ENDMDL
MODEL 8
REMARK VINA RESULT:      -6.1      3.466      5.659
REMARK  5 active torsions:
REMARK  status: ('A' for Active; 'I' for Inactive)
REMARK    1  A    between atoms: O1_2  and  C2_3 
REMARK    2  A    between atoms: C6_9  and  N3_10 
REMARK    3  A    between atoms: N3_10  and  C7_11 
REMARK    4  A    between atoms: C7_11  and  P1_12 
REMARK    5  A    between atoms: C15_21  and  O2_22 
ROOT
HETATM    1  C2  UNL     1      19.500  -0.453  53.190  1.00  0.00     0.103 A 
HETATM    2  C3  UNL     1      20.646  -0.860  53.844  1.00  0.00     0.072 A 
HETATM    3  C4  UNL     1      21.883  -0.417  53.424  1.00  0.00     0.075 A 
HETATM    4  N1  UNL     1      23.029  -0.808  54.056  1.00  0.00    -0.241 NA
HETATM    5  C5  UNL     1      24.233  -0.349  53.612  1.00  0.00     0.235 A 
HETATM    6  N2  UNL     1      24.350   0.499  52.547  1.00  0.00    -0.224 NA
HETATM    7  C6  UNL     1      23.255   0.916  51.888  1.00  0.00     0.138 A 
HETATM    8  C13 UNL     1      22.050   0.438  52.356  1.00  0.00     0.041 A 
HETATM    9  C14 UNL     1      20.878   0.816  51.738  1.00  0.00     0.057 A 
HETATM   10  C15 UNL     1      19.615   0.403  52.114  1.00  0.00     0.102 A 
ENDROOT
BRANCH   7  11
HETATM   11  N3  UNL     1      23.380   1.800  50.778  1.00  0.00    -0.357 N 
HETATM   12  H6  UNL     1      22.963   1.678  49.845  1.00  0.00     0.162 HD
BRANCH  11  13
HETATM   13  C7  UNL     1      24.191   2.976  51.051  1.00  0.00     0.071 A 
HETATM   14  C8  UNL     1      23.815   4.031  50.077  1.00  0.00     0.032 A 
HETATM   15  C9  UNL     1      24.561   4.718  49.250  1.00  0.00     0.032 A 
HETATM   16 CL1  UNL     1      23.915   5.931  48.172  1.00  0.00    -0.085 Cl
HETATM   17  C10 UNL     1      25.988   4.421  49.264  1.00  0.00     0.019 A 
HETATM   18  C11 UNL     1      26.440   3.493  50.096  1.00  0.00    -0.022 A 
HETATM   19  C12 UNL     1      25.662   2.675  51.060  1.00  0.00     0.067 A 
BRANCH  13  20
HETATM   20  P1  UNL     1      23.709   3.669  52.729  1.00  0.00    -0.106 P 
HETATM   21  H7  UNL     1      22.587   2.889  53.206  1.00  0.00     0.057 HD
HETATM   22  H8  UNL     1      24.836   3.678  53.634  1.00  0.00     0.057 HD
ENDBRANCH  13  20
ENDBRANCH  11  13
ENDBRANCH   7  11
BRANCH  10  23
HETATM   23  O2  UNL     1      18.452   0.795  51.480  1.00  0.00    -0.353 OA
HETATM   24  C16 UNL     1      17.905   0.228  50.328  1.00  0.00     0.210 C 
ENDBRANCH  10  23
BRANCH   1  25
HETATM   25  O1  UNL     1      18.242  -0.882  53.591  1.00  0.00    -0.353 OA
HETATM   26  C1  UNL     1      17.805  -2.204  53.524  1.00  0.00     0.210 C 
ENDBRANCH   1  25
TORSDOF 5
ENDMDL
MODEL 9
REMARK VINA RESULT:      -6.0      3.395      5.044
REMARK  5 active torsions:
REMARK  status: ('A' for Active; 'I' for Inactive)
REMARK    1  A    between atoms: O1_2  and  C2_3 
REMARK    2  A    between atoms: C6_9  and  N3_10 
REMARK    3  A    between atoms: N3_10  and  C7_11 
REMARK    4  A    between atoms: C7_11  and  P1_12 
REMARK    5  A    between atoms: C15_21  and  O2_22 
ROOT
HETATM    1  C2  UNL     1      26.508   5.578  48.892  1.00  0.00     0.103 A 
HETATM    2  C3  UNL     1      26.996   4.360  49.324  1.00  0.00     0.072 A 
HETATM    3  C4  UNL     1      26.275   3.599  50.220  1.00  0.00     0.075 A 
HETATM    4  N1  UNL     1      26.739   2.392  50.661  1.00  0.00    -0.241 NA
HETATM    5  C5  UNL     1      25.998   1.668  51.546  1.00  0.00     0.235 A 
HETATM    6  N2  UNL     1      24.791   2.099  52.021  1.00  0.00    -0.224 NA
HETATM    7  C6  UNL     1      24.287   3.278  51.621  1.00  0.00     0.138 A 
HETATM    8  C13 UNL     1      25.054   3.992  50.726  1.00  0.00     0.041 A 
HETATM    9  C14 UNL     1      24.611   5.212  50.264  1.00  0.00     0.057 A 
HETATM   10  C15 UNL     1      25.290   6.015  49.370  1.00  0.00     0.102 A 
ENDROOT
BRANCH   7  11
HETATM   11  N3  UNL     1      23.028   3.725  52.119  1.00  0.00    -0.357 N 
HETATM   12  H6  UNL     1      22.873   4.423  52.858  1.00  0.00     0.162 HD
BRANCH  11  13
HETATM   13  C7  UNL     1      21.885   3.095  51.477  1.00  0.00     0.071 A 
HETATM   14  C8  UNL     1      21.238   2.198  52.466  1.00  0.00     0.032 A 
HETATM   15  C9  UNL     1      20.948   0.926  52.385  1.00  0.00     0.032 A 
HETATM   16 CL1  UNL     1      20.175   0.042  53.680  1.00  0.00    -0.085 Cl
HETATM   17  C10 UNL     1      21.305   0.257  51.140  1.00  0.00     0.019 A 
HETATM   18  C11 UNL     1      21.890   0.960  50.182  1.00  0.00    -0.022 A 
HETATM   19  C12 UNL     1      22.250   2.401  50.197  1.00  0.00     0.067 A 
BRANCH  13  20
HETATM   20  P1  UNL     1      20.599   4.412  51.100  1.00  0.00    -0.106 P 
HETATM   21  H7  UNL     1      21.245   5.417  50.284  1.00  0.00     0.057 HD
HETATM   22  H8  UNL     1      19.424   3.834  50.488  1.00  0.00     0.057 HD
ENDBRANCH  13  20
ENDBRANCH  11  13
ENDBRANCH   7  11
BRANCH  10  23
HETATM   23  O2  UNL     1      24.826   7.237  48.920  1.00  0.00    -0.353 OA
HETATM   24  C16 UNL     1      24.674   8.396  49.681  1.00  0.00     0.210 C 
ENDBRANCH  10  23
BRANCH   1  25
HETATM   25  O1  UNL     1      27.212   6.365  47.991  1.00  0.00    -0.353 OA
HETATM   26  C1  UNL     1      28.593   6.550  48.020  1.00  0.00     0.210 C 
ENDBRANCH   1  25
TORSDOF 5
ENDMDL
