MODEL 1
REMARK VINA RESULT:      -8.8      0.000      0.000
REMARK  1 active torsions:
REMARK  status: ('A' for Active; 'I' for Inactive)
REMARK    1  A    between atoms: N1_4  and  O2_5 
ROOT
HETATM    1  O1  UNL     1      23.730   3.630  52.093  1.00  0.00    -0.143 OA
HETATM    2  C1  UNL     1      23.556   4.659  52.794  1.00  0.00     0.376 A 
HETATM    3  C2  UNL     1      22.735   5.213  51.677  1.00  0.00     0.231 C 
HETATM    4  N1  UNL     1      22.609   4.334  50.550  1.00  0.00    -0.273 N 
HETATM    5  C3  UNL     1      22.196   3.201  49.858  1.00  0.00     0.123 A 
HETATM    6  C4  UNL     1      22.892   2.144  49.354  1.00  0.00     0.051 A 
HETATM    7  C5  UNL     1      21.869   1.487  50.202  1.00  0.00     0.064 A 
HETATM    8  C6  UNL     1      21.865   1.129  51.462  1.00  0.00     0.118 C 
HETATM    9  N2  UNL     1      20.567   0.541  51.759  1.00  0.00    -0.228 NA
HETATM   10  C7  UNL     1      19.714   1.535  52.074  1.00  0.00     0.236 C 
HETATM   11  N3  UNL     1      19.373   2.889  52.283  1.00  0.00    -0.230 NA
HETATM   12  C8  UNL     1      19.402   3.881  51.488  1.00  0.00     0.259 C 
HETATM   13  O3  UNL     1      19.747   4.210  50.099  1.00  0.00    -0.306 OA
HETATM   14  C9  UNL     1      20.727   3.274  49.663  1.00  0.00     0.082 C 
HETATM   15  C10 UNL     1      19.935   2.434  49.025  1.00  0.00     0.010 C 
HETATM   16  C11 UNL     1      20.704   1.197  49.273  1.00  0.00     0.051 C 
HETATM   17  N4  UNL     1      22.756   1.135  52.547  1.00  0.00    -0.342 N 
HETATM   18  C12 UNL     1      24.118   1.347  52.858  1.00  0.00     0.072 A 
HETATM   19  C13 UNL     1      24.781   0.124  52.708  1.00  0.00     0.051 A 
HETATM   20  C14 UNL     1      26.159  -0.039  52.921  1.00  0.00     0.013 A 
HETATM   21 BR1  UNL     1      27.066  -1.703  52.716  1.00  0.00    -0.051 Br
HETATM   22  C15 UNL     1      26.902   1.055  53.299  1.00  0.00     0.021 A 
HETATM   23  C16 UNL     1      26.240   2.249  53.444  1.00  0.00     0.044 A 
HETATM   24  C17 UNL     1      24.896   2.404  53.235  1.00  0.00     0.197 A 
HETATM   25  N5  UNL     1      24.355   3.695  53.443  1.00  0.00     0.122 N 
HETATM   26  H10 UNL     1      22.446   0.904  53.503  1.00  0.00     0.167 HD
HETATM   27  H14 UNL     1      24.615   4.111  54.388  1.00  0.00     0.329 HD
ENDROOT
BRANCH   4  28
HETATM   28  O2  UNL     1      23.209   4.791  49.423  1.00  0.00    -0.291 OA
HETATM   29  H3  UNL     1      23.366   5.775  49.556  1.00  0.00     0.244 HD
ENDBRANCH   4  28
TORSDOF 1
ENDMDL
MODEL 2
REMARK VINA RESULT:      -8.1      1.908      2.519
REMARK  1 active torsions:
REMARK  status: ('A' for Active; 'I' for Inactive)
REMARK    1  A    between atoms: N1_4  and  O2_5 
ROOT
HETATM    1  O1  UNL     1      23.421   2.733  49.650  1.00  0.00    -0.143 OA
HETATM    2  C1  UNL     1      23.578   3.720  48.887  1.00  0.00     0.376 A 
HETATM    3  C2  UNL     1      22.410   3.227  48.099  1.00  0.00     0.231 C 
HETATM    4  N1  UNL     1      21.815   2.030  48.620  1.00  0.00    -0.273 N 
HETATM    5  C3  UNL     1      21.117   1.246  49.532  1.00  0.00     0.123 A 
HETATM    6  C4  UNL     1      21.514   0.222  50.337  1.00  0.00     0.051 A 
HETATM    7  C5  UNL     1      20.879   1.161  51.292  1.00  0.00     0.064 A 
HETATM    8  C6  UNL     1      21.353   2.156  52.000  1.00  0.00     0.118 C 
HETATM    9  N2  UNL     1      20.252   2.740  52.751  1.00  0.00    -0.228 NA
HETATM   10  C7  UNL     1      19.633   3.641  51.962  1.00  0.00     0.236 C 
HETATM   11  N3  UNL     1      19.459   4.359  50.760  1.00  0.00    -0.230 NA
HETATM   12  C8  UNL     1      19.216   3.950  49.581  1.00  0.00     0.259 C 
HETATM   13  O3  UNL     1      19.003   2.703  48.836  1.00  0.00    -0.306 OA
HETATM   14  C9  UNL     1      19.694   1.665  49.523  1.00  0.00     0.082 C 
HETATM   15  C10 UNL     1      18.680   1.163  50.201  1.00  0.00     0.010 C 
HETATM   16  C11 UNL     1      19.432   0.713  51.392  1.00  0.00     0.051 C 
HETATM   17  N4  UNL     1      22.597   2.761  52.239  1.00  0.00    -0.342 N 
HETATM   18  C12 UNL     1      23.980   2.570  52.018  1.00  0.00     0.072 A 
HETATM   19  C13 UNL     1      24.479   1.818  53.087  1.00  0.00     0.051 A 
HETATM   20  C14 UNL     1      25.822   1.424  53.195  1.00  0.00     0.013 A 
HETATM   21 BR1  UNL     1      26.505   0.398  54.649  1.00  0.00    -0.051 Br
HETATM   22  C15 UNL     1      26.700   1.794  52.202  1.00  0.00     0.021 A 
HETATM   23  C16 UNL     1      26.199   2.533  51.158  1.00  0.00     0.044 A 
HETATM   24  C17 UNL     1      24.887   2.914  51.057  1.00  0.00     0.197 A 
HETATM   25  N5  UNL     1      24.527   3.690  49.930  1.00  0.00     0.122 N 
HETATM   26  H10 UNL     1      22.677   3.646  52.761  1.00  0.00     0.167 HD
HETATM   27  H14 UNL     1      25.153   4.540  49.788  1.00  0.00     0.329 HD
ENDROOT
BRANCH   4  28
HETATM   28  O2  UNL     1      21.945   0.950  47.808  1.00  0.00    -0.291 OA
HETATM   29  H3  UNL     1      21.457   1.167  46.957  1.00  0.00     0.244 HD
ENDBRANCH   4  28
TORSDOF 1
ENDMDL
MODEL 3
REMARK VINA RESULT:      -8.1      7.901      9.219
REMARK  1 active torsions:
REMARK  status: ('A' for Active; 'I' for Inactive)
REMARK    1  A    between atoms: N1_4  and  O2_5 
ROOT
HETATM    1  O1  UNL     1      30.583   8.676  48.754  1.00  0.00    -0.143 OA
HETATM    2  C1  UNL     1      30.895   9.388  49.742  1.00  0.00     0.376 A 
HETATM    3  C2  UNL     1      29.982  10.438  49.202  1.00  0.00     0.231 C 
HETATM    4  N1  UNL     1      29.317  10.069  47.986  1.00  0.00    -0.273 N 
HETATM    5  C3  UNL     1      28.438   9.352  47.181  1.00  0.00     0.123 A 
HETATM    6  C4  UNL     1      28.655   8.459  46.176  1.00  0.00     0.051 A 
HETATM    7  C5  UNL     1      27.765   7.708  47.094  1.00  0.00     0.064 A 
HETATM    8  C6  UNL     1      28.010   6.917  48.110  1.00  0.00     0.118 C 
HETATM    9  N2  UNL     1      26.735   6.477  48.656  1.00  0.00    -0.228 NA
HETATM   10  C7  UNL     1      26.305   7.408  49.529  1.00  0.00     0.236 C 
HETATM   11  N3  UNL     1      26.416   8.626  50.235  1.00  0.00    -0.230 NA
HETATM   12  C8  UNL     1      26.493   9.822  49.812  1.00  0.00     0.259 C 
HETATM   13  O3  UNL     1      26.519  10.579  48.555  1.00  0.00    -0.306 OA
HETATM   14  C9  UNL     1      27.049   9.726  47.546  1.00  0.00     0.082 C 
HETATM   15  C10 UNL     1      25.915   9.319  47.009  1.00  0.00     0.010 C 
HETATM   16  C11 UNL     1      26.357   7.971  46.593  1.00  0.00     0.051 C 
HETATM   17  N4  UNL     1      29.131   6.380  48.762  1.00  0.00    -0.342 N 
HETATM   18  C12 UNL     1      30.531   6.242  48.622  1.00  0.00     0.072 A 
HETATM   19  C13 UNL     1      30.769   5.071  47.894  1.00  0.00     0.051 A 
HETATM   20  C14 UNL     1      32.054   4.622  47.551  1.00  0.00     0.013 A 
HETATM   21 BR1  UNL     1      32.382   3.028  46.558  1.00  0.00    -0.051 Br
HETATM   22  C15 UNL     1      33.141   5.366  47.949  1.00  0.00     0.021 A 
HETATM   23  C16 UNL     1      32.895   6.512  48.664  1.00  0.00     0.044 A 
HETATM   24  C17 UNL     1      31.639   6.947  48.996  1.00  0.00     0.197 A 
HETATM   25  N5  UNL     1      31.549   8.139  49.752  1.00  0.00     0.122 N 
HETATM   26  H10 UNL     1      29.046   5.867  49.652  1.00  0.00     0.167 HD
HETATM   27  H14 UNL     1      32.160   8.130  50.624  1.00  0.00     0.329 HD
ENDROOT
BRANCH   4  28
HETATM   28  O2  UNL     1      29.685  10.806  46.908  1.00  0.00    -0.291 OA
HETATM   29  H3  UNL     1      29.698  11.766  47.205  1.00  0.00     0.244 HD
ENDBRANCH   4  28
TORSDOF 1
ENDMDL
MODEL 4
REMARK VINA RESULT:      -8.0      8.645     10.885
REMARK  1 active torsions:
REMARK  status: ('A' for Active; 'I' for Inactive)
REMARK    1  A    between atoms: N1_4  and  O2_5 
ROOT
HETATM    1  O1  UNL     1      29.478   8.328  48.674  1.00  0.00    -0.143 OA
HETATM    2  C1  UNL     1      29.236   9.437  48.134  1.00  0.00     0.376 A 
HETATM    3  C2  UNL     1      30.603   9.873  48.546  1.00  0.00     0.231 C 
HETATM    4  N1  UNL     1      31.354   8.869  49.243  1.00  0.00    -0.273 N 
HETATM    5  C3  UNL     1      32.043   7.671  49.398  1.00  0.00     0.123 A 
HETATM    6  C4  UNL     1      31.755   6.546  50.107  1.00  0.00     0.051 A 
HETATM    7  C5  UNL     1      31.989   6.020  48.741  1.00  0.00     0.064 A 
HETATM    8  C6  UNL     1      31.188   5.816  47.724  1.00  0.00     0.118 C 
HETATM    9  N2  UNL     1      31.982   5.300  46.620  1.00  0.00    -0.228 NA
HETATM   10  C7  UNL     1      32.508   6.345  45.952  1.00  0.00     0.236 C 
HETATM   11  N3  UNL     1      32.720   7.722  45.725  1.00  0.00    -0.230 NA
HETATM   12  C8  UNL     1      33.248   8.611  46.466  1.00  0.00     0.259 C 
HETATM   13  O3  UNL     1      33.861   8.762  47.791  1.00  0.00    -0.306 OA
HETATM   14  C9  UNL     1      33.315   7.757  48.638  1.00  0.00     0.082 C 
HETATM   15  C10 UNL     1      34.284   6.866  48.546  1.00  0.00     0.010 C 
HETATM   16  C11 UNL     1      33.460   5.649  48.700  1.00  0.00     0.051 C 
HETATM   17  N4  UNL     1      29.817   5.930  47.442  1.00  0.00    -0.342 N 
HETATM   18  C12 UNL     1      28.572   6.145  48.076  1.00  0.00     0.072 A 
HETATM   19  C13 UNL     1      28.079   4.897  48.473  1.00  0.00     0.051 A 
HETATM   20  C14 UNL     1      26.861   4.726  49.151  1.00  0.00     0.013 A 
HETATM   21 BR1  UNL     1      26.188   3.028  49.695  1.00  0.00    -0.051 Br
HETATM   22  C15 UNL     1      26.107   5.839  49.442  1.00  0.00     0.021 A 
HETATM   23  C16 UNL     1      26.600   7.058  49.046  1.00  0.00     0.044 A 
HETATM   24  C17 UNL     1      27.789   7.220  48.386  1.00  0.00     0.197 A 
HETATM   25  N5  UNL     1      28.154   8.539  48.027  1.00  0.00     0.122 N 
HETATM   26  H10 UNL     1      29.451   5.823  46.485  1.00  0.00     0.167 HD
HETATM   27  H14 UNL     1      27.386   9.059  47.503  1.00  0.00     0.329 HD
ENDROOT
BRANCH   4  28
HETATM   28  O2  UNL     1      31.613   9.173  50.540  1.00  0.00    -0.291 OA
HETATM   29  H3  UNL     1      32.611   9.250  50.626  1.00  0.00     0.244 HD
ENDBRANCH   4  28
TORSDOF 1
ENDMDL
MODEL 5
REMARK VINA RESULT:      -8.0      1.970      3.374
REMARK  1 active torsions:
REMARK  status: ('A' for Active; 'I' for Inactive)
REMARK    1  A    between atoms: N1_4  and  O2_5 
ROOT
HETATM    1  O1  UNL     1      22.488   0.913  52.670  1.00  0.00    -0.143 OA
HETATM    2  C1  UNL     1      21.815  -0.149  52.661  1.00  0.00     0.376 A 
HETATM    3  C2  UNL     1      20.602   0.687  52.424  1.00  0.00     0.231 C 
HETATM    4  N1  UNL     1      20.867   2.094  52.333  1.00  0.00    -0.273 N 
HETATM    5  C3  UNL     1      21.380   3.260  51.777  1.00  0.00     0.123 A 
HETATM    6  C4  UNL     1      22.368   4.102  52.190  1.00  0.00     0.051 A 
HETATM    7  C5  UNL     1      22.789   3.756  50.811  1.00  0.00     0.064 A 
HETATM    8  C6  UNL     1      23.542   2.797  50.332  1.00  0.00     0.118 C 
HETATM    9  N2  UNL     1      23.588   2.941  48.885  1.00  0.00    -0.228 NA
HETATM   10  C7  UNL     1      22.516   2.313  48.363  1.00  0.00     0.236 C 
HETATM   11  N3  UNL     1      21.325   1.561  48.452  1.00  0.00    -0.230 NA
HETATM   12  C8  UNL     1      20.225   1.821  49.034  1.00  0.00     0.259 C 
HETATM   13  O3  UNL     1      19.593   2.869  49.846  1.00  0.00    -0.306 OA
HETATM   14  C9  UNL     1      20.626   3.564  50.536  1.00  0.00     0.082 C 
HETATM   15  C10 UNL     1      20.755   4.594  49.721  1.00  0.00     0.010 C 
HETATM   16  C11 UNL     1      22.198   4.840  49.928  1.00  0.00     0.051 C 
HETATM   17  N4  UNL     1      24.309   1.732  50.829  1.00  0.00    -0.342 N 
HETATM   18  C12 UNL     1      24.824   1.209  52.037  1.00  0.00     0.072 A 
HETATM   19  C13 UNL     1      26.064   1.815  52.265  1.00  0.00     0.051 A 
HETATM   20  C14 UNL     1      26.862   1.545  53.389  1.00  0.00     0.013 A 
HETATM   21 BR1  UNL     1      28.552   2.368  53.703  1.00  0.00    -0.051 Br
HETATM   22  C15 UNL     1      26.406   0.637  54.318  1.00  0.00     0.021 A 
HETATM   23  C16 UNL     1      25.188   0.049  54.083  1.00  0.00     0.044 A 
HETATM   24  C17 UNL     1      24.413   0.316  52.986  1.00  0.00     0.197 A 
HETATM   25  N5  UNL     1      23.189  -0.384  52.874  1.00  0.00     0.122 N 
HETATM   26  H10 UNL     1      24.717   1.021  50.204  1.00  0.00     0.167 HD
HETATM   27  H14 UNL     1      23.298  -1.438  52.980  1.00  0.00     0.329 HD
ENDROOT
BRANCH   4  28
HETATM   28  O2  UNL     1      20.332   2.824  53.344  1.00  0.00    -0.291 OA
HETATM   29  H3  UNL     1      19.337   2.826  53.205  1.00  0.00     0.244 HD
ENDBRANCH   4  28
TORSDOF 1
ENDMDL
MODEL 6
REMARK VINA RESULT:      -7.9      3.660      5.184
REMARK  1 active torsions:
REMARK  status: ('A' for Active; 'I' for Inactive)
REMARK    1  A    between atoms: N1_4  and  O2_5 
ROOT
HETATM    1  O1  UNL     1      25.453   3.712  50.731  1.00  0.00    -0.143 OA
HETATM    2  C1  UNL     1      26.168   2.677  50.747  1.00  0.00     0.376 A 
HETATM    3  C2  UNL     1      25.398   2.233  51.946  1.00  0.00     0.231 C 
HETATM    4  N1  UNL     1      24.366   3.143  52.352  1.00  0.00    -0.273 N 
HETATM    5  C3  UNL     1      23.168   3.841  52.245  1.00  0.00     0.123 A 
HETATM    6  C4  UNL     1      22.904   5.165  52.072  1.00  0.00     0.051 A 
HETATM    7  C5  UNL     1      22.152   4.535  50.961  1.00  0.00     0.064 A 
HETATM    8  C6  UNL     1      22.480   4.242  49.727  1.00  0.00     0.118 C 
HETATM    9  N2  UNL     1      21.335   3.605  49.095  1.00  0.00    -0.228 NA
HETATM   10  C7  UNL     1      21.371   2.289  49.380  1.00  0.00     0.236 C 
HETATM   11  N3  UNL     1      21.933   1.141  49.979  1.00  0.00    -0.230 NA
HETATM   12  C8  UNL     1      22.156   0.872  51.201  1.00  0.00     0.259 C 
HETATM   13  O3  UNL     1      22.009   1.464  52.537  1.00  0.00    -0.306 OA
HETATM   14  C9  UNL     1      22.047   2.880  52.389  1.00  0.00     0.082 C 
HETATM   15  C10 UNL     1      20.749   3.118  52.393  1.00  0.00     0.010 C 
HETATM   16  C11 UNL     1      20.754   4.300  51.505  1.00  0.00     0.051 C 
HETATM   17  N4  UNL     1      23.588   4.403  48.881  1.00  0.00    -0.342 N 
HETATM   18  C12 UNL     1      24.833   5.069  48.802  1.00  0.00     0.072 A 
HETATM   19  C13 UNL     1      24.602   6.331  48.244  1.00  0.00     0.051 A 
HETATM   20  C14 UNL     1      25.616   7.279  48.028  1.00  0.00     0.013 A 
HETATM   21 BR1  UNL     1      25.305   8.999  47.269  1.00  0.00    -0.051 Br
HETATM   22  C15 UNL     1      26.906   6.956  48.382  1.00  0.00     0.021 A 
HETATM   23  C16 UNL     1      27.119   5.714  48.928  1.00  0.00     0.044 A 
HETATM   24  C17 UNL     1      26.127   4.794  49.137  1.00  0.00     0.197 A 
HETATM   25  N5  UNL     1      26.509   3.550  49.693  1.00  0.00     0.122 N 
HETATM   26  H10 UNL     1      23.634   3.949  47.956  1.00  0.00     0.167 HD
HETATM   27  H14 UNL     1      27.314   3.087  49.173  1.00  0.00     0.329 HD
ENDROOT
BRANCH   4  28
HETATM   28  O2  UNL     1      24.584   3.724  53.558  1.00  0.00    -0.291 OA
HETATM   29  H3  UNL     1      24.475   3.005  54.251  1.00  0.00     0.244 HD
ENDBRANCH   4  28
TORSDOF 1
ENDMDL
MODEL 7
REMARK VINA RESULT:      -7.7      1.991      3.783
REMARK  1 active torsions:
REMARK  status: ('A' for Active; 'I' for Inactive)
REMARK    1  A    between atoms: N1_4  and  O2_5 
ROOT
HETATM    1  O1  UNL     1      20.893   1.361  51.620  1.00  0.00    -0.143 OA
HETATM    2  C1  UNL     1      20.035   0.603  51.099  1.00  0.00     0.376 A 
HETATM    3  C2  UNL     1      19.189   1.811  50.870  1.00  0.00     0.231 C 
HETATM    4  N1  UNL     1      19.784   3.038  51.317  1.00  0.00    -0.273 N 
HETATM    5  C3  UNL     1      20.702   4.083  51.318  1.00  0.00     0.123 A 
HETATM    6  C4  UNL     1      21.667   4.437  52.211  1.00  0.00     0.051 A 
HETATM    7  C5  UNL     1      22.420   4.333  50.938  1.00  0.00     0.064 A 
HETATM    8  C6  UNL     1      23.048   3.337  50.363  1.00  0.00     0.118 C 
HETATM    9  N2  UNL     1      23.592   3.815  49.101  1.00  0.00    -0.228 NA
HETATM   10  C7  UNL     1      22.633   3.709  48.160  1.00  0.00     0.236 C 
HETATM   11  N3  UNL     1      21.339   3.375  47.707  1.00  0.00    -0.230 NA
HETATM   12  C8  UNL     1      20.199   3.815  48.062  1.00  0.00     0.259 C 
HETATM   13  O3  UNL     1      19.596   4.771  48.999  1.00  0.00    -0.306 OA
HETATM   14  C9  UNL     1      20.481   4.909  50.106  1.00  0.00     0.082 C 
HETATM   15  C10 UNL     1      21.098   6.014  49.735  1.00  0.00     0.010 C 
HETATM   16  C11 UNL     1      22.412   5.732  50.350  1.00  0.00     0.051 C 
HETATM   17  N4  UNL     1      23.348   1.995  50.647  1.00  0.00    -0.342 N 
HETATM   18  C12 UNL     1      23.310   1.052  51.700  1.00  0.00     0.072 A 
HETATM   19  C13 UNL     1      24.514   1.158  52.405  1.00  0.00     0.051 A 
HETATM   20  C14 UNL     1      24.820   0.378  53.532  1.00  0.00     0.013 A 
HETATM   21 BR1  UNL     1      26.458   0.520  54.496  1.00  0.00    -0.051 Br
HETATM   22  C15 UNL     1      23.894  -0.541  53.970  1.00  0.00     0.021 A 
HETATM   23  C16 UNL     1      22.717  -0.635  53.269  1.00  0.00     0.044 A 
HETATM   24  C17 UNL     1      22.422   0.128  52.171  1.00  0.00     0.197 A 
HETATM   25  N5  UNL     1      21.174  -0.099  51.544  1.00  0.00     0.122 N 
HETATM   26  H10 UNL     1      23.762   1.371  49.939  1.00  0.00     0.167 HD
HETATM   27  H14 UNL     1      20.999  -1.125  51.318  1.00  0.00     0.329 HD
ENDROOT
BRANCH   4  28
HETATM   28  O2  UNL     1      19.132   3.623  52.353  1.00  0.00    -0.291 OA
HETATM   29  H3  UNL     1      19.372   3.101  53.178  1.00  0.00     0.244 HD
ENDBRANCH   4  28
TORSDOF 1
ENDMDL
MODEL 8
REMARK VINA RESULT:      -7.6      8.825     10.764
REMARK  1 active torsions:
REMARK  status: ('A' for Active; 'I' for Inactive)
REMARK    1  A    between atoms: N1_4  and  O2_5 
ROOT
HETATM    1  O1  UNL     1      28.343   7.795  48.554  1.00  0.00    -0.143 OA
HETATM    2  C1  UNL     1      27.165   7.368  48.442  1.00  0.00     0.376 A 
HETATM    3  C2  UNL     1      26.717   8.568  49.208  1.00  0.00     0.231 C 
HETATM    4  N1  UNL     1      27.781   9.453  49.588  1.00  0.00    -0.273 N 
HETATM    5  C3  UNL     1      28.810  10.367  49.391  1.00  0.00     0.123 A 
HETATM    6  C4  UNL     1      30.156  10.265  49.564  1.00  0.00     0.051 A 
HETATM    7  C5  UNL     1      30.042  10.725  48.160  1.00  0.00     0.064 A 
HETATM    8  C6  UNL     1      29.946  10.079  47.024  1.00  0.00     0.118 C 
HETATM    9  N2  UNL     1      29.837  11.060  45.955  1.00  0.00    -0.228 NA
HETATM   10  C7  UNL     1      28.541  11.406  45.828  1.00  0.00     0.236 C 
HETATM   11  N3  UNL     1      27.175  11.336  46.176  1.00  0.00    -0.230 NA
HETATM   12  C8  UNL     1      26.587  11.595  47.273  1.00  0.00     0.259 C 
HETATM   13  O3  UNL     1      26.886  12.043  48.639  1.00  0.00    -0.306 OA
HETATM   14  C9  UNL     1      28.221  11.653  48.941  1.00  0.00     0.082 C 
HETATM   15  C10 UNL     1      28.829  12.794  48.681  1.00  0.00     0.010 C 
HETATM   16  C11 UNL     1      30.121  12.239  48.226  1.00  0.00     0.051 C 
HETATM   17  N4  UNL     1      29.952   8.746  46.583  1.00  0.00    -0.342 N 
HETATM   18  C12 UNL     1      30.216   7.433  47.035  1.00  0.00     0.072 A 
HETATM   19  C13 UNL     1      31.580   7.186  46.845  1.00  0.00     0.051 A 
HETATM   20  C14 UNL     1      32.204   5.979  47.196  1.00  0.00     0.013 A 
HETATM   21 BR1  UNL     1      34.062   5.640  46.939  1.00  0.00    -0.051 Br
HETATM   22  C15 UNL     1      31.440   4.981  47.757  1.00  0.00     0.021 A 
HETATM   23  C16 UNL     1      30.103   5.234  47.938  1.00  0.00     0.044 A 
HETATM   24  C17 UNL     1      29.499   6.414  47.594  1.00  0.00     0.197 A 
HETATM   25  N5  UNL     1      28.107   6.517  47.826  1.00  0.00     0.122 N 
HETATM   26  H10 UNL     1      29.722   8.496  45.610  1.00  0.00     0.167 HD
HETATM   27  H14 UNL     1      27.552   5.705  47.418  1.00  0.00     0.329 HD
ENDROOT
BRANCH   4  28
HETATM   28  O2  UNL     1      27.987   9.526  50.927  1.00  0.00    -0.291 OA
HETATM   29  H3  UNL     1      28.102  10.499  51.150  1.00  0.00     0.244 HD
ENDBRANCH   4  28
TORSDOF 1
ENDMDL
MODEL 9
REMARK VINA RESULT:      -7.3      3.558      4.776
REMARK  1 active torsions:
REMARK  status: ('A' for Active; 'I' for Inactive)
REMARK    1  A    between atoms: N1_4  and  O2_5 
ROOT
HETATM    1  O1  UNL     1      23.271   6.829  50.244  1.00  0.00    -0.143 OA
HETATM    2  C1  UNL     1      22.744   7.429  51.215  1.00  0.00     0.376 A 
HETATM    3  C2  UNL     1      21.454   6.774  50.847  1.00  0.00     0.231 C 
HETATM    4  N1  UNL     1      21.542   5.901  49.712  1.00  0.00    -0.273 N 
HETATM    5  C3  UNL     1      21.940   4.777  48.997  1.00  0.00     0.123 A 
HETATM    6  C4  UNL     1      22.777   4.632  47.932  1.00  0.00     0.051 A 
HETATM    7  C5  UNL     1      23.341   3.685  48.924  1.00  0.00     0.064 A 
HETATM    8  C6  UNL     1      24.246   3.823  49.861  1.00  0.00     0.118 C 
HETATM    9  N2  UNL     1      24.382   2.548  50.548  1.00  0.00    -0.228 NA
HETATM   10  C7  UNL     1      23.443   2.484  51.512  1.00  0.00     0.236 C 
HETATM   11  N3  UNL     1      22.355   2.995  52.252  1.00  0.00    -0.230 NA
HETATM   12  C8  UNL     1      21.190   3.341  51.878  1.00  0.00     0.259 C 
HETATM   13  O3  UNL     1      20.369   3.425  50.664  1.00  0.00    -0.306 OA
HETATM   14  C9  UNL     1      21.249   3.590  49.557  1.00  0.00     0.082 C 
HETATM   15  C10 UNL     1      21.304   2.335  49.155  1.00  0.00     0.010 C 
HETATM   16  C11 UNL     1      22.684   2.350  48.623  1.00  0.00     0.051 C 
HETATM   17  N4  UNL     1      25.105   4.827  50.336  1.00  0.00    -0.342 N 
HETATM   18  C12 UNL     1      25.590   6.114  50.009  1.00  0.00     0.072 A 
HETATM   19  C13 UNL     1      26.722   5.946  49.203  1.00  0.00     0.051 A 
HETATM   20  C14 UNL     1      27.460   7.017  48.675  1.00  0.00     0.013 A 
HETATM   21 BR1  UNL     1      29.001   6.792  47.575  1.00  0.00    -0.051 Br
HETATM   22  C15 UNL     1      27.057   8.301  48.961  1.00  0.00     0.021 A 
HETATM   23  C16 UNL     1      25.946   8.452  49.754  1.00  0.00     0.044 A 
HETATM   24  C17 UNL     1      25.228   7.405  50.266  1.00  0.00     0.197 A 
HETATM   25  N5  UNL     1      24.117   7.722  51.082  1.00  0.00     0.122 N 
HETATM   26  H10 UNL     1      25.647   4.709  51.205  1.00  0.00     0.167 HD
HETATM   27  H14 UNL     1      24.353   8.404  51.865  1.00  0.00     0.329 HD
ENDROOT
BRANCH   4  28
HETATM   28  O2  UNL     1      20.842   6.328  48.631  1.00  0.00    -0.291 OA
HETATM   29  H3  UNL     1      21.291   5.936  47.822  1.00  0.00     0.244 HD
ENDBRANCH   4  28
TORSDOF 1
ENDMDL
