MODEL 1
REMARK VINA RESULT:      -6.6      0.000      0.000
REMARK  7 active torsions:
REMARK  status: ('A' for Active; 'I' for Inactive)
REMARK    1  A    between atoms: C2_3  and  S2_4 
REMARK    2  A    between atoms: S2_4  and  C3_5 
REMARK    3  A    between atoms: C3_5  and  C4_6 
REMARK    4  A    between atoms: C5_7  and  N1_8 
REMARK    5  A    between atoms: N1_8  and  C6_9 
REMARK    6  A    between atoms: C10_15  and  O1_16 
REMARK    7  A    between atoms: O1_16  and  C11_17 
ROOT
HETATM    1  C1  UNL     1      17.411   2.066  44.095  1.00  0.00     0.019 C 
HETATM    2  S1  UNL     1      17.869   2.997  45.694  1.00  0.00    -0.012 SA
HETATM    3  C2  UNL     1      18.312   3.845  47.203  1.00  0.00    -0.028 C 
ENDROOT
BRANCH   3   4
HETATM    4  S2  UNL     1      18.753   4.664  48.677  1.00  0.00    -0.075 SA
BRANCH   4   5
HETATM    5  C3  UNL     1      18.569   3.559  50.095  1.00  0.00     0.116 C 
BRANCH   5   6
HETATM    6  C4  UNL     1      19.870   3.389  50.764  1.00  0.00     0.001 C 
HETATM    7  C5  UNL     1      20.588   2.583  51.512  1.00  0.00     0.086 C 
BRANCH   7   8
HETATM    8  N1  UNL     1      21.770   2.262  52.209  1.00  0.00    -0.350 N 
HETATM    9  H6  UNL     1      22.558   2.939  52.156  1.00  0.00     0.166 HD
BRANCH   8  10
HETATM   10  C6  UNL     1      22.179   1.164  53.012  1.00  0.00     0.144 A 
HETATM   11  N2  UNL     1      21.298   0.505  53.803  1.00  0.00    -0.223 NA
HETATM   12  C7  UNL     1      21.661  -0.532  54.573  1.00  0.00     0.236 A 
HETATM   13  N3  UNL     1      22.945  -0.938  54.562  1.00  0.00    -0.241 NA
HETATM   14  C8  UNL     1      23.905  -0.363  53.819  1.00  0.00     0.077 A 
HETATM   15  C9  UNL     1      25.226  -0.781  53.776  1.00  0.00     0.072 A 
HETATM   16  C16 UNL     1      23.496   0.699  53.040  1.00  0.00     0.075 A 
HETATM   17  C10 UNL     1      26.169  -0.137  52.948  1.00  0.00     0.107 A 
HETATM   18  C14 UNL     1      25.665   0.908  52.216  1.00  0.00     0.136 A 
HETATM   19  C15 UNL     1      24.360   1.373  52.211  1.00  0.00     0.121 A 
HETATM   20  O3  UNL     1      26.582   1.529  51.417  1.00  0.00    -0.344 OA
HETATM   21  O2  UNL     1      24.084   2.450  51.382  1.00  0.00    -0.345 OA
HETATM   22  C17 UNL     1      25.071   3.371  50.984  1.00  0.00     0.202 C 
HETATM   23  C18 UNL     1      26.383   2.692  50.661  1.00  0.00     0.202 C 
BRANCH  17  24
HETATM   24  O1  UNL     1      27.358  -0.721  53.086  1.00  0.00    -0.344 OA
BRANCH  24  25
HETATM   25  C11 UNL     1      28.627  -0.378  53.456  1.00  0.00     0.121 C 
HETATM   26  C12 UNL     1      28.702   0.246  54.844  1.00  0.00     0.040 C 
HETATM   27  C13 UNL     1      29.581  -1.527  53.406  1.00  0.00     0.040 C 
ENDBRANCH  24  25
ENDBRANCH  17  24
ENDBRANCH   8  10
ENDBRANCH   7   8
ENDBRANCH   5   6
ENDBRANCH   4   5
ENDBRANCH   3   4
TORSDOF 7
ENDMDL
MODEL 2
REMARK VINA RESULT:      -6.4      2.257      2.446
REMARK  7 active torsions:
REMARK  status: ('A' for Active; 'I' for Inactive)
REMARK    1  A    between atoms: C2_3  and  S2_4 
REMARK    2  A    between atoms: S2_4  and  C3_5 
REMARK    3  A    between atoms: C3_5  and  C4_6 
REMARK    4  A    between atoms: C5_7  and  N1_8 
REMARK    5  A    between atoms: N1_8  and  C6_9 
REMARK    6  A    between atoms: C10_15  and  O1_16 
REMARK    7  A    between atoms: O1_16  and  C11_17 
ROOT
HETATM    1  C1  UNL     1      12.265   5.056  48.518  1.00  0.00     0.019 C 
HETATM    2  S1  UNL     1      13.862   4.609  49.456  1.00  0.00    -0.012 SA
HETATM    3  C2  UNL     1      15.365   4.168  50.316  1.00  0.00    -0.028 C 
ENDROOT
BRANCH   3   4
HETATM    4  S2  UNL     1      16.835   3.733  51.145  1.00  0.00    -0.075 SA
BRANCH   4   5
HETATM    5  C3  UNL     1      17.262   2.009  50.814  1.00  0.00     0.116 C 
BRANCH   5   6
HETATM    6  C4  UNL     1      18.606   1.720  51.342  1.00  0.00     0.001 C 
HETATM    7  C5  UNL     1      19.597   2.199  52.058  1.00  0.00     0.086 C 
BRANCH   7   8
HETATM    8  N1  UNL     1      20.877   2.085  52.637  1.00  0.00    -0.350 N 
HETATM    9  H6  UNL     1      21.484   2.930  52.633  1.00  0.00     0.166 HD
BRANCH   8  10
HETATM   10  C6  UNL     1      21.592   1.026  53.256  1.00  0.00     0.144 A 
HETATM   11  N2  UNL     1      20.960   0.105  54.023  1.00  0.00    -0.223 NA
HETATM   12  C7  UNL     1      21.614  -0.902  54.622  1.00  0.00     0.236 A 
HETATM   13  N3  UNL     1      22.947  -1.007  54.457  1.00  0.00    -0.241 NA
HETATM   14  C8  UNL     1      23.679  -0.154  53.721  1.00  0.00     0.077 A 
HETATM   15  C9  UNL     1      25.047  -0.259  53.521  1.00  0.00     0.072 A 
HETATM   16  C16 UNL     1      22.974   0.868  53.121  1.00  0.00     0.075 A 
HETATM   17  C10 UNL     1      25.739   0.666  52.711  1.00  0.00     0.107 A 
HETATM   18  C14 UNL     1      24.950   1.644  52.162  1.00  0.00     0.136 A 
HETATM   19  C15 UNL     1      23.583   1.803  52.320  1.00  0.00     0.121 A 
HETATM   20  O3  UNL     1      25.624   2.538  51.379  1.00  0.00    -0.344 OA
HETATM   21  O2  UNL     1      22.998   2.875  51.661  1.00  0.00    -0.345 OA
HETATM   22  C17 UNL     1      23.720   4.031  51.309  1.00  0.00     0.202 C 
HETATM   23  C18 UNL     1      25.105   3.702  50.798  1.00  0.00     0.202 C 
BRANCH  17  24
HETATM   24  O1  UNL     1      27.032   0.351  52.678  1.00  0.00    -0.344 OA
BRANCH  24  25
HETATM   25  C11 UNL     1      28.196   0.754  53.269  1.00  0.00     0.121 C 
HETATM   26  C12 UNL     1      28.260   2.257  53.512  1.00  0.00     0.040 C 
HETATM   27  C13 UNL     1      28.467   0.057  54.562  1.00  0.00     0.040 C 
ENDBRANCH  24  25
ENDBRANCH  17  24
ENDBRANCH   8  10
ENDBRANCH   7   8
ENDBRANCH   5   6
ENDBRANCH   4   5
ENDBRANCH   3   4
TORSDOF 7
ENDMDL
MODEL 3
REMARK VINA RESULT:      -6.4      5.109      7.916
REMARK  7 active torsions:
REMARK  status: ('A' for Active; 'I' for Inactive)
REMARK    1  A    between atoms: C2_3  and  S2_4 
REMARK    2  A    between atoms: S2_4  and  C3_5 
REMARK    3  A    between atoms: C3_5  and  C4_6 
REMARK    4  A    between atoms: C5_7  and  N1_8 
REMARK    5  A    between atoms: N1_8  and  C6_9 
REMARK    6  A    between atoms: C10_15  and  O1_16 
REMARK    7  A    between atoms: O1_16  and  C11_17 
ROOT
HETATM    1  C1  UNL     1      32.943  11.226  46.526  1.00  0.00     0.019 C 
HETATM    2  S1  UNL     1      31.555  10.087  47.163  1.00  0.00    -0.012 SA
HETATM    3  C2  UNL     1      30.249   9.009  47.733  1.00  0.00    -0.028 C 
ENDROOT
BRANCH   3   4
HETATM    4  S2  UNL     1      28.978   7.950  48.280  1.00  0.00    -0.075 SA
BRANCH   4   5
HETATM    5  C3  UNL     1      29.239   6.274  47.658  1.00  0.00     0.116 C 
BRANCH   5   6
HETATM    6  C4  UNL     1      28.428   5.323  48.436  1.00  0.00     0.001 C 
HETATM    7  C5  UNL     1      27.265   5.139  49.018  1.00  0.00     0.086 C 
BRANCH   7   8
HETATM    8  N1  UNL     1      26.361   4.354  49.761  1.00  0.00    -0.350 N 
HETATM    9  H6  UNL     1      26.737   3.830  50.577  1.00  0.00     0.166 HD
BRANCH   8  10
HETATM   10  C6  UNL     1      24.971   4.077  49.656  1.00  0.00     0.144 A 
HETATM   11  N2  UNL     1      24.176   4.781  48.814  1.00  0.00    -0.223 NA
HETATM   12  C7  UNL     1      22.861   4.542  48.700  1.00  0.00     0.236 A 
HETATM   13  N3  UNL     1      22.306   3.568  49.447  1.00  0.00    -0.241 NA
HETATM   14  C8  UNL     1      22.993   2.806  50.314  1.00  0.00     0.077 A 
HETATM   15  C9  UNL     1      22.444   1.784  51.074  1.00  0.00     0.072 A 
HETATM   16  C16 UNL     1      24.342   3.080  50.405  1.00  0.00     0.075 A 
HETATM   17  C10 UNL     1      23.242   1.013  51.945  1.00  0.00     0.107 A 
HETATM   18  C14 UNL     1      24.568   1.365  51.965  1.00  0.00     0.136 A 
HETATM   19  C15 UNL     1      25.178   2.370  51.233  1.00  0.00     0.121 A 
HETATM   20  O3  UNL     1      25.336   0.616  52.811  1.00  0.00    -0.344 OA
HETATM   21  O2  UNL     1      26.542   2.540  51.420  1.00  0.00    -0.345 OA
HETATM   22  C17 UNL     1      27.197   2.151  52.603  1.00  0.00     0.202 C 
HETATM   23  C18 UNL     1      26.684   0.828  53.127  1.00  0.00     0.202 C 
BRANCH  17  24
HETATM   24  O1  UNL     1      22.486   0.103  52.555  1.00  0.00    -0.344 OA
BRANCH  24  25
HETATM   25  C11 UNL     1      22.174  -0.277  53.830  1.00  0.00     0.121 C 
HETATM   26  C12 UNL     1      21.005   0.502  54.422  1.00  0.00     0.040 C 
HETATM   27  C13 UNL     1      21.874  -1.736  53.948  1.00  0.00     0.040 C 
ENDBRANCH  24  25
ENDBRANCH  17  24
ENDBRANCH   8  10
ENDBRANCH   7   8
ENDBRANCH   5   6
ENDBRANCH   4   5
ENDBRANCH   3   4
TORSDOF 7
ENDMDL
MODEL 4
REMARK VINA RESULT:      -6.4      2.208      3.591
REMARK  7 active torsions:
REMARK  status: ('A' for Active; 'I' for Inactive)
REMARK    1  A    between atoms: C2_3  and  S2_4 
REMARK    2  A    between atoms: S2_4  and  C3_5 
REMARK    3  A    between atoms: C3_5  and  C4_6 
REMARK    4  A    between atoms: C5_7  and  N1_8 
REMARK    5  A    between atoms: N1_8  and  C6_9 
REMARK    6  A    between atoms: C10_15  and  O1_16 
REMARK    7  A    between atoms: O1_16  and  C11_17 
ROOT
HETATM    1  C1  UNL     1      20.637   6.756  48.302  1.00  0.00     0.019 C 
HETATM    2  S1  UNL     1      19.349   5.603  49.104  1.00  0.00    -0.012 SA
HETATM    3  C2  UNL     1      18.142   4.505  49.831  1.00  0.00    -0.028 C 
ENDROOT
BRANCH   3   4
HETATM    4  S2  UNL     1      16.969   3.424  50.534  1.00  0.00    -0.075 SA
BRANCH   4   5
HETATM    5  C3  UNL     1      17.794   2.045  51.359  1.00  0.00     0.116 C 
BRANCH   5   6
HETATM    6  C4  UNL     1      19.089   2.491  51.898  1.00  0.00     0.001 C 
HETATM    7  C5  UNL     1      20.378   2.238  51.925  1.00  0.00     0.086 C 
BRANCH   7   8
HETATM    8  N1  UNL     1      21.690   2.528  52.352  1.00  0.00    -0.350 N 
HETATM    9  H6  UNL     1      21.849   2.640  53.374  1.00  0.00     0.166 HD
BRANCH   8  10
HETATM   10  C6  UNL     1      22.927   2.726  51.683  1.00  0.00     0.144 A 
HETATM   11  N2  UNL     1      23.068   3.685  50.736  1.00  0.00    -0.223 NA
HETATM   12  C7  UNL     1      24.225   3.889  50.087  1.00  0.00     0.236 A 
HETATM   13  N3  UNL     1      25.288   3.117  50.386  1.00  0.00    -0.241 NA
HETATM   14  C8  UNL     1      25.266   2.138  51.306  1.00  0.00     0.077 A 
HETATM   15  C9  UNL     1      26.356   1.349  51.643  1.00  0.00     0.072 A 
HETATM   16  C16 UNL     1      24.062   1.957  51.952  1.00  0.00     0.075 A 
HETATM   17  C10 UNL     1      26.257   0.356  52.640  1.00  0.00     0.107 A 
HETATM   18  C14 UNL     1      25.018   0.253  53.221  1.00  0.00     0.136 A 
HETATM   19  C15 UNL     1      23.893   1.009  52.932  1.00  0.00     0.121 A 
HETATM   20  O3  UNL     1      24.927  -0.710  54.185  1.00  0.00    -0.344 OA
HETATM   21  O2  UNL     1      22.745   0.722  53.656  1.00  0.00    -0.345 OA
HETATM   22  C17 UNL     1      22.513  -0.539  54.236  1.00  0.00     0.202 C 
HETATM   23  C18 UNL     1      23.765  -1.120  54.852  1.00  0.00     0.202 C 
BRANCH  17  24
HETATM   24  O1  UNL     1      27.430  -0.258  52.777  1.00  0.00    -0.344 OA
BRANCH  24  25
HETATM   25  C11 UNL     1      28.569  -0.128  53.519  1.00  0.00     0.121 C 
HETATM   26  C12 UNL     1      28.300   0.114  55.000  1.00  0.00     0.040 C 
HETATM   27  C13 UNL     1      29.485  -1.302  53.395  1.00  0.00     0.040 C 
ENDBRANCH  24  25
ENDBRANCH  17  24
ENDBRANCH   8  10
ENDBRANCH   7   8
ENDBRANCH   5   6
ENDBRANCH   4   5
ENDBRANCH   3   4
TORSDOF 7
ENDMDL
MODEL 5
REMARK VINA RESULT:      -6.2      1.694      2.183
REMARK  7 active torsions:
REMARK  status: ('A' for Active; 'I' for Inactive)
REMARK    1  A    between atoms: C2_3  and  S2_4 
REMARK    2  A    between atoms: S2_4  and  C3_5 
REMARK    3  A    between atoms: C3_5  and  C4_6 
REMARK    4  A    between atoms: C5_7  and  N1_8 
REMARK    5  A    between atoms: N1_8  and  C6_9 
REMARK    6  A    between atoms: C10_15  and  O1_16 
REMARK    7  A    between atoms: O1_16  and  C11_17 
ROOT
HETATM    1  C1  UNL     1      20.206   8.606  46.458  1.00  0.00     0.019 C 
HETATM    2  S1  UNL     1      19.836   6.742  46.594  1.00  0.00    -0.012 SA
HETATM    3  C2  UNL     1      19.459   4.999  46.715  1.00  0.00    -0.028 C 
ENDROOT
BRANCH   3   4
HETATM    4  S2  UNL     1      19.083   3.301  46.826  1.00  0.00    -0.075 SA
BRANCH   4   5
HETATM    5  C3  UNL     1      18.832   2.820  48.549  1.00  0.00     0.116 C 
BRANCH   5   6
HETATM    6  C4  UNL     1      20.131   2.745  49.238  1.00  0.00     0.001 C 
HETATM    7  C5  UNL     1      20.713   2.551  50.400  1.00  0.00     0.086 C 
BRANCH   7   8
HETATM    8  N1  UNL     1      21.862   2.447  51.209  1.00  0.00    -0.350 N 
HETATM    9  H6  UNL     1      22.509   3.261  51.233  1.00  0.00     0.166 HD
BRANCH   8  10
HETATM   10  C6  UNL     1      22.393   1.432  52.048  1.00  0.00     0.144 A 
HETATM   11  N2  UNL     1      21.582   0.604  52.750  1.00  0.00    -0.223 NA
HETATM   12  C7  UNL     1      22.060  -0.360  53.553  1.00  0.00     0.236 A 
HETATM   13  N3  UNL     1      23.393  -0.515  53.667  1.00  0.00    -0.241 NA
HETATM   14  C8  UNL     1      24.293   0.244  53.020  1.00  0.00     0.077 A 
HETATM   15  C9  UNL     1      25.667   0.085  53.107  1.00  0.00     0.072 A 
HETATM   16  C16 UNL     1      23.766   1.224  52.205  1.00  0.00     0.075 A 
HETATM   17  C10 UNL     1      26.546   0.911  52.375  1.00  0.00     0.107 A 
HETATM   18  C14 UNL     1      25.925   1.854  51.596  1.00  0.00     0.136 A 
HETATM   19  C15 UNL     1      24.562   2.064  51.464  1.00  0.00     0.121 A 
HETATM   20  O3  UNL     1      26.779   2.652  50.890  1.00  0.00    -0.344 OA
HETATM   21  O2  UNL     1      24.167   3.085  50.611  1.00  0.00    -0.345 OA
HETATM   22  C17 UNL     1      24.994   4.182  50.311  1.00  0.00     0.202 C 
HETATM   23  C18 UNL     1      26.437   3.770  50.118  1.00  0.00     0.202 C 
BRANCH  17  24
HETATM   24  O1  UNL     1      27.805   0.559  52.628  1.00  0.00    -0.344 OA
BRANCH  24  25
HETATM   25  C11 UNL     1      28.803   0.896  53.497  1.00  0.00     0.121 C 
HETATM   26  C12 UNL     1      28.891   2.394  53.764  1.00  0.00     0.040 C 
HETATM   27  C13 UNL     1      28.697   0.191  54.810  1.00  0.00     0.040 C 
ENDBRANCH  24  25
ENDBRANCH  17  24
ENDBRANCH   8  10
ENDBRANCH   7   8
ENDBRANCH   5   6
ENDBRANCH   4   5
ENDBRANCH   3   4
TORSDOF 7
ENDMDL
MODEL 6
REMARK VINA RESULT:      -6.2      2.844      5.017
REMARK  7 active torsions:
REMARK  status: ('A' for Active; 'I' for Inactive)
REMARK    1  A    between atoms: C2_3  and  S2_4 
REMARK    2  A    between atoms: S2_4  and  C3_5 
REMARK    3  A    between atoms: C3_5  and  C4_6 
REMARK    4  A    between atoms: C5_7  and  N1_8 
REMARK    5  A    between atoms: N1_8  and  C6_9 
REMARK    6  A    between atoms: C10_15  and  O1_16 
REMARK    7  A    between atoms: O1_16  and  C11_17 
ROOT
HETATM    1  C1  UNL     1      19.496   3.792  47.497  1.00  0.00     0.019 C 
HETATM    2  S1  UNL     1      20.608   5.150  48.240  1.00  0.00    -0.012 SA
HETATM    3  C2  UNL     1      21.652   6.408  48.962  1.00  0.00    -0.028 C 
ENDROOT
BRANCH   3   4
HETATM    4  S2  UNL     1      22.674   7.626  49.674  1.00  0.00    -0.075 SA
BRANCH   4   5
HETATM    5  C3  UNL     1      24.408   7.127  49.586  1.00  0.00     0.116 C 
BRANCH   5   6
HETATM    6  C4  UNL     1      24.527   5.689  49.881  1.00  0.00     0.001 C 
HETATM    7  C5  UNL     1      25.334   4.654  49.836  1.00  0.00     0.086 C 
BRANCH   7   8
HETATM    8  N1  UNL     1      25.614   3.290  50.056  1.00  0.00    -0.350 N 
HETATM    9  H6  UNL     1      25.522   2.644  49.246  1.00  0.00     0.166 HD
BRANCH   8  10
HETATM   10  C6  UNL     1      26.010   2.531  51.189  1.00  0.00     0.144 A 
HETATM   11  N2  UNL     1      27.261   2.630  51.700  1.00  0.00    -0.223 NA
HETATM   12  C7  UNL     1      27.660   1.920  52.767  1.00  0.00     0.236 A 
HETATM   13  N3  UNL     1      26.788   1.079  53.357  1.00  0.00    -0.241 NA
HETATM   14  C8  UNL     1      25.524   0.899  52.939  1.00  0.00     0.077 A 
HETATM   15  C9  UNL     1      24.605   0.056  53.546  1.00  0.00     0.072 A 
HETATM   16  C16 UNL     1      25.149   1.644  51.841  1.00  0.00     0.075 A 
HETATM   17  C10 UNL     1      23.286  -0.059  53.060  1.00  0.00     0.107 A 
HETATM   18  C14 UNL     1      23.014   0.721  51.964  1.00  0.00     0.136 A 
HETATM   19  C15 UNL     1      23.882   1.583  51.314  1.00  0.00     0.121 A 
HETATM   20  O3  UNL     1      21.736   0.607  51.496  1.00  0.00    -0.344 OA
HETATM   21  O2  UNL     1      23.377   2.271  50.220  1.00  0.00    -0.345 OA
HETATM   22  C17 UNL     1      22.293   1.792  49.460  1.00  0.00     0.202 C 
HETATM   23  C18 UNL     1      21.216   1.181  50.329  1.00  0.00     0.202 C 
BRANCH  17  24
HETATM   24  O1  UNL     1      22.607  -0.924  53.809  1.00  0.00    -0.344 OA
BRANCH  24  25
HETATM   25  C11 UNL     1      21.525  -0.923  54.643  1.00  0.00     0.121 C 
HETATM   26  C12 UNL     1      20.865   0.445  54.773  1.00  0.00     0.040 C 
HETATM   27  C13 UNL     1      20.478  -1.912  54.243  1.00  0.00     0.040 C 
ENDBRANCH  24  25
ENDBRANCH  17  24
ENDBRANCH   8  10
ENDBRANCH   7   8
ENDBRANCH   5   6
ENDBRANCH   4   5
ENDBRANCH   3   4
TORSDOF 7
ENDMDL
MODEL 7
REMARK VINA RESULT:      -6.0      2.609      4.069
REMARK  7 active torsions:
REMARK  status: ('A' for Active; 'I' for Inactive)
REMARK    1  A    between atoms: C2_3  and  S2_4 
REMARK    2  A    between atoms: S2_4  and  C3_5 
REMARK    3  A    between atoms: C3_5  and  C4_6 
REMARK    4  A    between atoms: C5_7  and  N1_8 
REMARK    5  A    between atoms: N1_8  and  C6_9 
REMARK    6  A    between atoms: C10_15  and  O1_16 
REMARK    7  A    between atoms: O1_16  and  C11_17 
ROOT
HETATM    1  C1  UNL     1      15.797   8.697  45.026  1.00  0.00     0.019 C 
HETATM    2  S1  UNL     1      17.024   7.720  46.109  1.00  0.00    -0.012 SA
HETATM    3  C2  UNL     1      18.163   6.778  47.113  1.00  0.00    -0.028 C 
ENDROOT
BRANCH   3   4
HETATM    4  S2  UNL     1      19.273   5.850  48.085  1.00  0.00    -0.075 SA
BRANCH   4   5
HETATM    5  C3  UNL     1      20.364   4.866  47.033  1.00  0.00     0.116 C 
BRANCH   5   6
HETATM    6  C4  UNL     1      21.439   4.276  47.848  1.00  0.00     0.001 C 
HETATM    7  C5  UNL     1      21.860   4.076  49.076  1.00  0.00     0.086 C 
BRANCH   7   8
HETATM    8  N1  UNL     1      22.798   3.570  49.998  1.00  0.00    -0.350 N 
HETATM    9  H6  UNL     1      22.431   3.103  50.851  1.00  0.00     0.166 HD
BRANCH   8  10
HETATM   10  C6  UNL     1      24.218   3.547  50.055  1.00  0.00     0.144 A 
HETATM   11  N2  UNL     1      24.964   4.422  49.338  1.00  0.00    -0.223 NA
HETATM   12  C7  UNL     1      26.305   4.419  49.371  1.00  0.00     0.236 A 
HETATM   13  N3  UNL     1      26.938   3.516  50.145  1.00  0.00    -0.241 NA
HETATM   14  C8  UNL     1      26.304   2.601  50.898  1.00  0.00     0.077 A 
HETATM   15  C9  UNL     1      26.937   1.679  51.717  1.00  0.00     0.072 A 
HETATM   16  C16 UNL     1      24.927   2.634  50.838  1.00  0.00     0.075 A 
HETATM   17  C10 UNL     1      26.197   0.766  52.497  1.00  0.00     0.107 A 
HETATM   18  C14 UNL     1      24.836   0.878  52.366  1.00  0.00     0.136 A 
HETATM   19  C15 UNL     1      24.143   1.775  51.570  1.00  0.00     0.121 A 
HETATM   20  O3  UNL     1      24.123  -0.008  53.123  1.00  0.00    -0.344 OA
HETATM   21  O2  UNL     1      22.758   1.700  51.603  1.00  0.00    -0.345 OA
HETATM   22  C17 UNL     1      22.073   0.520  51.948  1.00  0.00     0.202 C 
HETATM   23  C18 UNL     1      22.736  -0.207  53.097  1.00  0.00     0.202 C 
BRANCH  17  24
HETATM   24  O1  UNL     1      27.029  -0.007  53.191  1.00  0.00    -0.344 OA
BRANCH  24  25
HETATM   25  C11 UNL     1      28.363  -0.067  53.481  1.00  0.00     0.121 C 
HETATM   26  C12 UNL     1      28.685   0.311  54.922  1.00  0.00     0.040 C 
HETATM   27  C13 UNL     1      28.961  -1.408  53.203  1.00  0.00     0.040 C 
ENDBRANCH  24  25
ENDBRANCH  17  24
ENDBRANCH   8  10
ENDBRANCH   7   8
ENDBRANCH   5   6
ENDBRANCH   4   5
ENDBRANCH   3   4
TORSDOF 7
ENDMDL
MODEL 8
REMARK VINA RESULT:      -5.9      3.221      4.621
REMARK  7 active torsions:
REMARK  status: ('A' for Active; 'I' for Inactive)
REMARK    1  A    between atoms: C2_3  and  S2_4 
REMARK    2  A    between atoms: S2_4  and  C3_5 
REMARK    3  A    between atoms: C3_5  and  C4_6 
REMARK    4  A    between atoms: C5_7  and  N1_8 
REMARK    5  A    between atoms: N1_8  and  C6_9 
REMARK    6  A    between atoms: C10_15  and  O1_16 
REMARK    7  A    between atoms: O1_16  and  C11_17 
ROOT
HETATM    1  C1  UNL     1      22.240  11.840  46.967  1.00  0.00     0.019 C 
HETATM    2  S1  UNL     1      21.700  10.013  46.979  1.00  0.00    -0.012 SA
HETATM    3  C2  UNL     1      21.209   8.295  46.965  1.00  0.00    -0.028 C 
ENDROOT
BRANCH   3   4
HETATM    4  S2  UNL     1      20.741   6.616  46.945  1.00  0.00    -0.075 SA
BRANCH   4   5
HETATM    5  C3  UNL     1      20.307   6.061  48.609  1.00  0.00     0.116 C 
BRANCH   5   6
HETATM    6  C4  UNL     1      21.424   5.292  49.183  1.00  0.00     0.001 C 
HETATM    7  C5  UNL     1      21.820   4.605  50.231  1.00  0.00     0.086 C 
BRANCH   7   8
HETATM    8  N1  UNL     1      22.784   3.845  50.923  1.00  0.00    -0.350 N 
HETATM    9  H6  UNL     1      22.468   3.312  51.758  1.00  0.00     0.166 HD
BRANCH   8  10
HETATM   10  C6  UNL     1      24.176   3.620  50.752  1.00  0.00     0.144 A 
HETATM   11  N2  UNL     1      24.928   4.432  49.970  1.00  0.00    -0.223 NA
HETATM   12  C7  UNL     1      26.244   4.238  49.789  1.00  0.00     0.236 A 
HETATM   13  N3  UNL     1      26.843   3.202  50.407  1.00  0.00    -0.241 NA
HETATM   14  C8  UNL     1      26.201   2.334  51.205  1.00  0.00     0.077 A 
HETATM   15  C9  UNL     1      26.805   1.276  51.868  1.00  0.00     0.072 A 
HETATM   16  C16 UNL     1      24.851   2.563  51.367  1.00  0.00     0.075 A 
HETATM   17  C10 UNL     1      26.062   0.421  52.709  1.00  0.00     0.107 A 
HETATM   18  C14 UNL     1      24.729   0.732  52.802  1.00  0.00     0.136 A 
HETATM   19  C15 UNL     1      24.066   1.772  52.171  1.00  0.00     0.121 A 
HETATM   20  O3  UNL     1      24.014  -0.098  53.617  1.00  0.00    -0.344 OA
HETATM   21  O2  UNL     1      22.706   1.889  52.420  1.00  0.00    -0.345 OA
HETATM   22  C17 UNL     1      21.913   0.795  52.811  1.00  0.00     0.202 C 
HETATM   23  C18 UNL     1      22.625  -0.098  53.803  1.00  0.00     0.202 C 
BRANCH  17  24
HETATM   24  O1  UNL     1      26.865  -0.508  53.224  1.00  0.00    -0.344 OA
BRANCH  24  25
HETATM   25  C11 UNL     1      28.054  -1.109  52.923  1.00  0.00     0.121 C 
HETATM   26  C12 UNL     1      29.177  -0.739  53.884  1.00  0.00     0.040 C 
HETATM   27  C13 UNL     1      27.958  -2.599  52.865  1.00  0.00     0.040 C 
ENDBRANCH  24  25
ENDBRANCH  17  24
ENDBRANCH   8  10
ENDBRANCH   7   8
ENDBRANCH   5   6
ENDBRANCH   4   5
ENDBRANCH   3   4
TORSDOF 7
ENDMDL
MODEL 9
REMARK VINA RESULT:      -5.9      4.107      6.664
REMARK  7 active torsions:
REMARK  status: ('A' for Active; 'I' for Inactive)
REMARK    1  A    between atoms: C2_3  and  S2_4 
REMARK    2  A    between atoms: S2_4  and  C3_5 
REMARK    3  A    between atoms: C3_5  and  C4_6 
REMARK    4  A    between atoms: C5_7  and  N1_8 
REMARK    5  A    between atoms: N1_8  and  C6_9 
REMARK    6  A    between atoms: C10_15  and  O1_16 
REMARK    7  A    between atoms: O1_16  and  C11_17 
ROOT
HETATM    1  C1  UNL     1      31.064   5.164  48.203  1.00  0.00     0.019 C 
HETATM    2  S1  UNL     1      29.510   6.266  48.193  1.00  0.00    -0.012 SA
HETATM    3  C2  UNL     1      28.070   7.325  48.178  1.00  0.00    -0.028 C 
ENDROOT
BRANCH   3   4
HETATM    4  S2  UNL     1      26.671   8.364  48.157  1.00  0.00    -0.075 SA
BRANCH   4   5
HETATM    5  C3  UNL     1      25.348   7.666  49.171  1.00  0.00     0.116 C 
BRANCH   5   6
HETATM    6  C4  UNL     1      25.686   6.283  49.544  1.00  0.00     0.001 C 
HETATM    7  C5  UNL     1      25.423   5.018  49.304  1.00  0.00     0.086 C 
BRANCH   7   8
HETATM    8  N1  UNL     1      25.625   3.644  49.539  1.00  0.00    -0.350 N 
HETATM    9  H6  UNL     1      25.568   3.002  48.723  1.00  0.00     0.166 HD
BRANCH   8  10
HETATM   10  C6  UNL     1      25.895   2.867  50.698  1.00  0.00     0.144 A 
HETATM   11  N2  UNL     1      27.137   2.821  51.239  1.00  0.00    -0.223 NA
HETATM   12  C7  UNL     1      27.418   2.091  52.330  1.00  0.00     0.236 A 
HETATM   13  N3  UNL     1      26.435   1.380  52.913  1.00  0.00    -0.241 NA
HETATM   14  C8  UNL     1      25.168   1.350  52.467  1.00  0.00     0.077 A 
HETATM   15  C9  UNL     1      24.137   0.642  53.067  1.00  0.00     0.072 A 
HETATM   16  C16 UNL     1      24.915   2.110  51.344  1.00  0.00     0.075 A 
HETATM   17  C10 UNL     1      22.826   0.682  52.548  1.00  0.00     0.107 A 
HETATM   18  C14 UNL     1      22.679   1.464  51.431  1.00  0.00     0.136 A 
HETATM   19  C15 UNL     1      23.663   2.195  50.786  1.00  0.00     0.121 A 
HETATM   20  O3  UNL     1      21.408   1.499  50.932  1.00  0.00    -0.344 OA
HETATM   21  O2  UNL     1      23.273   2.916  49.666  1.00  0.00    -0.345 OA
HETATM   22  C17 UNL     1      22.157   2.559  48.888  1.00  0.00     0.202 C 
HETATM   23  C18 UNL     1      20.992   2.107  49.740  1.00  0.00     0.202 C 
BRANCH  17  24
HETATM   24  O1  UNL     1      22.026  -0.074  53.297  1.00  0.00    -0.344 OA
BRANCH  24  25
HETATM   25  C11 UNL     1      22.078  -1.266  53.962  1.00  0.00     0.121 C 
HETATM   26  C12 UNL     1      22.822  -1.185  55.290  1.00  0.00     0.040 C 
HETATM   27  C13 UNL     1      20.727  -1.853  54.216  1.00  0.00     0.040 C 
ENDBRANCH  24  25
ENDBRANCH  17  24
ENDBRANCH   8  10
ENDBRANCH   7   8
ENDBRANCH   5   6
ENDBRANCH   4   5
ENDBRANCH   3   4
TORSDOF 7
ENDMDL
