MODEL 1
REMARK VINA RESULT:      -7.2      0.000      0.000
REMARK  6 active torsions:
REMARK  status: ('A' for Active; 'I' for Inactive)
REMARK    1  A    between atoms: C3_3  and  O1_4 
REMARK    2  A    between atoms: O1_4  and  C4_5 
REMARK    3  A    between atoms: C5_6  and  O2_7 
REMARK    4  A    between atoms: C10_12  and  C11_13 
REMARK    5  A    between atoms: C11_13  and  C12_14 
REMARK    6  A    between atoms: C13_15  and  C14_16 
ROOT
HETATM    1  C1  UNL     1      20.203   3.913  51.701  1.00  0.00     0.014 C 
HETATM    2  C2  UNL     1      20.557   2.889  52.207  1.00  0.00    -0.091 C 
HETATM    3  C3  UNL     1      20.963   1.653  52.831  1.00  0.00     0.268 C 
ENDROOT
BRANCH   3   4
HETATM    4  O1  UNL     1      22.116   1.069  52.304  1.00  0.00    -0.336 OA
BRANCH   4   5
HETATM    5  C4  UNL     1      23.349   0.939  52.860  1.00  0.00     0.112 A 
HETATM    6  C5  UNL     1      23.507  -0.326  53.432  1.00  0.00     0.104 A 
HETATM    7  C7  UNL     1      24.694  -0.711  54.070  1.00  0.00     0.073 A 
HETATM    8  C8  UNL     1      25.770   0.180  54.149  1.00  0.00     0.092 A 
HETATM    9  C9  UNL     1      25.598   1.424  53.578  1.00  0.00     0.122 A 
HETATM   10  N3  UNL     1      26.718  -0.427  54.779  1.00  0.00    -0.240 NA
HETATM   11  C10 UNL     1      24.423   1.781  52.957  1.00  0.00     0.015 A 
HETATM   12  N1  UNL     1      26.335   2.478  53.453  1.00  0.00    -0.129 NA
HETATM   13  O3  UNL     1      27.624   2.698  53.885  1.00  0.00    -0.234 OA
HETATM   14  C16 UNL     1      28.845   1.959  53.811  1.00  0.00     0.353 C 
HETATM   15  N2  UNL     1      28.906   0.902  54.806  1.00  0.00    -0.255 NA
HETATM   16  C17 UNL     1      28.048  -0.013  55.155  1.00  0.00     0.230 C 
BRANCH   6  17
HETATM   17  O2  UNL     1      22.529  -1.312  53.430  1.00  0.00    -0.353 OA
HETATM   18  C6  UNL     1      21.851  -1.654  54.620  1.00  0.00     0.210 C 
ENDBRANCH   6  17
BRANCH  11  19
HETATM   19  C11 UNL     1      24.308   3.096  52.334  1.00  0.00     0.071 C 
BRANCH  19  20
HETATM   20  C12 UNL     1      24.010   3.020  50.878  1.00  0.00    -0.022 C 
HETATM   21  C13 UNL     1      23.392   3.708  49.932  1.00  0.00    -0.004 C 
BRANCH  21  22
HETATM   22  C14 UNL     1      23.305   3.297  48.547  1.00  0.00    -0.011 C 
HETATM   23  C15 UNL     1      22.385   2.357  48.508  1.00  0.00     0.011 C 
ENDBRANCH  21  22
ENDBRANCH  19  20
ENDBRANCH  11  19
ENDBRANCH   4   5
ENDBRANCH   3   4
TORSDOF 6
ENDMDL
MODEL 2
REMARK VINA RESULT:      -7.0      2.247      4.822
REMARK  6 active torsions:
REMARK  status: ('A' for Active; 'I' for Inactive)
REMARK    1  A    between atoms: C3_3  and  O1_4 
REMARK    2  A    between atoms: O1_4  and  C4_5 
REMARK    3  A    between atoms: C5_6  and  O2_7 
REMARK    4  A    between atoms: C10_12  and  C11_13 
REMARK    5  A    between atoms: C11_13  and  C12_14 
REMARK    6  A    between atoms: C13_15  and  C14_16 
ROOT
HETATM    1  C1  UNL     1      26.944   5.294  48.658  1.00  0.00     0.014 C 
HETATM    2  C2  UNL     1      26.818   4.236  49.199  1.00  0.00    -0.091 C 
HETATM    3  C3  UNL     1      26.668   2.948  49.832  1.00  0.00     0.268 C 
ENDROOT
BRANCH   3   4
HETATM    4  O1  UNL     1      26.552   2.975  51.222  1.00  0.00    -0.336 OA
BRANCH   4   5
HETATM    5  C4  UNL     1      25.991   2.064  52.060  1.00  0.00     0.112 A 
HETATM    6  C5  UNL     1      26.941   1.550  52.947  1.00  0.00     0.104 A 
HETATM    7  C7  UNL     1      26.613   0.593  53.915  1.00  0.00     0.073 A 
HETATM    8  C8  UNL     1      25.300   0.120  54.020  1.00  0.00     0.092 A 
HETATM    9  C9  UNL     1      24.374   0.637  53.138  1.00  0.00     0.122 A 
HETATM   10  N3  UNL     1      25.284  -0.741  54.981  1.00  0.00    -0.240 NA
HETATM   11  C10 UNL     1      24.719   1.578  52.194  1.00  0.00     0.015 A 
HETATM   12  N1  UNL     1      23.112   0.456  52.933  1.00  0.00    -0.129 NA
HETATM   13  O3  UNL     1      22.232  -0.377  53.587  1.00  0.00    -0.234 OA
HETATM   14  C16 UNL     1      21.945  -0.651  54.960  1.00  0.00     0.353 C 
HETATM   15  N2  UNL     1      22.922  -1.547  55.555  1.00  0.00    -0.255 NA
HETATM   16  C17 UNL     1      24.225  -1.546  55.538  1.00  0.00     0.230 C 
BRANCH   6  17
HETATM   17  O2  UNL     1      28.278   1.925  52.962  1.00  0.00    -0.353 OA
HETATM   18  C6  UNL     1      29.075   1.698  54.105  1.00  0.00     0.210 C 
ENDBRANCH   6  17
BRANCH  11  19
HETATM   19  C11 UNL     1      23.692   2.122  51.312  1.00  0.00     0.071 C 
BRANCH  19  20
HETATM   20  C12 UNL     1      23.506   3.590  51.480  1.00  0.00    -0.022 C 
HETATM   21  C13 UNL     1      23.478   4.698  50.759  1.00  0.00    -0.004 C 
BRANCH  21  22
HETATM   22  C14 UNL     1      23.257   6.021  51.301  1.00  0.00    -0.011 C 
HETATM   23  C15 UNL     1      24.350   6.705  51.040  1.00  0.00     0.011 C 
ENDBRANCH  21  22
ENDBRANCH  19  20
ENDBRANCH  11  19
ENDBRANCH   4   5
ENDBRANCH   3   4
TORSDOF 6
ENDMDL
MODEL 3
REMARK VINA RESULT:      -6.9      2.234      4.659
REMARK  6 active torsions:
REMARK  status: ('A' for Active; 'I' for Inactive)
REMARK    1  A    between atoms: C3_3  and  O1_4 
REMARK    2  A    between atoms: O1_4  and  C4_5 
REMARK    3  A    between atoms: C5_6  and  O2_7 
REMARK    4  A    between atoms: C10_12  and  C11_13 
REMARK    5  A    between atoms: C11_13  and  C12_14 
REMARK    6  A    between atoms: C13_15  and  C14_16 
ROOT
HETATM    1  C1  UNL     1      26.416   5.234  48.911  1.00  0.00     0.014 C 
HETATM    2  C2  UNL     1      26.520   4.165  49.435  1.00  0.00    -0.091 C 
HETATM    3  C3  UNL     1      26.654   2.865  50.047  1.00  0.00     0.268 C 
ENDROOT
BRANCH   3   4
HETATM    4  O1  UNL     1      26.383   2.818  51.415  1.00  0.00    -0.336 OA
BRANCH   4   5
HETATM    5  C4  UNL     1      25.564   1.981  52.105  1.00  0.00     0.112 A 
HETATM    6  C5  UNL     1      26.304   1.014  52.792  1.00  0.00     0.104 A 
HETATM    7  C7  UNL     1      25.692   0.032  53.581  1.00  0.00     0.073 A 
HETATM    8  C8  UNL     1      24.298  -0.005  53.702  1.00  0.00     0.092 A 
HETATM    9  C9  UNL     1      23.583   0.956  53.018  1.00  0.00     0.122 A 
HETATM   10  N3  UNL     1      24.012  -0.998  54.476  1.00  0.00    -0.240 NA
HETATM   11  C10 UNL     1      24.205   1.913  52.248  1.00  0.00     0.015 A 
HETATM   12  N1  UNL     1      22.328   1.237  52.889  1.00  0.00    -0.129 NA
HETATM   13  O3  UNL     1      21.232   0.612  53.441  1.00  0.00    -0.234 OA
HETATM   14  C16 UNL     1      20.892   0.162  54.754  1.00  0.00     0.353 C 
HETATM   15  N2  UNL     1      21.526  -1.103  55.080  1.00  0.00    -0.255 NA
HETATM   16  C17 UNL     1      22.754  -1.518  54.954  1.00  0.00     0.230 C 
BRANCH   6  17
HETATM   17  O2  UNL     1      27.689   0.928  52.767  1.00  0.00    -0.353 OA
HETATM   18  C6  UNL     1      28.401   0.467  53.896  1.00  0.00     0.210 C 
ENDBRANCH   6  17
BRANCH  11  19
HETATM   19  C11 UNL     1      23.404   2.930  51.578  1.00  0.00     0.071 C 
BRANCH  19  20
HETATM   20  C12 UNL     1      22.952   2.509  50.223  1.00  0.00    -0.022 C 
HETATM   21  C13 UNL     1      23.175   2.786  48.949  1.00  0.00    -0.004 C 
BRANCH  21  22
HETATM   22  C14 UNL     1      22.510   2.132  47.842  1.00  0.00    -0.011 C 
HETATM   23  C15 UNL     1      21.596   1.354  48.381  1.00  0.00     0.011 C 
ENDBRANCH  21  22
ENDBRANCH  19  20
ENDBRANCH  11  19
ENDBRANCH   4   5
ENDBRANCH   3   4
TORSDOF 6
ENDMDL
MODEL 4
REMARK VINA RESULT:      -6.8      2.581      5.820
REMARK  6 active torsions:
REMARK  status: ('A' for Active; 'I' for Inactive)
REMARK    1  A    between atoms: C3_3  and  O1_4 
REMARK    2  A    between atoms: O1_4  and  C4_5 
REMARK    3  A    between atoms: C5_6  and  O2_7 
REMARK    4  A    between atoms: C10_12  and  C11_13 
REMARK    5  A    between atoms: C11_13  and  C12_14 
REMARK    6  A    between atoms: C13_15  and  C14_16 
ROOT
HETATM    1  C1  UNL     1      28.708  -2.736  53.076  1.00  0.00     0.014 C 
HETATM    2  C2  UNL     1      27.660  -2.272  52.735  1.00  0.00    -0.091 C 
HETATM    3  C3  UNL     1      26.394  -1.729  52.306  1.00  0.00     0.268 C 
ENDROOT
BRANCH   3   4
HETATM    4  O1  UNL     1      25.860  -0.738  53.130  1.00  0.00    -0.336 OA
BRANCH   4   5
HETATM    5  C4  UNL     1      25.056   0.310  52.811  1.00  0.00     0.112 A 
HETATM    6  C5  UNL     1      23.764   0.118  53.309  1.00  0.00     0.104 A 
HETATM    7  C7  UNL     1      22.745   1.059  53.115  1.00  0.00     0.073 A 
HETATM    8  C8  UNL     1      23.001   2.237  52.405  1.00  0.00     0.092 A 
HETATM    9  C9  UNL     1      24.281   2.412  51.921  1.00  0.00     0.122 A 
HETATM   10  N3  UNL     1      21.900   2.909  52.379  1.00  0.00    -0.240 NA
HETATM   11  C10 UNL     1      25.268   1.473  52.123  1.00  0.00     0.015 A 
HETATM   12  N1  UNL     1      24.880   3.335  51.244  1.00  0.00    -0.129 NA
HETATM   13  O3  UNL     1      24.383   4.525  50.760  1.00  0.00    -0.234 OA
HETATM   14  C16 UNL     1      23.599   5.583  51.316  1.00  0.00     0.353 C 
HETATM   15  N2  UNL     1      22.187   5.247  51.372  1.00  0.00    -0.255 NA
HETATM   16  C17 UNL     1      21.562   4.185  51.796  1.00  0.00     0.230 C 
BRANCH   6  17
HETATM   17  O2  UNL     1      23.364  -0.998  54.032  1.00  0.00    -0.353 OA
HETATM   18  C6  UNL     1      22.194  -0.963  54.821  1.00  0.00     0.210 C 
ENDBRANCH   6  17
BRANCH  11  19
HETATM   19  C11 UNL     1      26.615   1.727  51.624  1.00  0.00     0.071 C 
BRANCH  19  20
HETATM   20  C12 UNL     1      27.655   1.604  52.683  1.00  0.00    -0.022 C 
HETATM   21  C13 UNL     1      28.359   2.363  53.506  1.00  0.00    -0.004 C 
BRANCH  21  22
HETATM   22  C14 UNL     1      29.332   1.860  54.451  1.00  0.00    -0.011 C 
HETATM   23  C15 UNL     1      28.956   0.632  54.735  1.00  0.00     0.011 C 
ENDBRANCH  21  22
ENDBRANCH  19  20
ENDBRANCH  11  19
ENDBRANCH   4   5
ENDBRANCH   3   4
TORSDOF 6
ENDMDL
MODEL 5
REMARK VINA RESULT:      -6.5      1.958      2.990
REMARK  6 active torsions:
REMARK  status: ('A' for Active; 'I' for Inactive)
REMARK    1  A    between atoms: C3_3  and  O1_4 
REMARK    2  A    between atoms: O1_4  and  C4_5 
REMARK    3  A    between atoms: C5_6  and  O2_7 
REMARK    4  A    between atoms: C10_12  and  C11_13 
REMARK    5  A    between atoms: C11_13  and  C12_14 
REMARK    6  A    between atoms: C13_15  and  C14_16 
ROOT
HETATM    1  C1  UNL     1      21.940   4.098  47.074  1.00  0.00     0.014 C 
HETATM    2  C2  UNL     1      22.445   3.354  47.861  1.00  0.00    -0.091 C 
HETATM    3  C3  UNL     1      23.055   2.437  48.794  1.00  0.00     0.268 C 
ENDROOT
BRANCH   3   4
HETATM    4  O1  UNL     1      23.463   3.000  50.003  1.00  0.00    -0.336 OA
BRANCH   4   5
HETATM    5  C4  UNL     1      24.274   2.486  50.965  1.00  0.00     0.112 A 
HETATM    6  C5  UNL     1      23.536   1.759  51.904  1.00  0.00     0.104 A 
HETATM    7  C7  UNL     1      24.141   1.126  52.997  1.00  0.00     0.073 A 
HETATM    8  C8  UNL     1      25.526   1.208  53.178  1.00  0.00     0.092 A 
HETATM    9  C9  UNL     1      26.240   1.928  52.243  1.00  0.00     0.122 A 
HETATM   10  N3  UNL     1      25.807   0.544  54.248  1.00  0.00    -0.240 NA
HETATM   11  C10 UNL     1      25.624   2.542  51.176  1.00  0.00     0.015 A 
HETATM   12  N1  UNL     1      27.488   2.218  52.076  1.00  0.00    -0.129 NA
HETATM   13  O3  UNL     1      28.576   1.867  52.844  1.00  0.00    -0.234 OA
HETATM   14  C16 UNL     1      29.042   0.645  53.421  1.00  0.00     0.353 C 
HETATM   15  N2  UNL     1      28.327   0.309  54.640  1.00  0.00    -0.255 NA
HETATM   16  C17 UNL     1      27.056   0.283  54.922  1.00  0.00     0.230 C 
BRANCH   6  17
HETATM   17  O2  UNL     1      22.159   1.591  51.853  1.00  0.00    -0.353 OA
HETATM   18  C6  UNL     1      21.595   0.300  51.761  1.00  0.00     0.210 C 
ENDBRANCH   6  17
BRANCH  11  19
HETATM   19  C11 UNL     1      26.431   3.258  50.193  1.00  0.00     0.071 C 
BRANCH  19  20
HETATM   20  C12 UNL     1      25.926   4.632  49.922  1.00  0.00    -0.022 C 
HETATM   21  C13 UNL     1      25.788   5.482  48.918  1.00  0.00    -0.004 C 
BRANCH  21  22
HETATM   22  C14 UNL     1      25.218   6.806  49.041  1.00  0.00    -0.011 C 
HETATM   23  C15 UNL     1      23.919   6.653  48.901  1.00  0.00     0.011 C 
ENDBRANCH  21  22
ENDBRANCH  19  20
ENDBRANCH  11  19
ENDBRANCH   4   5
ENDBRANCH   3   4
TORSDOF 6
ENDMDL
MODEL 6
REMARK VINA RESULT:      -6.4      3.761      6.284
REMARK  6 active torsions:
REMARK  status: ('A' for Active; 'I' for Inactive)
REMARK    1  A    between atoms: C3_3  and  O1_4 
REMARK    2  A    between atoms: O1_4  and  C4_5 
REMARK    3  A    between atoms: C5_6  and  O2_7 
REMARK    4  A    between atoms: C10_12  and  C11_13 
REMARK    5  A    between atoms: C11_13  and  C12_14 
REMARK    6  A    between atoms: C13_15  and  C14_16 
ROOT
HETATM    1  C1  UNL     1      23.768  -0.045  53.332  1.00  0.00     0.014 C 
HETATM    2  C2  UNL     1      23.781   1.133  53.125  1.00  0.00    -0.091 C 
HETATM    3  C3  UNL     1      23.801   2.558  52.899  1.00  0.00     0.268 C 
ENDROOT
BRANCH   3   4
HETATM    4  O1  UNL     1      23.781   2.950  51.560  1.00  0.00    -0.336 OA
BRANCH   4   5
HETATM    5  C4  UNL     1      24.578   3.836  50.908  1.00  0.00     0.112 A 
HETATM    6  C5  UNL     1      24.079   5.137  51.025  1.00  0.00     0.104 A 
HETATM    7  C7  UNL     1      24.723   6.235  50.440  1.00  0.00     0.073 A 
HETATM    8  C8  UNL     1      25.904   6.053  49.712  1.00  0.00     0.092 A 
HETATM    9  C9  UNL     1      26.384   4.764  49.607  1.00  0.00     0.122 A 
HETATM   10  N3  UNL     1      26.272   7.216  49.293  1.00  0.00    -0.240 NA
HETATM   11  C10 UNL     1      25.734   3.699  50.190  1.00  0.00     0.015 A 
HETATM   12  N1  UNL     1      27.406   4.217  49.039  1.00  0.00    -0.129 NA
HETATM   13  O3  UNL     1      28.414   4.802  48.305  1.00  0.00    -0.234 OA
HETATM   14  C16 UNL     1      29.255   5.943  48.489  1.00  0.00     0.353 C 
HETATM   15  N2  UNL     1      28.572   7.184  48.166  1.00  0.00    -0.255 NA
HETATM   16  C17 UNL     1      27.400   7.644  48.502  1.00  0.00     0.230 C 
BRANCH   6  17
HETATM   17  O2  UNL     1      22.922   5.469  51.715  1.00  0.00    -0.353 OA
HETATM   18  C6  UNL     1      21.697   5.627  51.032  1.00  0.00     0.210 C 
ENDBRANCH   6  17
BRANCH  11  19
HETATM   19  C11 UNL     1      26.307   2.361  50.082  1.00  0.00     0.071 C 
BRANCH  19  20
HETATM   20  C12 UNL     1      26.778   1.828  51.390  1.00  0.00    -0.022 C 
HETATM   21  C13 UNL     1      27.436   2.222  52.468  1.00  0.00    -0.004 C 
BRANCH  21  22
HETATM   22  C14 UNL     1      27.720   1.376  53.606  1.00  0.00    -0.011 C 
HETATM   23  C15 UNL     1      27.553   0.140  53.187  1.00  0.00     0.011 C 
ENDBRANCH  21  22
ENDBRANCH  19  20
ENDBRANCH  11  19
ENDBRANCH   4   5
ENDBRANCH   3   4
TORSDOF 6
ENDMDL
MODEL 7
REMARK VINA RESULT:      -6.3      3.091      6.244
REMARK  6 active torsions:
REMARK  status: ('A' for Active; 'I' for Inactive)
REMARK    1  A    between atoms: C3_3  and  O1_4 
REMARK    2  A    between atoms: O1_4  and  C4_5 
REMARK    3  A    between atoms: C5_6  and  O2_7 
REMARK    4  A    between atoms: C10_12  and  C11_13 
REMARK    5  A    between atoms: C11_13  and  C12_14 
REMARK    6  A    between atoms: C13_15  and  C14_16 
ROOT
HETATM    1  C1  UNL     1      27.113   5.007  48.645  1.00  0.00     0.014 C 
HETATM    2  C2  UNL     1      26.331   4.615  49.460  1.00  0.00    -0.091 C 
HETATM    3  C3  UNL     1      25.385   4.164  50.452  1.00  0.00     0.268 C 
ENDROOT
BRANCH   3   4
HETATM    4  O1  UNL     1      24.989   2.831  50.337  1.00  0.00    -0.336 OA
BRANCH   4   5
HETATM    5  C4  UNL     1      23.879   2.216  50.823  1.00  0.00     0.112 A 
HETATM    6  C5  UNL     1      22.881   2.141  49.847  1.00  0.00     0.104 A 
HETATM    7  C7  UNL     1      21.638   1.548  50.099  1.00  0.00     0.073 A 
HETATM    8  C8  UNL     1      21.359   1.006  51.359  1.00  0.00     0.092 A 
HETATM    9  C9  UNL     1      22.354   1.087  52.311  1.00  0.00     0.122 A 
HETATM   10  N3  UNL     1      20.159   0.534  51.310  1.00  0.00    -0.240 NA
HETATM   11  C10 UNL     1      23.570   1.675  52.041  1.00  0.00     0.015 A 
HETATM   12  N1  UNL     1      22.468   0.714  53.542  1.00  0.00    -0.129 NA
HETATM   13  O3  UNL     1      21.557   0.066  54.346  1.00  0.00    -0.234 OA
HETATM   14  C16 UNL     1      20.713  -1.076  54.184  1.00  0.00     0.353 C 
HETATM   15  N2  UNL     1      19.516  -0.768  53.420  1.00  0.00    -0.255 NA
HETATM   16  C17 UNL     1      19.343  -0.132  52.296  1.00  0.00     0.230 C 
BRANCH   6  17
HETATM   17  O2  UNL     1      23.015   2.633  48.556  1.00  0.00    -0.353 OA
HETATM   18  C6  UNL     1      21.935   2.572  47.648  1.00  0.00     0.210 C 
ENDBRANCH   6  17
BRANCH  11  19
HETATM   19  C11 UNL     1      24.602   1.698  53.072  1.00  0.00     0.071 C 
BRANCH  19  20
HETATM   20  C12 UNL     1      25.577   0.581  52.937  1.00  0.00    -0.022 C 
HETATM   21  C13 UNL     1      26.883   0.374  52.893  1.00  0.00    -0.004 C 
BRANCH  21  22
HETATM   22  C14 UNL     1      27.500  -0.927  52.747  1.00  0.00    -0.011 C 
HETATM   23  C15 UNL     1      28.600  -0.886  53.467  1.00  0.00     0.011 C 
ENDBRANCH  21  22
ENDBRANCH  19  20
ENDBRANCH  11  19
ENDBRANCH   4   5
ENDBRANCH   3   4
TORSDOF 6
ENDMDL
MODEL 8
REMARK VINA RESULT:      -6.3      2.743      6.067
REMARK  6 active torsions:
REMARK  status: ('A' for Active; 'I' for Inactive)
REMARK    1  A    between atoms: C3_3  and  O1_4 
REMARK    2  A    between atoms: O1_4  and  C4_5 
REMARK    3  A    between atoms: C5_6  and  O2_7 
REMARK    4  A    between atoms: C10_12  and  C11_13 
REMARK    5  A    between atoms: C11_13  and  C12_14 
REMARK    6  A    between atoms: C13_15  and  C14_16 
ROOT
HETATM    1  C1  UNL     1      27.737   5.068  48.757  1.00  0.00     0.014 C 
HETATM    2  C2  UNL     1      26.874   4.312  49.091  1.00  0.00    -0.091 C 
HETATM    3  C3  UNL     1      25.834   3.387  49.474  1.00  0.00     0.268 C 
ENDROOT
BRANCH   3   4
HETATM    4  O1  UNL     1      25.379   3.511  50.787  1.00  0.00    -0.336 OA
BRANCH   4   5
HETATM    5  C4  UNL     1      24.418   2.805  51.438  1.00  0.00     0.112 A 
HETATM    6  C5  UNL     1      23.191   3.474  51.394  1.00  0.00     0.104 A 
HETATM    7  C7  UNL     1      22.038   2.951  51.993  1.00  0.00     0.073 A 
HETATM    8  C8  UNL     1      22.087   1.723  52.661  1.00  0.00     0.092 A 
HETATM    9  C9  UNL     1      23.304   1.075  52.694  1.00  0.00     0.122 A 
HETATM   10  N3  UNL     1      20.900   1.489  53.109  1.00  0.00    -0.240 NA
HETATM   11  C10 UNL     1      24.426   1.607  52.099  1.00  0.00     0.015 A 
HETATM   12  N1  UNL     1      23.730  -0.037  53.196  1.00  0.00    -0.129 NA
HETATM   13  O3  UNL     1      23.042  -0.994  53.908  1.00  0.00    -0.234 OA
HETATM   14  C16 UNL     1      21.794  -1.669  53.731  1.00  0.00     0.353 C 
HETATM   15  N2  UNL     1      20.666  -0.847  54.133  1.00  0.00    -0.255 NA
HETATM   16  C17 UNL     1      20.353   0.389  53.866  1.00  0.00     0.230 C 
BRANCH   6  17
HETATM   17  O2  UNL     1      22.991   4.696  50.768  1.00  0.00    -0.353 OA
HETATM   18  C6  UNL     1      21.904   4.884  49.888  1.00  0.00     0.210 C 
ENDBRANCH   6  17
BRANCH  11  19
HETATM   19  C11 UNL     1      25.679   0.861  52.130  1.00  0.00     0.071 C 
BRANCH  19  20
HETATM   20  C12 UNL     1      26.779   1.608  52.799  1.00  0.00    -0.022 C 
HETATM   21  C13 UNL     1      28.081   1.519  53.015  1.00  0.00    -0.004 C 
BRANCH  21  22
HETATM   22  C14 UNL     1      28.856   2.495  53.750  1.00  0.00    -0.011 C 
HETATM   23  C15 UNL     1      29.529   1.814  54.653  1.00  0.00     0.011 C 
ENDBRANCH  21  22
ENDBRANCH  19  20
ENDBRANCH  11  19
ENDBRANCH   4   5
ENDBRANCH   3   4
TORSDOF 6
ENDMDL
MODEL 9
REMARK VINA RESULT:      -6.0      3.133      6.854
REMARK  6 active torsions:
REMARK  status: ('A' for Active; 'I' for Inactive)
REMARK    1  A    between atoms: C3_3  and  O1_4 
REMARK    2  A    between atoms: O1_4  and  C4_5 
REMARK    3  A    between atoms: C5_6  and  O2_7 
REMARK    4  A    between atoms: C10_12  and  C11_13 
REMARK    5  A    between atoms: C11_13  and  C12_14 
REMARK    6  A    between atoms: C13_15  and  C14_16 
ROOT
HETATM    1  C1  UNL     1      27.769   0.165  54.086  1.00  0.00     0.014 C 
HETATM    2  C2  UNL     1      27.430   0.562  53.011  1.00  0.00    -0.091 C 
HETATM    3  C3  UNL     1      27.018   1.018  51.705  1.00  0.00     0.268 C 
ENDROOT
BRANCH   3   4
HETATM    4  O1  UNL     1      26.868   2.399  51.575  1.00  0.00    -0.336 OA
BRANCH   4   5
HETATM    5  C4  UNL     1      25.781   3.117  51.189  1.00  0.00     0.112 A 
HETATM    6  C5  UNL     1      25.995   3.716  49.944  1.00  0.00     0.104 A 
HETATM    7  C7  UNL     1      25.023   4.511  49.324  1.00  0.00     0.073 A 
HETATM    8  C8  UNL     1      23.789   4.727  49.948  1.00  0.00     0.092 A 
HETATM    9  C9  UNL     1      23.592   4.128  51.175  1.00  0.00     0.122 A 
HETATM   10  N3  UNL     1      23.097   5.485  49.166  1.00  0.00    -0.240 NA
HETATM   11  C10 UNL     1      24.563   3.351  51.767  1.00  0.00     0.015 A 
HETATM   12  N1  UNL     1      22.622   4.094  52.027  1.00  0.00    -0.129 NA
HETATM   13  O3  UNL     1      21.384   4.695  51.964  1.00  0.00    -0.234 OA
HETATM   14  C16 UNL     1      20.368   4.792  50.964  1.00  0.00     0.353 C 
HETATM   15  N2  UNL     1      20.683   5.795  49.961  1.00  0.00    -0.255 NA
HETATM   16  C17 UNL     1      21.767   6.033  49.280  1.00  0.00     0.230 C 
BRANCH   6  17
HETATM   17  O2  UNL     1      27.166   3.590  49.209  1.00  0.00    -0.353 OA
HETATM   18  C6  UNL     1      27.784   4.726  48.642  1.00  0.00     0.210 C 
ENDBRANCH   6  17
BRANCH  11  19
HETATM   19  C11 UNL     1      24.289   2.707  53.047  1.00  0.00     0.071 C 
BRANCH  19  20
HETATM   20  C12 UNL     1      23.617   1.387  52.897  1.00  0.00    -0.022 C 
HETATM   21  C13 UNL     1      23.651   0.168  53.408  1.00  0.00    -0.004 C 
BRANCH  21  22
HETATM   22  C14 UNL     1      22.796  -0.920  52.986  1.00  0.00    -0.011 C 
HETATM   23  C15 UNL     1      21.780  -0.359  52.365  1.00  0.00     0.011 C 
ENDBRANCH  21  22
ENDBRANCH  19  20
ENDBRANCH  11  19
ENDBRANCH   4   5
ENDBRANCH   3   4
TORSDOF 6
ENDMDL
