MODEL 1
REMARK VINA RESULT:      -8.9      0.000      0.000
REMARK  5 active torsions:
REMARK  status: ('A' for Active; 'I' for Inactive)
REMARK    1  A    between atoms: P1_2  and  C18_25 
REMARK    2  A    between atoms: C2_3  and  C15_22 
REMARK    3  A    between atoms: C6_10  and  N4_11 
REMARK    4  A    between atoms: C8_14  and  C9_15 
REMARK    5  A    between atoms: C13_19  and  O1_20 
ROOT
HETATM    1  C1  UNL     1      23.790   4.557  53.046  1.00  0.00    -0.043 C 
HETATM    2  P1  UNL     1      23.693   3.071  52.828  1.00  0.00    -0.035 P 
HETATM    3  C2  UNL     1      23.661   2.419  52.720  1.00  0.00     0.049 A 
HETATM    4  C3  UNL     1      24.814   3.195  51.483  1.00  0.00     0.142 A 
HETATM    5  N1  UNL     1      24.435   4.320  50.794  1.00  0.00    -0.245 NA
HETATM    6  C4  UNL     1      25.173   4.965  49.949  1.00  0.00     0.179 A 
HETATM    7  N2  UNL     1      24.541   6.021  49.433  1.00  0.00    -0.220 NA
HETATM    8  C5  UNL     1      25.272   6.748  48.533  1.00  0.00     0.237 A 
HETATM    9  N3  UNL     1      26.544   6.348  48.243  1.00  0.00    -0.228 NA
HETATM   10  C6  UNL     1      27.095   5.270  48.814  1.00  0.00     0.135 A 
HETATM   11  C7  UNL     1      26.421   4.516  49.709  1.00  0.00     0.144 A 
HETATM   12  N5  UNL     1      26.936   3.438  50.299  1.00  0.00    -0.242 NA
HETATM   13  C8  UNL     1      26.155   2.812  51.151  1.00  0.00     0.082 A 
ENDROOT
BRANCH   3  14
HETATM   14  C15 UNL     1      23.747   1.090  51.852  1.00  0.00     0.015 C 
HETATM   15  C16 UNL     1      23.016  -0.142  52.543  1.00  0.00     0.006 A 
HETATM   16  C17 UNL     1      22.677   0.596  53.623  1.00  0.00     0.005 A 
HETATM   17  C18 UNL     1      23.211   0.598  52.399  1.00  0.00     0.033 A 
HETATM   18  O2  UNL     1      22.749   1.178  51.079  1.00  0.00     0.000 OA
HETATM   19  H14 UNL     1      21.953   0.594  50.894  1.00  0.00     0.000 HD
ENDBRANCH   3  14
BRANCH  13  20
HETATM   20  C9  UNL     1      26.600   1.617  51.848  1.00  0.00    -0.006 A 
HETATM   21  C10 UNL     1      26.520   0.258  51.672  1.00  0.00     0.014 A 
HETATM   22  C11 UNL     1      27.089  -0.642  52.528  1.00  0.00     0.004 A 
HETATM   23  C12 UNL     1      27.793  -0.251  53.645  1.00  0.00     0.036 A 
HETATM   24  C13 UNL     1      27.900   1.089  53.866  1.00  0.00     0.066 A 
HETATM   25  C14 UNL     1      27.317   2.008  52.987  1.00  0.00     0.050 A 
BRANCH  24  26
HETATM   26  O1  UNL     1      28.617   1.442  55.004  1.00  0.00    -0.361 OA
HETATM   27  H8  UNL     1      28.140   1.332  55.891  1.00  0.00     0.217 HD
ENDBRANCH  24  26
ENDBRANCH  13  20
BRANCH  10  28
HETATM   28  N4  UNL     1      28.422   4.811  48.546  1.00  0.00    -0.285 NA
HETATM   29  H3  UNL     1      29.295   4.597  49.047  1.00  0.00     0.125 HD
HETATM   30  H4  UNL     1      28.967   4.755  49.456  1.00  0.00     0.125 HD
ENDBRANCH  10  28
TORSDOF 5
ENDMDL
MODEL 2
REMARK VINA RESULT:      -8.4      1.359      1.585
REMARK  5 active torsions:
REMARK  status: ('A' for Active; 'I' for Inactive)
REMARK    1  A    between atoms: P1_2  and  C18_25 
REMARK    2  A    between atoms: C2_3  and  C15_22 
REMARK    3  A    between atoms: C6_10  and  N4_11 
REMARK    4  A    between atoms: C8_14  and  C9_15 
REMARK    5  A    between atoms: C13_19  and  O1_20 
ROOT
HETATM    1  C1  UNL     1      22.313   4.588  52.340  1.00  0.00    -0.043 C 
HETATM    2  P1  UNL     1      22.456   3.089  52.344  1.00  0.00    -0.035 P 
HETATM    3  C2  UNL     1      22.532   2.432  52.336  1.00  0.00     0.049 A 
HETATM    4  C3  UNL     1      23.889   3.223  51.339  1.00  0.00     0.142 A 
HETATM    5  N1  UNL     1      23.592   4.184  50.405  1.00  0.00    -0.245 NA
HETATM    6  C4  UNL     1      24.459   4.830  49.693  1.00  0.00     0.179 A 
HETATM    7  N2  UNL     1      23.880   5.704  48.868  1.00  0.00    -0.220 NA
HETATM    8  C5  UNL     1      24.746   6.422  48.088  1.00  0.00     0.237 A 
HETATM    9  N3  UNL     1      26.085   6.194  48.211  1.00  0.00    -0.228 NA
HETATM   10  C6  UNL     1      26.575   5.291  49.071  1.00  0.00     0.135 A 
HETATM   11  C7  UNL     1      25.767   4.555  49.865  1.00  0.00     0.144 A 
HETATM   12  N5  UNL     1      26.216   3.650  50.734  1.00  0.00    -0.242 NA
HETATM   13  C8  UNL     1      25.304   3.017  51.438  1.00  0.00     0.082 A 
ENDROOT
BRANCH   3  14
HETATM   14  C15 UNL     1      23.015   1.038  51.745  1.00  0.00     0.015 C 
HETATM   15  C16 UNL     1      22.581  -0.196  52.650  1.00  0.00     0.006 A 
HETATM   16  C17 UNL     1      21.991   0.610  53.560  1.00  0.00     0.005 A 
HETATM   17  C18 UNL     1      22.588   0.530  52.368  1.00  0.00     0.033 A 
HETATM   18  O2  UNL     1      22.082   0.715  50.953  1.00  0.00     0.000 OA
HETATM   19  H14 UNL     1      21.477  -0.083  50.872  1.00  0.00     0.000 HD
ENDBRANCH   3  14
BRANCH  13  20
HETATM   20  C9  UNL     1      25.670   1.999  52.409  1.00  0.00    -0.006 A 
HETATM   21  C10 UNL     1      25.687   1.870  53.775  1.00  0.00     0.014 A 
HETATM   22  C11 UNL     1      26.079   0.727  54.414  1.00  0.00     0.004 A 
HETATM   23  C12 UNL     1      26.492  -0.393  53.729  1.00  0.00     0.036 A 
HETATM   24  C13 UNL     1      26.495  -0.315  52.368  1.00  0.00     0.066 A 
HETATM   25  C14 UNL     1      26.092   0.856  51.718  1.00  0.00     0.050 A 
BRANCH  24  26
HETATM   26  O1  UNL     1      26.919  -1.466  51.714  1.00  0.00    -0.361 OA
HETATM   27  H8  UNL     1      27.919  -1.584  51.609  1.00  0.00     0.217 HD
ENDBRANCH  24  26
ENDBRANCH  13  20
BRANCH  10  28
HETATM   28  N4  UNL     1      27.966   5.016  49.239  1.00  0.00    -0.285 NA
HETATM   29  H3  UNL     1      28.814   4.882  48.672  1.00  0.00     0.125 HD
HETATM   30  H4  UNL     1      28.436   4.974  48.287  1.00  0.00     0.125 HD
ENDBRANCH  10  28
TORSDOF 5
ENDMDL
MODEL 3
REMARK VINA RESULT:      -8.1      3.425      5.978
REMARK  5 active torsions:
REMARK  status: ('A' for Active; 'I' for Inactive)
REMARK    1  A    between atoms: P1_2  and  C18_25 
REMARK    2  A    between atoms: C2_3  and  C15_22 
REMARK    3  A    between atoms: C6_10  and  N4_11 
REMARK    4  A    between atoms: C8_14  and  C9_15 
REMARK    5  A    between atoms: C13_19  and  O1_20 
ROOT
HETATM    1  C1  UNL     1      21.327  -0.006  51.093  1.00  0.00    -0.043 C 
HETATM    2  P1  UNL     1      21.106   1.482  51.155  1.00  0.00    -0.035 P 
HETATM    3  C2  UNL     1      21.023   2.137  51.191  1.00  0.00     0.049 A 
HETATM    4  C3  UNL     1      22.586   1.662  52.082  1.00  0.00     0.142 A 
HETATM    5  N1  UNL     1      22.583   0.625  52.982  1.00  0.00    -0.245 NA
HETATM    6  C4  UNL     1      23.619   0.183  53.619  1.00  0.00     0.179 A 
HETATM    7  N2  UNL     1      23.315  -0.834  54.428  1.00  0.00    -0.220 NA
HETATM    8  C5  UNL     1      24.371  -1.348  55.129  1.00  0.00     0.237 A 
HETATM    9  N3  UNL     1      25.608  -0.799  54.953  1.00  0.00    -0.228 NA
HETATM   10  C6  UNL     1      25.816   0.224  54.115  1.00  0.00     0.135 A 
HETATM   11  C7  UNL     1      24.811   0.771  53.397  1.00  0.00     0.144 A 
HETATM   12  N5  UNL     1      24.979   1.788  52.553  1.00  0.00    -0.242 NA
HETATM   13  C8  UNL     1      23.903   2.207  51.925  1.00  0.00     0.082 A 
ENDROOT
BRANCH   3  14
HETATM   14  C15 UNL     1      21.193   3.584  51.826  1.00  0.00     0.015 C 
HETATM   15  C16 UNL     1      20.435   4.710  50.996  1.00  0.00     0.006 A 
HETATM   16  C17 UNL     1      20.007   3.819  50.075  1.00  0.00     0.005 A 
HETATM   17  C18 UNL     1      20.627   3.997  51.245  1.00  0.00     0.033 A 
HETATM   18  O2  UNL     1      20.250   3.648  52.669  1.00  0.00     0.000 OA
HETATM   19  H14 UNL     1      19.479   4.277  52.810  1.00  0.00     0.000 HD
ENDBRANCH   3  14
BRANCH  13  20
HETATM   20  C9  UNL     1      23.957   3.316  50.988  1.00  0.00    -0.006 A 
HETATM   21  C10 UNL     1      23.861   3.495  49.631  1.00  0.00     0.014 A 
HETATM   22  C11 UNL     1      23.930   4.720  49.030  1.00  0.00     0.004 A 
HETATM   23  C12 UNL     1      24.105   5.882  49.748  1.00  0.00     0.036 A 
HETATM   24  C13 UNL     1      24.208   5.758  51.101  1.00  0.00     0.066 A 
HETATM   25  C14 UNL     1      24.136   4.503  51.713  1.00  0.00     0.050 A 
BRANCH  24  26
HETATM   26  O1  UNL     1      24.385   6.954  51.789  1.00  0.00    -0.361 OA
HETATM   27  H8  UNL     1      24.883   7.687  51.300  1.00  0.00     0.217 HD
ENDBRANCH  24  26
ENDBRANCH  13  20
BRANCH  10  28
HETATM   28  N4  UNL     1      27.089   0.833  53.894  1.00  0.00    -0.285 NA
HETATM   29  H3  UNL     1      27.687   1.142  53.116  1.00  0.00     0.125 HD
HETATM   30  H4  UNL     1      27.251   0.946  52.850  1.00  0.00     0.125 HD
ENDBRANCH  10  28
TORSDOF 5
ENDMDL
MODEL 4
REMARK VINA RESULT:      -7.8      2.302      4.477
REMARK  5 active torsions:
REMARK  status: ('A' for Active; 'I' for Inactive)
REMARK    1  A    between atoms: P1_2  and  C18_25 
REMARK    2  A    between atoms: C2_3  and  C15_22 
REMARK    3  A    between atoms: C6_10  and  N4_11 
REMARK    4  A    between atoms: C8_14  and  C9_15 
REMARK    5  A    between atoms: C13_19  and  O1_20 
ROOT
HETATM    1  C1  UNL     1      26.248   3.634  49.695  1.00  0.00    -0.043 C 
HETATM    2  P1  UNL     1      25.752   2.827  50.866  1.00  0.00    -0.035 P 
HETATM    3  C2  UNL     1      25.521   2.483  51.381  1.00  0.00     0.049 A 
HETATM    4  C3  UNL     1      24.371   3.900  51.019  1.00  0.00     0.142 A 
HETATM    5  N1  UNL     1      24.867   5.165  50.833  1.00  0.00    -0.245 NA
HETATM    6  C4  UNL     1      24.164   6.209  50.530  1.00  0.00     0.179 A 
HETATM    7  N2  UNL     1      24.916   7.305  50.411  1.00  0.00    -0.220 NA
HETATM    8  C5  UNL     1      24.230   8.444  50.089  1.00  0.00     0.237 A 
HETATM    9  N3  UNL     1      22.878   8.372  49.922  1.00  0.00    -0.228 NA
HETATM   10  C6  UNL     1      22.206   7.222  50.063  1.00  0.00     0.135 A 
HETATM   11  C7  UNL     1      22.833   6.068  50.380  1.00  0.00     0.144 A 
HETATM   12  N5  UNL     1      22.200   4.904  50.526  1.00  0.00    -0.242 NA
HETATM   13  C8  UNL     1      22.949   3.869  50.832  1.00  0.00     0.082 A 
ENDROOT
BRANCH   3  14
HETATM   14  C15 UNL     1      24.707   2.267  52.729  1.00  0.00     0.015 C 
HETATM   15  C16 UNL     1      24.918   0.817  53.347  1.00  0.00     0.006 A 
HETATM   16  C17 UNL     1      25.728   0.444  52.332  1.00  0.00     0.005 A 
HETATM   17  C18 UNL     1      25.052   1.444  52.904  1.00  0.00     0.033 A 
HETATM   18  O2  UNL     1      25.492   2.702  53.621  1.00  0.00     0.000 OA
HETATM   19  H14 UNL     1      25.901   2.304  54.449  1.00  0.00     0.000 HD
ENDBRANCH   3  14
BRANCH  13  20
HETATM   20  C9  UNL     1      22.372   2.550  51.030  1.00  0.00    -0.006 A 
HETATM   21  C10 UNL     1      22.325   1.358  50.349  1.00  0.00     0.014 A 
HETATM   22  C11 UNL     1      21.697   0.245  50.832  1.00  0.00     0.004 A 
HETATM   23  C12 UNL     1      21.057   0.232  52.051  1.00  0.00     0.036 A 
HETATM   24  C13 UNL     1      21.075   1.393  52.766  1.00  0.00     0.066 A 
HETATM   25  C14 UNL     1      21.719   2.530  52.269  1.00  0.00     0.050 A 
BRANCH  24  26
HETATM   26  O1  UNL     1      20.418   1.339  53.990  1.00  0.00    -0.361 OA
HETATM   27  H8  UNL     1      20.793   0.696  54.677  1.00  0.00     0.217 HD
ENDBRANCH  24  26
ENDBRANCH  13  20
BRANCH  10  28
HETATM   28  N4  UNL     1      20.793   7.093  49.899  1.00  0.00    -0.285 NA
HETATM   29  H3  UNL     1      20.081   7.150  49.159  1.00  0.00     0.125 HD
HETATM   30  H4  UNL     1      20.540   7.253  48.879  1.00  0.00     0.125 HD
ENDBRANCH  10  28
TORSDOF 5
ENDMDL
MODEL 5
REMARK VINA RESULT:      -7.7      4.697      7.920
REMARK  5 active torsions:
REMARK  status: ('A' for Active; 'I' for Inactive)
REMARK    1  A    between atoms: P1_2  and  C18_25 
REMARK    2  A    between atoms: C2_3  and  C15_22 
REMARK    3  A    between atoms: C6_10  and  N4_11 
REMARK    4  A    between atoms: C8_14  and  C9_15 
REMARK    5  A    between atoms: C13_19  and  O1_20 
ROOT
HETATM    1  C1  UNL     1      26.586   8.908  47.296  1.00  0.00    -0.043 C 
HETATM    2  P1  UNL     1      27.971   9.129  47.843  1.00  0.00    -0.035 P 
HETATM    3  C2  UNL     1      28.579   9.210  48.090  1.00  0.00     0.049 A 
HETATM    4  C3  UNL     1      27.953   7.517  48.538  1.00  0.00     0.142 A 
HETATM    5  N1  UNL     1      26.696   7.361  49.068  1.00  0.00    -0.245 NA
HETATM    6  C4  UNL     1      26.145   6.230  49.370  1.00  0.00     0.179 A 
HETATM    7  N2  UNL     1      24.917   6.385  49.867  1.00  0.00    -0.220 NA
HETATM    8  C5  UNL     1      24.280   5.222  50.203  1.00  0.00     0.237 A 
HETATM    9  N3  UNL     1      24.929   4.037  50.013  1.00  0.00    -0.228 NA
HETATM   10  C6  UNL     1      26.167   3.981  49.507  1.00  0.00     0.135 A 
HETATM   11  C7  UNL     1      26.843   5.097  49.156  1.00  0.00     0.144 A 
HETATM   12  N5  UNL     1      28.074   5.081  48.647  1.00  0.00    -0.242 NA
HETATM   13  C8  UNL     1      28.597   6.250  48.353  1.00  0.00     0.082 A 
ENDROOT
BRANCH   3  14
HETATM   14  C15 UNL     1      29.777   8.951  49.102  1.00  0.00     0.015 C 
HETATM   15  C16 UNL     1      31.034   9.884  48.816  1.00  0.00     0.006 A 
HETATM   16  C17 UNL     1      30.429  10.465  47.757  1.00  0.00     0.005 A 
HETATM   17  C18 UNL     1      30.298   9.630  48.791  1.00  0.00     0.033 A 
HETATM   18  O2  UNL     1      29.507   9.709  50.079  1.00  0.00     0.000 OA
HETATM   19  H14 UNL     1      29.997  10.451  50.546  1.00  0.00     0.000 HD
ENDBRANCH   3  14
BRANCH  13  20
HETATM   20  C9  UNL     1      29.938   6.362  47.803  1.00  0.00    -0.006 A 
HETATM   21  C10 UNL     1      30.516   6.796  46.636  1.00  0.00     0.014 A 
HETATM   22  C11 UNL     1      31.865   6.798  46.424  1.00  0.00     0.004 A 
HETATM   23  C12 UNL     1      32.759   6.360  47.375  1.00  0.00     0.036 A 
HETATM   24  C13 UNL     1      32.235   5.917  48.553  1.00  0.00     0.066 A 
HETATM   25  C14 UNL     1      30.853   5.917  48.766  1.00  0.00     0.050 A 
BRANCH  24  26
HETATM   26  O1  UNL     1      33.170   5.483  49.487  1.00  0.00    -0.361 OA
HETATM   27  H8  UNL     1      32.811   4.953  50.272  1.00  0.00     0.217 HD
ENDBRANCH  24  26
ENDBRANCH  13  20
BRANCH  10  28
HETATM   28  N4  UNL     1      26.888   2.768  49.287  1.00  0.00    -0.285 NA
HETATM   29  H3  UNL     1      27.027   1.847  49.723  1.00  0.00     0.125 HD
HETATM   30  H4  UNL     1      26.678   2.084  50.072  1.00  0.00     0.125 HD
ENDBRANCH  10  28
TORSDOF 5
ENDMDL
MODEL 6
REMARK VINA RESULT:      -7.6      3.466      6.424
REMARK  5 active torsions:
REMARK  status: ('A' for Active; 'I' for Inactive)
REMARK    1  A    between atoms: P1_2  and  C18_25 
REMARK    2  A    between atoms: C2_3  and  C15_22 
REMARK    3  A    between atoms: C6_10  and  N4_11 
REMARK    4  A    between atoms: C8_14  and  C9_15 
REMARK    5  A    between atoms: C13_19  and  O1_20 
ROOT
HETATM    1  C1  UNL     1      25.086   3.848  50.838  1.00  0.00    -0.043 C 
HETATM    2  P1  UNL     1      23.851   3.404  50.101  1.00  0.00    -0.035 P 
HETATM    3  C2  UNL     1      23.307   3.195  49.787  1.00  0.00     0.049 A 
HETATM    4  C3  UNL     1      23.751   1.982  51.126  1.00  0.00     0.142 A 
HETATM    5  N1  UNL     1      25.041   1.531  51.251  1.00  0.00    -0.245 NA
HETATM    6  C4  UNL     1      25.468   0.727  52.172  1.00  0.00     0.179 A 
HETATM    7  N2  UNL     1      26.769   0.461  52.044  1.00  0.00    -0.220 NA
HETATM    8  C5  UNL     1      27.281  -0.383  52.991  1.00  0.00     0.237 A 
HETATM    9  N3  UNL     1      26.449  -0.871  53.957  1.00  0.00    -0.228 NA
HETATM   10  C6  UNL     1      25.151  -0.547  54.003  1.00  0.00     0.135 A 
HETATM   11  C7  UNL     1      24.592   0.283  53.095  1.00  0.00     0.144 A 
HETATM   12  N5  UNL     1      23.306   0.630  53.110  1.00  0.00    -0.242 NA
HETATM   13  C8  UNL     1      22.913   1.449  52.160  1.00  0.00     0.082 A 
ENDROOT
BRANCH   3  14
HETATM   14  C15 UNL     1      22.260   2.119  49.266  1.00  0.00     0.015 C 
HETATM   15  C16 UNL     1      21.048   2.776  48.473  1.00  0.00     0.006 A 
HETATM   16  C17 UNL     1      21.527   4.025  48.669  1.00  0.00     0.005 A 
HETATM   17  C18 UNL     1      21.751   2.715  48.804  1.00  0.00     0.033 A 
HETATM   18  O2  UNL     1      22.732   1.769  48.144  1.00  0.00     0.000 OA
HETATM   19  H14 UNL     1      22.374   1.765  47.205  1.00  0.00     0.000 HD
ENDBRANCH   3  14
BRANCH  13  20
HETATM   20  C9  UNL     1      21.532   1.890  52.065  1.00  0.00    -0.006 A 
HETATM   21  C10 UNL     1      20.834   3.061  52.229  1.00  0.00     0.014 A 
HETATM   22  C11 UNL     1      19.486   3.163  52.033  1.00  0.00     0.004 A 
HETATM   23  C12 UNL     1      18.715   2.087  51.652  1.00  0.00     0.036 A 
HETATM   24  C13 UNL     1      19.361   0.900  51.477  1.00  0.00     0.066 A 
HETATM   25  C14 UNL     1      20.742   0.800  51.678  1.00  0.00     0.050 A 
BRANCH  24  26
HETATM   26  O1  UNL     1      18.548  -0.161  51.094  1.00  0.00    -0.361 OA
HETATM   27  H8  UNL     1      18.986  -1.074  51.051  1.00  0.00     0.217 HD
ENDBRANCH  24  26
ENDBRANCH  13  20
BRANCH  10  28
HETATM   28  N4  UNL     1      24.239  -1.028  54.993  1.00  0.00    -0.285 NA
HETATM   29  H3  UNL     1      24.237  -1.339  55.973  1.00  0.00     0.125 HD
HETATM   30  H4  UNL     1      24.765  -1.217  55.896  1.00  0.00     0.125 HD
ENDBRANCH  10  28
TORSDOF 5
ENDMDL
MODEL 7
REMARK VINA RESULT:      -7.6      3.248      6.355
REMARK  5 active torsions:
REMARK  status: ('A' for Active; 'I' for Inactive)
REMARK    1  A    between atoms: P1_2  and  C18_25 
REMARK    2  A    between atoms: C2_3  and  C15_22 
REMARK    3  A    between atoms: C6_10  and  N4_11 
REMARK    4  A    between atoms: C8_14  and  C9_15 
REMARK    5  A    between atoms: C13_19  and  O1_20 
ROOT
HETATM    1  C1  UNL     1      21.684   3.747  49.092  1.00  0.00    -0.043 C 
HETATM    2  P1  UNL     1      21.850   5.210  49.407  1.00  0.00    -0.035 P 
HETATM    3  C2  UNL     1      21.937   5.848  49.553  1.00  0.00     0.049 A 
HETATM    4  C3  UNL     1      23.323   4.851  50.291  1.00  0.00     0.142 A 
HETATM    5  N1  UNL     1      23.052   3.712  51.008  1.00  0.00    -0.245 NA
HETATM    6  C4  UNL     1      23.938   2.921  51.521  1.00  0.00     0.179 A 
HETATM    7  N2  UNL     1      23.382   1.892  52.164  1.00  0.00    -0.220 NA
HETATM    8  C5  UNL     1      24.269   1.017  52.728  1.00  0.00     0.237 A 
HETATM    9  N3  UNL     1      25.606   1.257  52.596  1.00  0.00    -0.228 NA
HETATM   10  C6  UNL     1      26.072   2.322  51.930  1.00  0.00     0.135 A 
HETATM   11  C7  UNL     1      25.242   3.218  51.353  1.00  0.00     0.144 A 
HETATM   12  N5  UNL     1      25.667   4.287  50.682  1.00  0.00    -0.242 NA
HETATM   13  C8  UNL     1      24.736   5.064  50.175  1.00  0.00     0.082 A 
ENDROOT
BRANCH   3  14
HETATM   14  C15 UNL     1      22.468   7.077  50.411  1.00  0.00     0.015 C 
HETATM   15  C16 UNL     1      22.033   8.482  49.803  1.00  0.00     0.006 A 
HETATM   16  C17 UNL     1      21.399   7.897  48.764  1.00  0.00     0.005 A 
HETATM   17  C18 UNL     1      22.033   7.712  49.925  1.00  0.00     0.033 A 
HETATM   18  O2  UNL     1      21.567   7.238  51.285  1.00  0.00     0.000 OA
HETATM   19  H14 UNL     1      20.982   8.010  51.553  1.00  0.00     0.000 HD
ENDBRANCH   3  14
BRANCH  13  20
HETATM   20  C9  UNL     1      25.076   6.266  49.432  1.00  0.00    -0.006 A 
HETATM   21  C10 UNL     1      25.015   6.698  48.130  1.00  0.00     0.014 A 
HETATM   22  C11 UNL     1      25.405   7.947  47.736  1.00  0.00     0.004 A 
HETATM   23  C12 UNL     1      25.893   8.879  48.624  1.00  0.00     0.036 A 
HETATM   24  C13 UNL     1      25.974   8.498  49.931  1.00  0.00     0.066 A 
HETATM   25  C14 UNL     1      25.575   7.219  50.330  1.00  0.00     0.050 A 
BRANCH  24  26
HETATM   26  O1  UNL     1      26.473   9.467  50.795  1.00  0.00    -0.361 OA
HETATM   27  H8  UNL     1      26.267   9.344  51.779  1.00  0.00     0.217 HD
ENDBRANCH  24  26
ENDBRANCH  13  20
BRANCH  10  28
HETATM   28  N4  UNL     1      27.459   2.618  51.762  1.00  0.00    -0.285 NA
HETATM   29  H3  UNL     1      28.160   2.695  51.014  1.00  0.00     0.125 HD
HETATM   30  H4  UNL     1      27.710   2.562  50.732  1.00  0.00     0.125 HD
ENDBRANCH  10  28
TORSDOF 5
ENDMDL
MODEL 8
REMARK VINA RESULT:      -7.6      3.725      6.229
REMARK  5 active torsions:
REMARK  status: ('A' for Active; 'I' for Inactive)
REMARK    1  A    between atoms: P1_2  and  C18_25 
REMARK    2  A    between atoms: C2_3  and  C15_22 
REMARK    3  A    between atoms: C6_10  and  N4_11 
REMARK    4  A    between atoms: C8_14  and  C9_15 
REMARK    5  A    between atoms: C13_19  and  O1_20 
ROOT
HETATM    1  C1  UNL     1      21.882   1.345  49.077  1.00  0.00    -0.043 C 
HETATM    2  P1  UNL     1      22.579   2.453  49.822  1.00  0.00    -0.035 P 
HETATM    3  C2  UNL     1      22.880   2.932  50.164  1.00  0.00     0.049 A 
HETATM    4  C3  UNL     1      22.021   1.778  51.344  1.00  0.00     0.142 A 
HETATM    5  N1  UNL     1      20.719   1.405  51.124  1.00  0.00    -0.245 NA
HETATM    6  C4  UNL     1      20.045   0.574  51.852  1.00  0.00     0.179 A 
HETATM    7  N2  UNL     1      18.802   0.402  51.398  1.00  0.00    -0.220 NA
HETATM    8  C5  UNL     1      18.037  -0.469  52.125  1.00  0.00     0.237 A 
HETATM    9  N3  UNL     1      18.586  -1.070  53.220  1.00  0.00    -0.228 NA
HETATM   10  C6  UNL     1      19.848  -0.833  53.601  1.00  0.00     0.135 A 
HETATM   11  C7  UNL     1      20.648   0.016  52.920  1.00  0.00     0.144 A 
HETATM   12  N5  UNL     1      21.908   0.275  53.266  1.00  0.00    -0.242 NA
HETATM   13  C8  UNL     1      22.559   1.123  52.501  1.00  0.00     0.082 A 
ENDROOT
BRANCH   3  14
HETATM   14  C15 UNL     1      23.106   3.905  51.400  1.00  0.00     0.015 C 
HETATM   15  C16 UNL     1      24.122   5.085  51.074  1.00  0.00     0.006 A 
HETATM   16  C17 UNL     1      24.330   4.631  49.819  1.00  0.00     0.005 A 
HETATM   17  C18 UNL     1      23.625   4.498  50.946  1.00  0.00     0.033 A 
HETATM   18  O2  UNL     1      22.171   4.752  51.283  1.00  0.00     0.000 OA
HETATM   19  H14 UNL     1      22.139   5.753  51.203  1.00  0.00     0.000 HD
ENDBRANCH   3  14
BRANCH  13  20
HETATM   20  C9  UNL     1      23.936   1.494  52.783  1.00  0.00    -0.006 A 
HETATM   21  C10 UNL     1      24.592   2.483  53.472  1.00  0.00     0.014 A 
HETATM   22  C11 UNL     1      25.953   2.546  53.578  1.00  0.00     0.004 A 
HETATM   23  C12 UNL     1      26.779   1.611  52.995  1.00  0.00     0.036 A 
HETATM   24  C13 UNL     1      26.175   0.608  52.297  1.00  0.00     0.066 A 
HETATM   25  C14 UNL     1      24.782   0.547  52.192  1.00  0.00     0.050 A 
BRANCH  24  26
HETATM   26  O1  UNL     1      27.044  -0.315  51.723  1.00  0.00    -0.361 OA
HETATM   27  H8  UNL     1      27.676   0.039  51.015  1.00  0.00     0.217 HD
ENDBRANCH  24  26
ENDBRANCH  13  20
BRANCH  10  28
HETATM   28  N4  UNL     1      20.469  -1.437  54.736  1.00  0.00    -0.285 NA
HETATM   29  H3  UNL     1      21.172  -1.219  55.455  1.00  0.00     0.125 HD
HETATM   30  H4  UNL     1      21.168  -0.757  55.160  1.00  0.00     0.125 HD
ENDBRANCH  10  28
TORSDOF 5
ENDMDL
MODEL 9
REMARK VINA RESULT:      -7.5      3.564      6.240
REMARK  5 active torsions:
REMARK  status: ('A' for Active; 'I' for Inactive)
REMARK    1  A    between atoms: P1_2  and  C18_25 
REMARK    2  A    between atoms: C2_3  and  C15_22 
REMARK    3  A    between atoms: C6_10  and  N4_11 
REMARK    4  A    between atoms: C8_14  and  C9_15 
REMARK    5  A    between atoms: C13_19  and  O1_20 
ROOT
HETATM    1  C1  UNL     1      21.356   1.022  48.889  1.00  0.00    -0.043 C 
HETATM    2  P1  UNL     1      21.246   2.508  49.104  1.00  0.00    -0.035 P 
HETATM    3  C2  UNL     1      21.207   3.159  49.212  1.00  0.00     0.049 A 
HETATM    4  C3  UNL     1      22.222   2.369  50.556  1.00  0.00     0.142 A 
HETATM    5  N1  UNL     1      21.768   1.244  51.196  1.00  0.00    -0.245 NA
HETATM    6  C4  UNL     1      22.412   0.589  52.108  1.00  0.00     0.179 A 
HETATM    7  N2  UNL     1      21.724  -0.465  52.552  1.00  0.00    -0.220 NA
HETATM    8  C5  UNL     1      22.354  -1.201  53.517  1.00  0.00     0.237 A 
HETATM    9  N3  UNL     1      23.593  -0.812  53.938  1.00  0.00    -0.228 NA
HETATM   10  C6  UNL     1      24.206   0.266  53.432  1.00  0.00     0.135 A 
HETATM   11  C7  UNL     1      23.632   1.028  52.477  1.00  0.00     0.144 A 
HETATM   12  N5  UNL     1      24.211   2.105  51.948  1.00  0.00    -0.242 NA
HETATM   13  C8  UNL     1      23.525   2.741  51.025  1.00  0.00     0.082 A 
ENDROOT
BRANCH   3  14
HETATM   14  C15 UNL     1      21.213   4.483  50.092  1.00  0.00     0.015 C 
HETATM   15  C16 UNL     1      20.946   5.793  49.230  1.00  0.00     0.006 A 
HETATM   16  C17 UNL     1      20.865   5.086  48.081  1.00  0.00     0.005 A 
HETATM   17  C18 UNL     1      20.966   5.036  49.412  1.00  0.00     0.033 A 
HETATM   18  O2  UNL     1      20.017   4.573  50.497  1.00  0.00     0.000 OA
HETATM   19  H14 UNL     1      19.305   5.278  50.426  1.00  0.00     0.000 HD
ENDBRANCH   3  14
BRANCH  13  20
HETATM   20  C9  UNL     1      24.047   3.936  50.384  1.00  0.00    -0.006 A 
HETATM   21  C10 UNL     1      24.516   4.292  49.143  1.00  0.00     0.014 A 
HETATM   22  C11 UNL     1      24.928   5.557  48.833  1.00  0.00     0.004 A 
HETATM   23  C12 UNL     1      24.904   6.583  49.750  1.00  0.00     0.036 A 
HETATM   24  C13 UNL     1      24.447   6.282  50.998  1.00  0.00     0.066 A 
HETATM   25  C14 UNL     1      24.026   4.986  51.312  1.00  0.00     0.050 A 
BRANCH  24  26
HETATM   26  O1  UNL     1      24.440   7.345  51.895  1.00  0.00    -0.361 OA
HETATM   27  H8  UNL     1      23.789   8.096  51.700  1.00  0.00     0.217 HD
ENDBRANCH  24  26
ENDBRANCH  13  20
BRANCH  10  28
HETATM   28  N4  UNL     1      25.501   0.714  53.837  1.00  0.00    -0.285 NA
HETATM   29  H3  UNL     1      26.055   0.844  54.694  1.00  0.00     0.125 HD
HETATM   30  H4  UNL     1      25.584   0.649  54.894  1.00  0.00     0.125 HD
ENDBRANCH  10  28
TORSDOF 5
ENDMDL
