MODEL 1
REMARK VINA RESULT:      -8.3      0.000      0.000
REMARK  1 active torsions:
REMARK  status: ('A' for Active; 'I' for Inactive)
REMARK    1  A    between atoms: C2_2  and  N1_3 
ROOT
HETATM    1  N1  UNL     1      26.244  -0.157  53.051  1.00  0.00    -0.339 N 
HETATM    2  C3  UNL     1      25.094  -0.663  53.892  1.00  0.00     0.306 C 
HETATM    3  O1  UNL     1      24.064   0.102  53.394  1.00  0.00    -0.301 OA
HETATM    4  C4  UNL     1      22.804   0.440  53.500  1.00  0.00     0.264 C 
HETATM    5  O2  UNL     1      22.229  -0.135  54.449  1.00  0.00    -0.265 OA
HETATM    6  C5  UNL     1      22.477   1.431  52.403  1.00  0.00     0.149 C 
HETATM    7  C6  UNL     1      23.614   2.372  52.115  1.00  0.00    -0.051 C 
HETATM    8  C7  UNL     1      24.439   2.130  53.079  1.00  0.00    -0.014 C 
HETATM    9  C8  UNL     1      25.301   1.811  54.169  1.00  0.00     0.086 C 
HETATM   10  C9  UNL     1      26.593   1.068  53.729  1.00  0.00     0.135 C 
HETATM   11  N2  UNL     1      27.260   0.654  54.930  1.00  0.00    -0.389 N 
HETATM   12  C10 UNL     1      28.674   0.575  54.888  1.00  0.00     0.144 C 
HETATM   13  C11 UNL     1      29.327   1.886  54.631  1.00  0.00    -0.007 C 
HETATM   14  C12 UNL     1      28.631   2.507  53.659  1.00  0.00     0.009 C 
HETATM   15  C13 UNL     1      27.426   1.978  52.964  1.00  0.00    -0.012 C 
HETATM   16  C14 UNL     1      27.339   2.462  51.720  1.00  0.00     0.011 C 
HETATM   17  C15 UNL     1      26.374   2.255  50.634  1.00  0.00     0.202 C 
HETATM   18  O3  UNL     1      25.785   3.563  50.383  1.00  0.00    -0.359 OA
HETATM   19  C16 UNL     1      24.406   3.499  50.004  1.00  0.00     0.135 C 
HETATM   20  C17 UNL     1      23.486   2.957  50.802  1.00  0.00     0.031 C 
HETATM   21  H11 UNL     1      26.840   0.927  55.816  1.00  0.00     0.156 HD
ENDROOT
BRANCH   1  22
HETATM   22  C2  UNL     1      26.635  -0.915  51.891  1.00  0.00     0.080 C 
HETATM   23  C1  UNL     1      26.954  -2.153  52.290  1.00  0.00     0.029 C 
ENDBRANCH   1  22
TORSDOF 1
ENDMDL
MODEL 2
REMARK VINA RESULT:      -7.5      3.319      6.164
REMARK  1 active torsions:
REMARK  status: ('A' for Active; 'I' for Inactive)
REMARK    1  A    between atoms: C2_2  and  N1_3 
ROOT
HETATM    1  N1  UNL     1      20.706   2.634  51.400  1.00  0.00    -0.339 N 
HETATM    2  C3  UNL     1      19.519   1.829  51.878  1.00  0.00     0.306 C 
HETATM    3  O1  UNL     1      20.153   0.878  52.645  1.00  0.00    -0.301 OA
HETATM    4  C4  UNL     1      20.029  -0.214  53.355  1.00  0.00     0.264 C 
HETATM    5  O2  UNL     1      18.854  -0.638  53.384  1.00  0.00    -0.265 OA
HETATM    6  C5  UNL     1      21.387  -0.585  53.911  1.00  0.00     0.149 C 
HETATM    7  C6  UNL     1      22.506  -0.288  52.952  1.00  0.00    -0.051 C 
HETATM    8  C7  UNL     1      21.880   0.007  51.862  1.00  0.00    -0.014 C 
HETATM    9  C8  UNL     1      21.123   0.323  50.695  1.00  0.00     0.086 C 
HETATM   10  C9  UNL     1      21.194   1.826  50.308  1.00  0.00     0.135 C 
HETATM   11  N2  UNL     1      20.251   2.024  49.245  1.00  0.00    -0.389 N 
HETATM   12  C10 UNL     1      20.550   3.031  48.296  1.00  0.00     0.144 C 
HETATM   13  C11 UNL     1      21.797   2.764  47.530  1.00  0.00    -0.007 C 
HETATM   14  C12 UNL     1      22.726   2.324  48.401  1.00  0.00     0.009 C 
HETATM   15  C13 UNL     1      22.541   2.139  49.867  1.00  0.00    -0.012 C 
HETATM   16  C14 UNL     1      23.697   2.302  50.520  1.00  0.00     0.011 C 
HETATM   17  C15 UNL     1      24.057   2.242  51.942  1.00  0.00     0.202 C 
HETATM   18  O3  UNL     1      25.010   1.146  52.055  1.00  0.00    -0.359 OA
HETATM   19  C16 UNL     1      24.901   0.426  53.287  1.00  0.00     0.135 C 
HETATM   20  C17 UNL     1      23.770  -0.185  53.641  1.00  0.00     0.031 C 
HETATM   21  H11 UNL     1      19.752   1.204  48.905  1.00  0.00     0.156 HD
ENDROOT
BRANCH   1  22
HETATM   22  C2  UNL     1      21.041   3.847  52.098  1.00  0.00     0.080 C 
HETATM   23  C1  UNL     1      20.869   4.874  51.256  1.00  0.00     0.029 C 
ENDBRANCH   1  22
TORSDOF 1
ENDMDL
MODEL 3
REMARK VINA RESULT:      -7.2      3.263      5.393
REMARK  1 active torsions:
REMARK  status: ('A' for Active; 'I' for Inactive)
REMARK    1  A    between atoms: C2_2  and  N1_3 
ROOT
HETATM    1  N1  UNL     1      23.028   4.169  50.987  1.00  0.00    -0.339 N 
HETATM    2  C3  UNL     1      21.790   4.315  50.131  1.00  0.00     0.306 C 
HETATM    3  O1  UNL     1      21.167   3.114  50.386  1.00  0.00    -0.301 OA
HETATM    4  C4  UNL     1      20.168   2.319  50.098  1.00  0.00     0.264 C 
HETATM    5  O2  UNL     1      19.425   2.782  49.207  1.00  0.00    -0.265 OA
HETATM    6  C5  UNL     1      20.264   1.088  50.973  1.00  0.00     0.149 C 
HETATM    7  C6  UNL     1      21.684   0.657  51.213  1.00  0.00    -0.051 C 
HETATM    8  C7  UNL     1      22.352   1.398  50.392  1.00  0.00    -0.014 C 
HETATM    9  C8  UNL     1      23.023   2.247  49.464  1.00  0.00     0.086 C 
HETATM   10  C9  UNL     1      23.874   3.352  50.150  1.00  0.00     0.135 C 
HETATM   11  N2  UNL     1      24.331   4.227  49.110  1.00  0.00    -0.389 N 
HETATM   12  C10 UNL     1      25.579   4.868  49.307  1.00  0.00     0.144 C 
HETATM   13  C11 UNL     1      26.717   3.915  49.404  1.00  0.00    -0.007 C 
HETATM   14  C12 UNL     1      26.326   2.887  50.183  1.00  0.00     0.009 C 
HETATM   15  C13 UNL     1      24.996   2.732  50.831  1.00  0.00    -0.012 C 
HETATM   16  C14 UNL     1      25.093   2.021  51.961  1.00  0.00     0.011 C 
HETATM   17  C15 UNL     1      24.107   1.600  52.964  1.00  0.00     0.202 C 
HETATM   18  O3  UNL     1      24.117   0.144  52.930  1.00  0.00    -0.359 OA
HETATM   19  C16 UNL     1      22.832  -0.437  53.173  1.00  0.00     0.135 C 
HETATM   20  C17 UNL     1      21.787  -0.173  52.389  1.00  0.00     0.031 C 
HETATM   21  H11 UNL     1      24.083   3.985  48.153  1.00  0.00     0.156 HD
ENDROOT
BRANCH   1  22
HETATM   22  C2  UNL     1      23.039   4.778  52.291  1.00  0.00     0.080 C 
HETATM   23  C1  UNL     1      23.611   5.984  52.183  1.00  0.00     0.029 C 
ENDBRANCH   1  22
TORSDOF 1
ENDMDL
MODEL 4
REMARK VINA RESULT:      -7.2      8.133      9.866
REMARK  1 active torsions:
REMARK  status: ('A' for Active; 'I' for Inactive)
REMARK    1  A    between atoms: C2_2  and  N1_3 
ROOT
HETATM    1  N1  UNL     1      32.335   5.570  46.930  1.00  0.00    -0.339 N 
HETATM    2  C3  UNL     1      31.214   4.655  47.370  1.00  0.00     0.306 C 
HETATM    3  O1  UNL     1      30.251   5.581  47.700  1.00  0.00    -0.301 OA
HETATM    4  C4  UNL     1      29.062   5.788  48.207  1.00  0.00     0.264 C 
HETATM    5  O2  UNL     1      28.510   4.732  48.586  1.00  0.00    -0.265 OA
HETATM    6  C5  UNL     1      28.765   7.271  48.151  1.00  0.00     0.149 C 
HETATM    7  C6  UNL     1      29.982   8.116  48.404  1.00  0.00    -0.051 C 
HETATM    8  C7  UNL     1      30.857   7.250  48.796  1.00  0.00    -0.014 C 
HETATM    9  C8  UNL     1      31.770   6.240  49.219  1.00  0.00     0.086 C 
HETATM   10  C9  UNL     1      32.905   5.972  48.193  1.00  0.00     0.135 C 
HETATM   11  N2  UNL     1      33.624   4.823  48.662  1.00  0.00    -0.389 N 
HETATM   12  C10 UNL     1      35.004   4.754  48.353  1.00  0.00     0.144 C 
HETATM   13  C11 UNL     1      35.797   5.858  48.957  1.00  0.00    -0.007 C 
HETATM   14  C12 UNL     1      35.099   6.999  48.797  1.00  0.00     0.009 C 
HETATM   15  C13 UNL     1      33.774   7.134  48.132  1.00  0.00    -0.012 C 
HETATM   16  C14 UNL     1      33.632   8.347  47.587  1.00  0.00     0.011 C 
HETATM   17  C15 UNL     1      32.549   8.978  46.824  1.00  0.00     0.202 C 
HETATM   18  O3  UNL     1      32.115  10.111  47.630  1.00  0.00    -0.359 OA
HETATM   19  C16 UNL     1      30.710  10.368  47.536  1.00  0.00     0.135 C 
HETATM   20  C17 UNL     1      29.808   9.451  47.884  1.00  0.00     0.031 C 
HETATM   21  H11 UNL     1      33.330   4.418  49.549  1.00  0.00     0.156 HD
ENDROOT
BRANCH   1  22
HETATM   22  C2  UNL     1      32.510   5.816  45.522  1.00  0.00     0.080 C 
HETATM   23  C1  UNL     1      33.163   4.772  44.995  1.00  0.00     0.029 C 
ENDBRANCH   1  22
TORSDOF 1
ENDMDL
MODEL 5
REMARK VINA RESULT:      -7.0      3.302      5.803
REMARK  1 active torsions:
REMARK  status: ('A' for Active; 'I' for Inactive)
REMARK    1  A    between atoms: C2_2  and  N1_3 
ROOT
HETATM    1  N1  UNL     1      22.296   3.419  51.192  1.00  0.00    -0.339 N 
HETATM    2  C3  UNL     1      21.718   3.792  49.845  1.00  0.00     0.306 C 
HETATM    3  O1  UNL     1      20.661   2.914  49.774  1.00  0.00    -0.301 OA
HETATM    4  C4  UNL     1      19.685   2.435  49.046  1.00  0.00     0.264 C 
HETATM    5  O2  UNL     1      19.643   2.942  47.904  1.00  0.00    -0.265 OA
HETATM    6  C5  UNL     1      18.927   1.414  49.865  1.00  0.00     0.149 C 
HETATM    7  C6  UNL     1      19.826   0.608  50.762  1.00  0.00    -0.051 C 
HETATM    8  C7  UNL     1      21.007   0.942  50.359  1.00  0.00    -0.014 C 
HETATM    9  C8  UNL     1      22.278   1.358  49.865  1.00  0.00     0.086 C 
HETATM   10  C9  UNL     1      23.067   2.242  50.870  1.00  0.00     0.135 C 
HETATM   11  N2  UNL     1      24.222   2.729  50.174  1.00  0.00    -0.389 N 
HETATM   12  C10 UNL     1      25.386   2.969  50.944  1.00  0.00     0.144 C 
HETATM   13  C11 UNL     1      25.930   1.740  51.582  1.00  0.00    -0.007 C 
HETATM   14  C12 UNL     1      24.890   1.044  52.082  1.00  0.00     0.009 C 
HETATM   15  C13 UNL     1      23.455   1.432  52.011  1.00  0.00    -0.012 C 
HETATM   16  C14 UNL     1      22.774   0.941  53.051  1.00  0.00     0.011 C 
HETATM   17  C15 UNL     1      21.366   1.037  53.458  1.00  0.00     0.202 C 
HETATM   18  O3  UNL     1      20.863  -0.330  53.440  1.00  0.00    -0.359 OA
HETATM   19  C16 UNL     1      19.493  -0.424  53.037  1.00  0.00     0.135 C 
HETATM   20  C17 UNL     1      19.084   0.011  51.846  1.00  0.00     0.031 C 
HETATM   21  H11 UNL     1      24.360   2.410  49.217  1.00  0.00     0.156 HD
ENDROOT
BRANCH   1  22
HETATM   22  C2  UNL     1      21.942   4.216  52.337  1.00  0.00     0.080 C 
HETATM   23  C1  UNL     1      22.952   5.059  52.587  1.00  0.00     0.029 C 
ENDBRANCH   1  22
TORSDOF 1
ENDMDL
MODEL 6
REMARK VINA RESULT:      -7.0      9.652     11.526
REMARK  1 active torsions:
REMARK  status: ('A' for Active; 'I' for Inactive)
REMARK    1  A    between atoms: C2_2  and  N1_3 
ROOT
HETATM    1  N1  UNL     1      33.438   6.995  47.707  1.00  0.00    -0.339 N 
HETATM    2  C3  UNL     1      34.038   5.864  48.511  1.00  0.00     0.306 C 
HETATM    3  O1  UNL     1      34.337   4.973  47.506  1.00  0.00    -0.301 OA
HETATM    4  C4  UNL     1      34.772   3.778  47.199  1.00  0.00     0.264 C 
HETATM    5  O2  UNL     1      35.042   3.090  48.207  1.00  0.00    -0.265 OA
HETATM    6  C5  UNL     1      34.802   3.647  45.691  1.00  0.00     0.149 C 
HETATM    7  C6  UNL     1      33.656   4.358  45.026  1.00  0.00    -0.051 C 
HETATM    8  C7  UNL     1      32.899   4.679  46.023  1.00  0.00    -0.014 C 
HETATM    9  C8  UNL     1      32.115   5.002  47.169  1.00  0.00     0.086 C 
HETATM   10  C9  UNL     1      32.092   6.523  47.486  1.00  0.00     0.135 C 
HETATM   11  N2  UNL     1      31.431   6.672  48.750  1.00  0.00    -0.389 N 
HETATM   12  C10 UNL     1      30.703   7.868  48.961  1.00  0.00     0.144 C 
HETATM   13  C11 UNL     1      29.566   8.037  48.018  1.00  0.00    -0.007 C 
HETATM   14  C12 UNL     1      29.996   7.685  46.790  1.00  0.00     0.009 C 
HETATM   15  C13 UNL     1      31.363   7.215  46.438  1.00  0.00    -0.012 C 
HETATM   16  C14 UNL     1      31.668   7.531  45.175  1.00  0.00     0.011 C 
HETATM   17  C15 UNL     1      32.866   7.316  44.353  1.00  0.00     0.202 C 
HETATM   18  O3  UNL     1      32.432   6.473  43.248  1.00  0.00    -0.359 OA
HETATM   19  C16 UNL     1      33.434   5.547  42.815  1.00  0.00     0.135 C 
HETATM   20  C17 UNL     1      33.948   4.636  43.641  1.00  0.00     0.031 C 
HETATM   21  H11 UNL     1      31.068   5.829  49.190  1.00  0.00     0.156 HD
ENDROOT
BRANCH   1  22
HETATM   22  C2  UNL     1      34.275   8.116  47.366  1.00  0.00     0.080 C 
HETATM   23  C1  UNL     1      35.316   8.130  48.207  1.00  0.00     0.029 C 
ENDBRANCH   1  22
TORSDOF 1
ENDMDL
MODEL 7
REMARK VINA RESULT:      -7.0      2.872      5.684
REMARK  1 active torsions:
REMARK  status: ('A' for Active; 'I' for Inactive)
REMARK    1  A    between atoms: C2_2  and  N1_3 
ROOT
HETATM    1  N1  UNL     1      23.540   2.865  50.216  1.00  0.00    -0.339 N 
HETATM    2  C3  UNL     1      24.997   2.493  50.371  1.00  0.00     0.306 C 
HETATM    3  O1  UNL     1      24.915   1.579  51.396  1.00  0.00    -0.301 OA
HETATM    4  C4  UNL     1      25.568   0.811  52.231  1.00  0.00     0.264 C 
HETATM    5  O2  UNL     1      26.808   0.910  52.106  1.00  0.00    -0.265 OA
HETATM    6  C5  UNL     1      24.566   0.050  53.071  1.00  0.00     0.149 C 
HETATM    7  C6  UNL     1      23.349   0.868  53.404  1.00  0.00    -0.051 C 
HETATM    8  C7  UNL     1      23.682   2.052  53.011  1.00  0.00    -0.014 C 
HETATM    9  C8  UNL     1      24.117   3.331  52.553  1.00  0.00     0.086 C 
HETATM   10  C9  UNL     1      23.360   3.817  51.286  1.00  0.00     0.135 C 
HETATM   11  N2  UNL     1      24.021   5.010  50.842  1.00  0.00    -0.389 N 
HETATM   12  C10 UNL     1      23.227   5.982  50.187  1.00  0.00     0.144 C 
HETATM   13  C11 UNL     1      22.160   6.549  51.055  1.00  0.00    -0.007 C 
HETATM   14  C12 UNL     1      21.600   5.530  51.735  1.00  0.00     0.009 C 
HETATM   15  C13 UNL     1      21.978   4.094  51.636  1.00  0.00    -0.012 C 
HETATM   16  C14 UNL     1      20.931   3.304  51.900  1.00  0.00     0.011 C 
HETATM   17  C15 UNL     1      20.763   1.845  51.927  1.00  0.00     0.202 C 
HETATM   18  O3  UNL     1      20.401   1.522  53.300  1.00  0.00    -0.359 OA
HETATM   19  C16 UNL     1      20.925   0.266  53.743  1.00  0.00     0.135 C 
HETATM   20  C17 UNL     1      22.235   0.024  53.764  1.00  0.00     0.031 C 
HETATM   21  H11 UNL     1      24.796   5.352  51.406  1.00  0.00     0.156 HD
ENDROOT
BRANCH   1  22
HETATM   22  C2  UNL     1      22.771   2.221  49.184  1.00  0.00     0.080 C 
HETATM   23  C1  UNL     1      22.671   3.066  48.150  1.00  0.00     0.029 C 
ENDBRANCH   1  22
TORSDOF 1
ENDMDL
MODEL 8
REMARK VINA RESULT:      -6.8      7.494     10.302
REMARK  1 active torsions:
REMARK  status: ('A' for Active; 'I' for Inactive)
REMARK    1  A    between atoms: C2_2  and  N1_3 
ROOT
HETATM    1  N1  UNL     1      27.719   8.774  46.918  1.00  0.00    -0.339 N 
HETATM    2  C3  UNL     1      27.655  10.257  47.204  1.00  0.00     0.306 C 
HETATM    3  O1  UNL     1      28.825  10.428  47.908  1.00  0.00    -0.301 OA
HETATM    4  C4  UNL     1      29.576  11.249  48.595  1.00  0.00     0.264 C 
HETATM    5  O2  UNL     1      29.067  12.385  48.711  1.00  0.00    -0.265 OA
HETATM    6  C5  UNL     1      30.833  10.518  49.015  1.00  0.00     0.149 C 
HETATM    7  C6  UNL     1      30.577   9.075  49.353  1.00  0.00    -0.051 C 
HETATM    8  C7  UNL     1      29.287   9.006  49.363  1.00  0.00    -0.014 C 
HETATM    9  C8  UNL     1      27.862   9.004  49.355  1.00  0.00     0.086 C 
HETATM   10  C9  UNL     1      27.258   8.209  48.164  1.00  0.00     0.135 C 
HETATM   11  N2  UNL     1      25.844   8.449  48.182  1.00  0.00    -0.389 N 
HETATM   12  C10 UNL     1      25.007   7.413  47.698  1.00  0.00     0.144 C 
HETATM   13  C11 UNL     1      25.100   6.163  48.499  1.00  0.00    -0.007 C 
HETATM   14  C12 UNL     1      26.402   5.944  48.769  1.00  0.00     0.009 C 
HETATM   15  C13 UNL     1      27.544   6.797  48.341  1.00  0.00    -0.012 C 
HETATM   16  C14 UNL     1      28.658   6.071  48.200  1.00  0.00     0.011 C 
HETATM   17  C15 UNL     1      30.028   6.412  47.795  1.00  0.00     0.202 C 
HETATM   18  O3  UNL     1      30.862   6.095  48.945  1.00  0.00    -0.359 OA
HETATM   19  C16 UNL     1      31.969   6.988  49.105  1.00  0.00     0.135 C 
HETATM   20  C17 UNL     1      31.791   8.298  49.276  1.00  0.00     0.031 C 
HETATM   21  H11 UNL     1      25.476   9.022  48.939  1.00  0.00     0.156 HD
ENDROOT
BRANCH   1  22
HETATM   22  C2  UNL     1      28.208   8.341  45.635  1.00  0.00     0.080 C 
HETATM   23  C1  UNL     1      27.252   8.571  44.726  1.00  0.00     0.029 C 
ENDBRANCH   1  22
TORSDOF 1
ENDMDL
MODEL 9
REMARK VINA RESULT:      -6.5      3.857      6.604
REMARK  1 active torsions:
REMARK  status: ('A' for Active; 'I' for Inactive)
REMARK    1  A    between atoms: C2_2  and  N1_3 
ROOT
HETATM    1  N1  UNL     1      22.130   2.104  50.081  1.00  0.00    -0.339 N 
HETATM    2  C3  UNL     1      23.434   1.908  50.821  1.00  0.00     0.306 C 
HETATM    3  O1  UNL     1      23.026   1.064  51.828  1.00  0.00    -0.301 OA
HETATM    4  C4  UNL     1      23.356   0.434  52.927  1.00  0.00     0.264 C 
HETATM    5  O2  UNL     1      24.534   0.662  53.277  1.00  0.00    -0.265 OA
HETATM    6  C5  UNL     1      22.165  -0.373  53.396  1.00  0.00     0.149 C 
HETATM    7  C6  UNL     1      20.857   0.325  53.148  1.00  0.00    -0.051 C 
HETATM    8  C7  UNL     1      21.228   1.509  52.787  1.00  0.00    -0.014 C 
HETATM    9  C8  UNL     1      21.709   2.793  52.396  1.00  0.00     0.086 C 
HETATM   10  C9  UNL     1      21.474   3.103  50.892  1.00  0.00     0.135 C 
HETATM   11  N2  UNL     1      22.165   4.327  50.609  1.00  0.00    -0.389 N 
HETATM   12  C10 UNL     1      21.620   5.158  49.599  1.00  0.00     0.144 C 
HETATM   13  C11 UNL     1      20.260   5.662  49.926  1.00  0.00    -0.007 C 
HETATM   14  C12 UNL     1      19.557   4.636  50.445  1.00  0.00     0.009 C 
HETATM   15  C13 UNL     1      20.050   3.247  50.653  1.00  0.00    -0.012 C 
HETATM   16  C14 UNL     1      19.046   2.366  50.579  1.00  0.00     0.011 C 
HETATM   17  C15 UNL     1      18.991   0.904  50.697  1.00  0.00     0.202 C 
HETATM   18  O3  UNL     1      18.145   0.638  51.852  1.00  0.00    -0.359 OA
HETATM   19  C16 UNL     1      18.547  -0.517  52.594  1.00  0.00     0.135 C 
HETATM   20  C17 UNL     1      19.759  -0.610  53.141  1.00  0.00     0.031 C 
HETATM   21  H11 UNL     1      22.630   4.792  51.386  1.00  0.00     0.156 HD
ENDROOT
BRANCH   1  22
HETATM   22  C2  UNL     1      21.878   1.308  48.908  1.00  0.00     0.080 C 
HETATM   23  C1  UNL     1      22.284   2.003  47.838  1.00  0.00     0.029 C 
ENDBRANCH   1  22
TORSDOF 1
ENDMDL
