MODEL 1
REMARK VINA RESULT:      -8.3      0.000      0.000
REMARK  2 active torsions:
REMARK  status: ('A' for Active; 'I' for Inactive)
REMARK    1  A    between atoms: C2_2  and  S1_3 
REMARK    2  A    between atoms: S1_3  and  C3_5 
ROOT
HETATM    1  C3  UNL     1      26.600   0.714  53.966  1.00  0.00     0.124 C 
HETATM    2  C4  UNL     1      25.760  -0.104  53.307  1.00  0.00     0.031 C 
HETATM    3  C5  UNL     1      24.554   0.444  52.729  1.00  0.00     0.101 C 
HETATM    4  C6  UNL     1      24.517   1.937  52.728  1.00  0.00     0.065 C 
HETATM    5  N1  UNL     1      23.656   2.669  52.047  1.00  0.00    -0.244 NA
HETATM    6  C7  UNL     1      22.600   2.158  51.184  1.00  0.00     0.234 C 
HETATM    7  N2  UNL     1      21.865   1.074  51.369  1.00  0.00    -0.242 NA
HETATM    8  C8  UNL     1      22.067   0.242  52.541  1.00  0.00     0.067 A 
HETATM    9  C9  UNL     1      20.857  -0.277  53.025  1.00  0.00     0.032 A 
HETATM   10  C10 UNL     1      20.764  -1.071  54.146  1.00  0.00     0.004 A 
HETATM   11  C11 UNL     1      21.951  -1.341  54.787  1.00  0.00     0.020 A 
HETATM   12  C12 UNL     1      23.119  -0.840  54.319  1.00  0.00     0.020 A 
HETATM   13 BR1  UNL     1      24.689  -1.243  55.313  1.00  0.00    -0.050 Br
HETATM   14  C13 UNL     1      23.269  -0.047  53.209  1.00  0.00     0.002 A 
HETATM   15  C14 UNL     1      25.458   2.757  53.477  1.00  0.00     0.146 C 
HETATM   16  N3  UNL     1      26.441   2.135  54.049  1.00  0.00    -0.249 NA
ENDROOT
BRANCH   1  17
HETATM   17  S1  UNL     1      28.114   0.220  54.746  1.00  0.00     0.092 S 
HETATM   18  O1  UNL     1      28.996   1.416  55.055  1.00  0.00    -0.247 OA
BRANCH  17  19
HETATM   19  C2  UNL     1      28.983  -0.967  53.725  1.00  0.00     0.075 C 
HETATM   20  C1  UNL     1      29.972  -0.071  53.526  1.00  0.00     0.021 C 
ENDBRANCH  17  19
ENDBRANCH   1  17
TORSDOF 2
ENDMDL
MODEL 2
REMARK VINA RESULT:      -7.6      2.028      3.674
REMARK  2 active torsions:
REMARK  status: ('A' for Active; 'I' for Inactive)
REMARK    1  A    between atoms: C2_2  and  S1_3 
REMARK    2  A    between atoms: S1_3  and  C3_5 
ROOT
HETATM    1  C3  UNL     1      25.969   0.706  53.806  1.00  0.00     0.124 C 
HETATM    2  C4  UNL     1      25.470   1.921  53.516  1.00  0.00     0.031 C 
HETATM    3  C5  UNL     1      24.118   2.027  53.020  1.00  0.00     0.101 C 
HETATM    4  C6  UNL     1      23.340   0.757  53.129  1.00  0.00     0.065 C 
HETATM    5  N1  UNL     1      22.033   0.657  52.979  1.00  0.00    -0.244 NA
HETATM    6  C7  UNL     1      21.125   1.757  52.683  1.00  0.00     0.234 C 
HETATM    7  N2  UNL     1      21.354   2.802  51.907  1.00  0.00    -0.242 NA
HETATM    8  C8  UNL     1      22.631   2.948  51.231  1.00  0.00     0.067 A 
HETATM    9  C9  UNL     1      22.481   3.505  49.952  1.00  0.00     0.032 A 
HETATM   10  C10 UNL     1      23.532   3.720  49.088  1.00  0.00     0.004 A 
HETATM   11  C11 UNL     1      24.773   3.352  49.555  1.00  0.00     0.020 A 
HETATM   12  C12 UNL     1      24.916   2.816  50.789  1.00  0.00     0.020 A 
HETATM   13 BR1  UNL     1      26.673   2.305  51.308  1.00  0.00    -0.050 Br
HETATM   14  C13 UNL     1      23.907   2.582  51.689  1.00  0.00     0.002 A 
HETATM   15  C14 UNL     1      23.952  -0.527  53.439  1.00  0.00     0.146 C 
HETATM   16  N3  UNL     1      25.207  -0.508  53.761  1.00  0.00    -0.249 NA
ENDROOT
BRANCH   1  17
HETATM   17  S1  UNL     1      27.603   0.382  54.411  1.00  0.00     0.092 S 
HETATM   18  O1  UNL     1      28.415   1.658  54.532  1.00  0.00    -0.247 OA
BRANCH  17  19
HETATM   19  C2  UNL     1      28.433  -0.806  53.359  1.00  0.00     0.075 C 
HETATM   20  C1  UNL     1      29.622  -0.249  53.669  1.00  0.00     0.021 C 
ENDBRANCH  17  19
ENDBRANCH   1  17
TORSDOF 2
ENDMDL
MODEL 3
REMARK VINA RESULT:      -7.5      0.984      1.075
REMARK  2 active torsions:
REMARK  status: ('A' for Active; 'I' for Inactive)
REMARK    1  A    between atoms: C2_2  and  S1_3 
REMARK    2  A    between atoms: S1_3  and  C3_5 
ROOT
HETATM    1  C3  UNL     1      25.662   1.018  53.549  1.00  0.00     0.124 C 
HETATM    2  C4  UNL     1      24.827   0.239  52.838  1.00  0.00     0.031 C 
HETATM    3  C5  UNL     1      23.614   0.812  52.303  1.00  0.00     0.101 C 
HETATM    4  C6  UNL     1      23.561   2.302  52.404  1.00  0.00     0.065 C 
HETATM    5  N1  UNL     1      22.691   3.070  51.778  1.00  0.00    -0.244 NA
HETATM    6  C7  UNL     1      21.636   2.607  50.885  1.00  0.00     0.234 C 
HETATM    7  N2  UNL     1      20.913   1.506  50.998  1.00  0.00    -0.242 NA
HETATM    8  C8  UNL     1      21.128   0.598  52.110  1.00  0.00     0.067 A 
HETATM    9  C9  UNL     1      19.925   0.035  52.561  1.00  0.00     0.032 A 
HETATM   10  C10 UNL     1      19.845  -0.835  53.625  1.00  0.00     0.004 A 
HETATM   11  C11 UNL     1      21.037  -1.135  54.242  1.00  0.00     0.020 A 
HETATM   12  C12 UNL     1      22.198  -0.592  53.806  1.00  0.00     0.020 A 
HETATM   13 BR1  UNL     1      23.776  -1.046  54.765  1.00  0.00    -0.050 Br
HETATM   14  C13 UNL     1      22.336   0.276  52.753  1.00  0.00     0.002 A 
HETATM   15  C14 UNL     1      24.498   3.078  53.203  1.00  0.00     0.146 C 
HETATM   16  N3  UNL     1      25.488   2.429  53.729  1.00  0.00    -0.249 NA
ENDROOT
BRANCH   1  17
HETATM   17  S1  UNL     1      27.184   0.489  54.288  1.00  0.00     0.092 S 
HETATM   18  O1  UNL     1      28.113   1.660  54.550  1.00  0.00    -0.247 OA
BRANCH  17  19
HETATM   19  C2  UNL     1      27.982  -0.741  53.259  1.00  0.00     0.075 C 
HETATM   20  C1  UNL     1      29.172  -0.430  53.813  1.00  0.00     0.021 C 
ENDBRANCH  17  19
ENDBRANCH   1  17
TORSDOF 2
ENDMDL
MODEL 4
REMARK VINA RESULT:      -7.3      3.269      3.854
REMARK  2 active torsions:
REMARK  status: ('A' for Active; 'I' for Inactive)
REMARK    1  A    between atoms: C2_2  and  S1_3 
REMARK    2  A    between atoms: S1_3  and  C3_5 
ROOT
HETATM    1  C3  UNL     1      24.402   2.993  50.815  1.00  0.00     0.124 C 
HETATM    2  C4  UNL     1      23.706   1.843  50.776  1.00  0.00     0.031 C 
HETATM    3  C5  UNL     1      22.384   1.799  51.359  1.00  0.00     0.101 C 
HETATM    4  C6  UNL     1      21.847   3.145  51.722  1.00  0.00     0.065 C 
HETATM    5  N1  UNL     1      20.591   3.397  52.034  1.00  0.00    -0.244 NA
HETATM    6  C7  UNL     1      19.513   2.417  52.079  1.00  0.00     0.234 C 
HETATM    7  N2  UNL     1      19.588   1.158  52.475  1.00  0.00    -0.242 NA
HETATM    8  C8  UNL     1      20.850   0.607  52.935  1.00  0.00     0.067 A 
HETATM    9  C9  UNL     1      20.668  -0.294  53.994  1.00  0.00     0.032 A 
HETATM   10  C10 UNL     1      21.706  -0.934  54.635  1.00  0.00     0.004 A 
HETATM   11  C11 UNL     1      22.967  -0.638  54.171  1.00  0.00     0.020 A 
HETATM   12  C12 UNL     1      23.141   0.231  53.149  1.00  0.00     0.020 A 
HETATM   13 BR1  UNL     1      24.932   0.596  52.624  1.00  0.00    -0.050 Br
HETATM   14  C13 UNL     1      22.146   0.894  52.475  1.00  0.00     0.002 A 
HETATM   15  C14 UNL     1      22.668   4.348  51.751  1.00  0.00     0.146 C 
HETATM   16  N3  UNL     1      23.879   4.234  51.305  1.00  0.00    -0.249 NA
ENDROOT
BRANCH   1  17
HETATM   17  S1  UNL     1      26.034   3.230  50.165  1.00  0.00     0.092 S 
HETATM   18  O1  UNL     1      27.098   2.898  51.196  1.00  0.00    -0.247 OA
BRANCH  17  19
HETATM   19  C2  UNL     1      26.228   4.906  49.564  1.00  0.00     0.075 C 
HETATM   20  C1  UNL     1      27.313   4.526  48.858  1.00  0.00     0.021 C 
ENDBRANCH  17  19
ENDBRANCH   1  17
TORSDOF 2
ENDMDL
MODEL 5
REMARK VINA RESULT:      -7.1      3.665      5.733
REMARK  2 active torsions:
REMARK  status: ('A' for Active; 'I' for Inactive)
REMARK    1  A    between atoms: C2_2  and  S1_3 
REMARK    2  A    between atoms: S1_3  and  C3_5 
ROOT
HETATM    1  C3  UNL     1      23.978   3.532  50.656  1.00  0.00     0.124 C 
HETATM    2  C4  UNL     1      24.020   3.339  51.987  1.00  0.00     0.031 C 
HETATM    3  C5  UNL     1      25.211   2.774  52.579  1.00  0.00     0.101 C 
HETATM    4  C6  UNL     1      26.369   2.701  51.638  1.00  0.00     0.065 C 
HETATM    5  N1  UNL     1      27.616   2.461  51.994  1.00  0.00    -0.244 NA
HETATM    6  C7  UNL     1      28.081   2.225  53.355  1.00  0.00     0.234 C 
HETATM    7  N2  UNL     1      27.451   1.578  54.319  1.00  0.00    -0.242 NA
HETATM    8  C8  UNL     1      26.140   1.001  54.080  1.00  0.00     0.067 A 
HETATM    9  C9  UNL     1      25.979  -0.220  54.752  1.00  0.00     0.032 A 
HETATM   10  C10 UNL     1      24.840  -0.989  54.668  1.00  0.00     0.004 A 
HETATM   11  C11 UNL     1      23.838  -0.488  53.871  1.00  0.00     0.020 A 
HETATM   12  C12 UNL     1      23.993   0.691  53.223  1.00  0.00     0.020 A 
HETATM   13 BR1  UNL     1      22.558   1.261  52.115  1.00  0.00    -0.050 Br
HETATM   14  C13 UNL     1      25.103   1.497  53.273  1.00  0.00     0.002 A 
HETATM   15  C14 UNL     1      26.243   2.914  50.203  1.00  0.00     0.146 C 
HETATM   16  N3  UNL     1      25.087   3.314  49.776  1.00  0.00    -0.249 NA
ENDROOT
BRANCH   1  17
HETATM   17  S1  UNL     1      22.604   4.200  49.757  1.00  0.00     0.092 S 
HETATM   18  O1  UNL     1      23.055   4.891  48.483  1.00  0.00    -0.247 OA
BRANCH  17  19
HETATM   19  C2  UNL     1      21.667   5.321  50.794  1.00  0.00     0.075 C 
HETATM   20  C1  UNL     1      20.635   4.452  50.798  1.00  0.00     0.021 C 
ENDBRANCH  17  19
ENDBRANCH   1  17
TORSDOF 2
ENDMDL
MODEL 6
REMARK VINA RESULT:      -6.9      3.330      4.858
REMARK  2 active torsions:
REMARK  status: ('A' for Active; 'I' for Inactive)
REMARK    1  A    between atoms: C2_2  and  S1_3 
REMARK    2  A    between atoms: S1_3  and  C3_5 
ROOT
HETATM    1  C3  UNL     1      25.025   3.425  51.205  1.00  0.00     0.124 C 
HETATM    2  C4  UNL     1      24.431   3.068  52.358  1.00  0.00     0.031 C 
HETATM    3  C5  UNL     1      24.877   1.875  53.041  1.00  0.00     0.101 C 
HETATM    4  C6  UNL     1      26.144   1.309  52.488  1.00  0.00     0.065 C 
HETATM    5  N1  UNL     1      26.878   0.385  53.078  1.00  0.00    -0.244 NA
HETATM    6  C7  UNL     1      26.588  -0.240  54.361  1.00  0.00     0.234 C 
HETATM    7  N2  UNL     1      25.402  -0.561  54.849  1.00  0.00    -0.242 NA
HETATM    8  C8  UNL     1      24.197  -0.296  54.083  1.00  0.00     0.067 A 
HETATM    9  C9  UNL     1      23.241  -1.308  54.251  1.00  0.00     0.032 A 
HETATM   10  C10 UNL     1      22.023  -1.317  53.610  1.00  0.00     0.004 A 
HETATM   11  C11 UNL     1      21.780  -0.252  52.773  1.00  0.00     0.020 A 
HETATM   12  C12 UNL     1      22.703   0.725  52.612  1.00  0.00     0.020 A 
HETATM   13 BR1  UNL     1      22.274   2.123  51.396  1.00  0.00    -0.050 Br
HETATM   14  C13 UNL     1      23.929   0.785  53.225  1.00  0.00     0.002 A 
HETATM   15  C14 UNL     1      26.723   1.741  51.224  1.00  0.00     0.146 C 
HETATM   16  N3  UNL     1      26.162   2.756  50.646  1.00  0.00    -0.249 NA
ENDROOT
BRANCH   1  17
HETATM   17  S1  UNL     1      24.606   4.842  50.228  1.00  0.00     0.092 S 
HETATM   18  O1  UNL     1      25.826   5.695  49.931  1.00  0.00    -0.247 OA
BRANCH  17  19
HETATM   19  C2  UNL     1      23.335   5.807  51.043  1.00  0.00     0.075 C 
HETATM   20  C1  UNL     1      24.223   6.803  51.244  1.00  0.00     0.021 C 
ENDBRANCH  17  19
ENDBRANCH   1  17
TORSDOF 2
ENDMDL
MODEL 7
REMARK VINA RESULT:      -6.8      3.509      6.041
REMARK  2 active torsions:
REMARK  status: ('A' for Active; 'I' for Inactive)
REMARK    1  A    between atoms: C2_2  and  S1_3 
REMARK    2  A    between atoms: S1_3  and  C3_5 
ROOT
HETATM    1  C3  UNL     1      21.264   1.180  51.916  1.00  0.00     0.124 C 
HETATM    2  C4  UNL     1      22.303   1.551  52.685  1.00  0.00     0.031 C 
HETATM    3  C5  UNL     1      23.530   1.976  52.053  1.00  0.00     0.101 C 
HETATM    4  C6  UNL     1      23.401   2.188  50.579  1.00  0.00     0.065 C 
HETATM    5  N1  UNL     1      24.292   2.802  49.824  1.00  0.00    -0.244 NA
HETATM    6  C7  UNL     1      25.547   3.377  50.288  1.00  0.00     0.234 C 
HETATM    7  N2  UNL     1      26.347   2.908  51.230  1.00  0.00    -0.242 NA
HETATM    8  C8  UNL     1      26.012   1.683  51.934  1.00  0.00     0.067 A 
HETATM    9  C9  UNL     1      27.154   0.919  52.219  1.00  0.00     0.032 A 
HETATM   10  C10 UNL     1      27.112  -0.303  52.852  1.00  0.00     0.004 A 
HETATM   11  C11 UNL     1      25.860  -0.753  53.201  1.00  0.00     0.020 A 
HETATM   12  C12 UNL     1      24.759  -0.015  52.925  1.00  0.00     0.020 A 
HETATM   13 BR1  UNL     1      23.078  -0.759  53.415  1.00  0.00    -0.050 Br
HETATM   14  C13 UNL     1      24.742   1.207  52.301  1.00  0.00     0.002 A 
HETATM   15  C14 UNL     1      22.245   1.748  49.811  1.00  0.00     0.146 C 
HETATM   16  N3  UNL     1      21.245   1.277  50.487  1.00  0.00    -0.249 NA
ENDROOT
BRANCH   1  17
HETATM   17  S1  UNL     1      19.690   0.622  52.513  1.00  0.00     0.092 S 
HETATM   18  O1  UNL     1      19.840  -0.556  53.459  1.00  0.00    -0.247 OA
BRANCH  17  19
HETATM   19  C2  UNL     1      18.616   0.206  51.142  1.00  0.00     0.075 C 
HETATM   20  C1  UNL     1      17.900  -0.603  51.950  1.00  0.00     0.021 C 
ENDBRANCH  17  19
ENDBRANCH   1  17
TORSDOF 2
ENDMDL
MODEL 8
REMARK VINA RESULT:      -6.7      3.803      5.738
REMARK  2 active torsions:
REMARK  status: ('A' for Active; 'I' for Inactive)
REMARK    1  A    between atoms: C2_2  and  S1_3 
REMARK    2  A    between atoms: S1_3  and  C3_5 
ROOT
HETATM    1  C3  UNL     1      21.703   2.516  50.664  1.00  0.00     0.124 C 
HETATM    2  C4  UNL     1      22.350   1.344  50.793  1.00  0.00     0.031 C 
HETATM    3  C5  UNL     1      22.190   0.582  52.010  1.00  0.00     0.101 C 
HETATM    4  C6  UNL     1      21.100   1.092  52.895  1.00  0.00     0.065 C 
HETATM    5  N1  UNL     1      20.597   0.439  53.925  1.00  0.00    -0.244 NA
HETATM    6  C7  UNL     1      21.010  -0.883  54.378  1.00  0.00     0.234 C 
HETATM    7  N2  UNL     1      22.232  -1.387  54.377  1.00  0.00    -0.242 NA
HETATM    8  C8  UNL     1      23.350  -0.600  53.886  1.00  0.00     0.067 A 
HETATM    9  C9  UNL     1      24.516  -0.832  54.631  1.00  0.00     0.032 A 
HETATM   10  C10 UNL     1      25.710  -0.189  54.393  1.00  0.00     0.004 A 
HETATM   11  C11 UNL     1      25.705   0.717  53.358  1.00  0.00     0.020 A 
HETATM   12  C12 UNL     1      24.580   0.940  52.640  1.00  0.00     0.020 A 
HETATM   13 BR1  UNL     1      24.681   2.248  51.263  1.00  0.00    -0.050 Br
HETATM   14  C13 UNL     1      23.366   0.328  52.831  1.00  0.00     0.002 A 
HETATM   15  C14 UNL     1      20.451   2.380  52.696  1.00  0.00     0.146 C 
HETATM   16  N3  UNL     1      20.763   3.026  51.617  1.00  0.00    -0.249 NA
ENDROOT
BRANCH   1  17
HETATM   17  S1  UNL     1      21.789   3.588  49.254  1.00  0.00     0.092 S 
HETATM   18  O1  UNL     1      22.560   2.947  48.114  1.00  0.00    -0.247 OA
BRANCH  17  19
HETATM   19  C2  UNL     1      22.513   5.161  49.711  1.00  0.00     0.075 C 
HETATM   20  C1  UNL     1      23.492   4.972  48.801  1.00  0.00     0.021 C 
ENDBRANCH  17  19
ENDBRANCH   1  17
TORSDOF 2
ENDMDL
MODEL 9
REMARK VINA RESULT:      -6.4     19.405     21.697
REMARK  2 active torsions:
REMARK  status: ('A' for Active; 'I' for Inactive)
REMARK    1  A    between atoms: C2_2  and  S1_3 
REMARK    2  A    between atoms: S1_3  and  C3_5 
ROOT
HETATM    1  C3  UNL     1      41.220   0.846  68.551  1.00  0.00     0.124 C 
HETATM    2  C4  UNL     1      41.304  -0.120  67.619  1.00  0.00     0.031 C 
HETATM    3  C5  UNL     1      40.127  -0.891  67.295  1.00  0.00     0.101 C 
HETATM    4  C6  UNL     1      38.869  -0.335  67.878  1.00  0.00     0.065 C 
HETATM    5  N1  UNL     1      37.650  -0.703  67.534  1.00  0.00    -0.244 NA
HETATM    6  C7  UNL     1      37.317  -1.708  66.532  1.00  0.00     0.234 C 
HETATM    7  N2  UNL     1      37.965  -2.830  66.273  1.00  0.00    -0.242 NA
HETATM    8  C8  UNL     1      39.155  -3.181  67.028  1.00  0.00     0.067 A 
HETATM    9  C9  UNL     1      39.233  -4.562  67.262  1.00  0.00     0.032 A 
HETATM   10  C10 UNL     1      40.247  -5.155  67.981  1.00  0.00     0.004 A 
HETATM   11  C11 UNL     1      41.208  -4.302  68.473  1.00  0.00     0.020 A 
HETATM   12  C12 UNL     1      41.132  -2.970  68.246  1.00  0.00     0.020 A 
HETATM   13 BR1  UNL     1      42.493  -1.886  69.012  1.00  0.00    -0.050 Br
HETATM   14  C13 UNL     1      40.148  -2.328  67.536  1.00  0.00     0.002 A 
HETATM   15  C14 UNL     1      38.857   0.708  68.894  1.00  0.00     0.146 C 
HETATM   16  N3  UNL     1      39.998   1.249  69.184  1.00  0.00    -0.249 NA
ENDROOT
BRANCH   1  17
HETATM   17  S1  UNL     1      42.556   1.881  69.085  1.00  0.00     0.092 S 
HETATM   18  O1  UNL     1      42.121   3.329  69.216  1.00  0.00    -0.247 OA
BRANCH  17  19
HETATM   19  C2  UNL     1      43.946   1.731  67.965  1.00  0.00     0.075 C 
HETATM   20  C1  UNL     1      44.147   3.063  68.038  1.00  0.00     0.021 C 
ENDBRANCH  17  19
ENDBRANCH   1  17
TORSDOF 2
ENDMDL
