MODEL 1
REMARK VINA RESULT:      -7.2      0.000      0.000
REMARK  6 active torsions:
REMARK  status: ('A' for Active; 'I' for Inactive)
REMARK    1  A    between atoms: S1_2  and  C1_4 
REMARK    2  A    between atoms: S1_2  and  C3_7 
REMARK    3  A    between atoms: C1_4  and  C2_5 
REMARK    4  A    between atoms: C2_5  and  O3_6 
REMARK    5  A    between atoms: C6_10  and  N1_11 
REMARK    6  A    between atoms: N1_11  and  C7_12 
ROOT
HETATM    1  C3  UNL     1      25.668  -0.186  54.148  1.00  0.00     0.151 A 
HETATM    2  C4  UNL     1      24.634   0.140  53.311  1.00  0.00     0.061 A 
HETATM    3  C5  UNL     1      23.384  -0.325  53.651  1.00  0.00     0.043 A 
HETATM    4  C6  UNL     1      22.335   0.005  52.818  1.00  0.00     0.141 A 
HETATM    5  N2  UNL     1      21.074  -0.428  53.118  1.00  0.00    -0.224 NA
HETATM    6  C10 UNL     1      20.850  -1.173  54.222  1.00  0.00     0.236 A 
HETATM    7  N3  UNL     1      21.863  -1.519  55.072  1.00  0.00    -0.240 NA
HETATM    8  C11 UNL     1      23.128  -1.090  54.776  1.00  0.00     0.089 A 
HETATM    9  C12 UNL     1      24.215  -1.392  55.593  1.00  0.00     0.150 A 
HETATM   10  N4  UNL     1      25.420  -0.926  55.237  1.00  0.00    -0.247 NA
ENDROOT
BRANCH   1  11
HETATM   11  S1  UNL     1      27.317   0.349  53.842  1.00  0.00     0.194 S 
HETATM   12  O1  UNL     1      27.945   0.989  55.026  1.00  0.00    -0.221 OA
HETATM   13  O2  UNL     1      27.247   1.341  52.690  1.00  0.00    -0.221 OA
BRANCH  11  14
HETATM   14  C1  UNL     1      28.325  -1.006  53.261  1.00  0.00     0.173 C 
BRANCH  14  15
HETATM   15  C2  UNL     1      29.744  -0.768  53.728  1.00  0.00     0.179 C 
BRANCH  15  16
HETATM   16  O3  UNL     1      30.151   0.529  53.388  1.00  0.00    -0.400 OA
HETATM   17  H5  UNL     1      29.392   1.166  53.410  1.00  0.00     0.209 HD
ENDBRANCH  15  16
ENDBRANCH  14  15
ENDBRANCH  11  14
ENDBRANCH   1  11
BRANCH   4  18
HETATM   18  N1  UNL     1      22.425   0.769  51.624  1.00  0.00    -0.344 N 
HETATM   19  H7  UNL     1      23.325   1.312  51.643  1.00  0.00     0.167 HD
BRANCH  18  20
HETATM   20  C7  UNL     1      21.587   0.930  50.489  1.00  0.00     0.011 A 
HETATM   21  C8  UNL     1      21.502   0.977  49.133  1.00  0.00     0.005 A 
HETATM   22  C9  UNL     1      20.240   1.160  49.923  1.00  0.00     0.086 A 
ENDBRANCH  18  20
ENDBRANCH   4  18
TORSDOF 6
ENDMDL
MODEL 2
REMARK VINA RESULT:      -7.2      1.304      1.588
REMARK  6 active torsions:
REMARK  status: ('A' for Active; 'I' for Inactive)
REMARK    1  A    between atoms: S1_2  and  C1_4 
REMARK    2  A    between atoms: S1_2  and  C3_7 
REMARK    3  A    between atoms: C1_4  and  C2_5 
REMARK    4  A    between atoms: C2_5  and  O3_6 
REMARK    5  A    between atoms: C6_10  and  N1_11 
REMARK    6  A    between atoms: N1_11  and  C7_12 
ROOT
HETATM    1  C3  UNL     1      25.590  -0.542  54.102  1.00  0.00     0.151 A 
HETATM    2  C4  UNL     1      24.686   0.041  53.254  1.00  0.00     0.061 A 
HETATM    3  C5  UNL     1      23.353  -0.117  53.557  1.00  0.00     0.043 A 
HETATM    4  C6  UNL     1      22.435   0.473  52.713  1.00  0.00     0.141 A 
HETATM    5  N2  UNL     1      21.100   0.350  52.977  1.00  0.00    -0.224 NA
HETATM    6  C10 UNL     1      20.676  -0.344  54.055  1.00  0.00     0.236 A 
HETATM    7  N3  UNL     1      21.554  -0.942  54.915  1.00  0.00    -0.240 NA
HETATM    8  C11 UNL     1      22.892  -0.823  54.656  1.00  0.00     0.089 A 
HETATM    9  C12 UNL     1      23.855  -1.395  55.484  1.00  0.00     0.150 A 
HETATM   10  N4  UNL     1      25.145  -1.225  55.165  1.00  0.00    -0.247 NA
ENDROOT
BRANCH   1  11
HETATM   11  S1  UNL     1      27.327  -0.412  53.843  1.00  0.00     0.194 S 
HETATM   12  O1  UNL     1      27.929  -1.667  53.330  1.00  0.00    -0.221 OA
HETATM   13  O2  UNL     1      27.942  -0.051  55.188  1.00  0.00    -0.221 OA
BRANCH  11  14
HETATM   14  C1  UNL     1      27.704   0.951  52.752  1.00  0.00     0.173 C 
BRANCH  14  15
HETATM   15  C2  UNL     1      28.560   1.938  53.515  1.00  0.00     0.179 C 
BRANCH  15  16
HETATM   16  O3  UNL     1      27.747   2.852  54.199  1.00  0.00    -0.400 OA
HETATM   17  H5  UNL     1      26.865   2.458  54.420  1.00  0.00     0.209 HD
ENDBRANCH  15  16
ENDBRANCH  14  15
ENDBRANCH  11  14
ENDBRANCH   1  11
BRANCH   4  18
HETATM   18  N1  UNL     1      22.736   1.220  51.542  1.00  0.00    -0.344 N 
HETATM   19  H7  UNL     1      23.599   1.792  51.726  1.00  0.00     0.167 HD
BRANCH  18  20
HETATM   20  C7  UNL     1      22.133   1.335  50.262  1.00  0.00     0.011 A 
HETATM   21  C8  UNL     1      22.112   1.981  49.067  1.00  0.00     0.005 A 
HETATM   22  C9  UNL     1      21.123   0.875  49.285  1.00  0.00     0.086 A 
ENDBRANCH  18  20
ENDBRANCH   4  18
TORSDOF 6
ENDMDL
MODEL 3
REMARK VINA RESULT:      -7.2      2.198      3.849
REMARK  6 active torsions:
REMARK  status: ('A' for Active; 'I' for Inactive)
REMARK    1  A    between atoms: S1_2  and  C1_4 
REMARK    2  A    between atoms: S1_2  and  C3_7 
REMARK    3  A    between atoms: C1_4  and  C2_5 
REMARK    4  A    between atoms: C2_5  and  O3_6 
REMARK    5  A    between atoms: C6_10  and  N1_11 
REMARK    6  A    between atoms: N1_11  and  C7_12 
ROOT
HETATM    1  C3  UNL     1      27.340   1.269  53.195  1.00  0.00     0.151 A 
HETATM    2  C4  UNL     1      26.073   0.756  53.280  1.00  0.00     0.061 A 
HETATM    3  C5  UNL     1      25.141   1.244  52.392  1.00  0.00     0.043 A 
HETATM    4  C6  UNL     1      23.863   0.727  52.465  1.00  0.00     0.141 A 
HETATM    5  N2  UNL     1      22.905   1.175  51.600  1.00  0.00    -0.224 NA
HETATM    6  C10 UNL     1      23.200   2.117  50.677  1.00  0.00     0.236 A 
HETATM    7  N3  UNL     1      24.454   2.652  50.574  1.00  0.00    -0.240 NA
HETATM    8  C11 UNL     1      25.418   2.208  51.438  1.00  0.00     0.089 A 
HETATM    9  C12 UNL     1      26.722   2.695  51.396  1.00  0.00     0.150 A 
HETATM   10  N4  UNL     1      27.608   2.202  52.272  1.00  0.00    -0.247 NA
ENDROOT
BRANCH   1  11
HETATM   11  S1  UNL     1      28.635   0.730  54.259  1.00  0.00     0.194 S 
HETATM   12  O1  UNL     1      28.150  -0.127  55.370  1.00  0.00    -0.221 OA
HETATM   13  O2  UNL     1      29.290   1.985  54.818  1.00  0.00    -0.221 OA
BRANCH  11  14
HETATM   14  C1  UNL     1      29.906  -0.114  53.332  1.00  0.00     0.173 C 
BRANCH  14  15
HETATM   15  C2  UNL     1      29.790  -1.595  53.620  1.00  0.00     0.179 C 
BRANCH  15  16
HETATM   16  O3  UNL     1      28.507  -2.051  53.287  1.00  0.00    -0.400 OA
HETATM   17  H5  UNL     1      28.420  -3.028  53.432  1.00  0.00     0.209 HD
ENDBRANCH  15  16
ENDBRANCH  14  15
ENDBRANCH  11  14
ENDBRANCH   1  11
BRANCH   4  18
HETATM   18  N1  UNL     1      23.410  -0.255  53.386  1.00  0.00    -0.344 N 
HETATM   19  H7  UNL     1      24.219  -0.881  53.629  1.00  0.00     0.167 HD
BRANCH  18  20
HETATM   20  C7  UNL     1      22.159  -0.533  53.996  1.00  0.00     0.011 A 
HETATM   21  C8  UNL     1      21.101  -0.049  54.699  1.00  0.00     0.005 A 
HETATM   22  C9  UNL     1      21.093  -1.503  54.330  1.00  0.00     0.086 A 
ENDBRANCH  18  20
ENDBRANCH   4  18
TORSDOF 6
ENDMDL
MODEL 4
REMARK VINA RESULT:      -6.9      2.263      3.955
REMARK  6 active torsions:
REMARK  status: ('A' for Active; 'I' for Inactive)
REMARK    1  A    between atoms: S1_2  and  C1_4 
REMARK    2  A    between atoms: S1_2  and  C3_7 
REMARK    3  A    between atoms: C1_4  and  C2_5 
REMARK    4  A    between atoms: C2_5  and  O3_6 
REMARK    5  A    between atoms: C6_10  and  N1_11 
REMARK    6  A    between atoms: N1_11  and  C7_12 
ROOT
HETATM    1  C3  UNL     1      26.384   0.773  52.636  1.00  0.00     0.151 A 
HETATM    2  C4  UNL     1      25.040   0.535  52.536  1.00  0.00     0.061 A 
HETATM    3  C5  UNL     1      24.309   1.397  51.751  1.00  0.00     0.043 A 
HETATM    4  C6  UNL     1      22.954   1.160  51.638  1.00  0.00     0.141 A 
HETATM    5  N2  UNL     1      22.188   1.986  50.863  1.00  0.00    -0.224 NA
HETATM    6  C10 UNL     1      22.748   3.027  50.210  1.00  0.00     0.236 A 
HETATM    7  N3  UNL     1      24.086   3.294  50.297  1.00  0.00    -0.240 NA
HETATM    8  C11 UNL     1      24.858   2.472  51.071  1.00  0.00     0.089 A 
HETATM    9  C12 UNL     1      26.230   2.668  51.209  1.00  0.00     0.150 A 
HETATM   10  N4  UNL     1      26.916   1.812  51.980  1.00  0.00    -0.247 NA
ENDROOT
BRANCH   1  11
HETATM   11  S1  UNL     1      27.442  -0.255  53.597  1.00  0.00     0.194 S 
HETATM   12  O1  UNL     1      27.360  -1.686  53.213  1.00  0.00    -0.221 OA
HETATM   13  O2  UNL     1      27.019  -0.080  55.048  1.00  0.00    -0.221 OA
BRANCH  11  14
HETATM   14  C1  UNL     1      29.132   0.317  53.508  1.00  0.00     0.173 C 
BRANCH  14  15
HETATM   15  C2  UNL     1      29.342   1.328  54.614  1.00  0.00     0.179 C 
BRANCH  15  16
HETATM   16  O3  UNL     1      28.686   2.526  54.302  1.00  0.00    -0.400 OA
HETATM   17  H5  UNL     1      28.091   2.420  53.516  1.00  0.00     0.209 HD
ENDBRANCH  15  16
ENDBRANCH  14  15
ENDBRANCH  11  14
ENDBRANCH   1  11
BRANCH   4  18
HETATM   18  N1  UNL     1      22.233   0.114  52.272  1.00  0.00    -0.344 N 
HETATM   19  H7  UNL     1      21.995  -0.611  51.549  1.00  0.00     0.167 HD
BRANCH  18  20
HETATM   20  C7  UNL     1      21.800  -0.121  53.604  1.00  0.00     0.011 A 
HETATM   21  C8  UNL     1      20.913   0.191  54.586  1.00  0.00     0.005 A 
HETATM   22  C9  UNL     1      21.961  -0.840  54.886  1.00  0.00     0.086 A 
ENDBRANCH  18  20
ENDBRANCH   4  18
TORSDOF 6
ENDMDL
MODEL 5
REMARK VINA RESULT:      -6.8      2.895      3.548
REMARK  6 active torsions:
REMARK  status: ('A' for Active; 'I' for Inactive)
REMARK    1  A    between atoms: S1_2  and  C1_4 
REMARK    2  A    between atoms: S1_2  and  C3_7 
REMARK    3  A    between atoms: C1_4  and  C2_5 
REMARK    4  A    between atoms: C2_5  and  O3_6 
REMARK    5  A    between atoms: C6_10  and  N1_11 
REMARK    6  A    between atoms: N1_11  and  C7_12 
ROOT
HETATM    1  C3  UNL     1      25.690   0.229  53.385  1.00  0.00     0.151 A 
HETATM    2  C4  UNL     1      25.446   1.432  52.778  1.00  0.00     0.061 A 
HETATM    3  C5  UNL     1      24.128   1.771  52.572  1.00  0.00     0.043 A 
HETATM    4  C6  UNL     1      23.871   2.985  51.968  1.00  0.00     0.141 A 
HETATM    5  N2  UNL     1      22.578   3.368  51.749  1.00  0.00    -0.224 NA
HETATM    6  C10 UNL     1      21.554   2.569  52.119  1.00  0.00     0.236 A 
HETATM    7  N3  UNL     1      21.768   1.360  52.721  1.00  0.00    -0.240 NA
HETATM    8  C11 UNL     1      23.060   0.970  52.942  1.00  0.00     0.089 A 
HETATM    9  C12 UNL     1      23.367  -0.243  53.555  1.00  0.00     0.150 A 
HETATM   10  N4  UNL     1      24.659  -0.546  53.742  1.00  0.00    -0.247 NA
ENDROOT
BRANCH   1  11
HETATM   11  S1  UNL     1      27.327  -0.328  53.721  1.00  0.00     0.194 S 
HETATM   12  O1  UNL     1      27.568  -1.720  53.263  1.00  0.00    -0.221 OA
HETATM   13  O2  UNL     1      27.518  -0.236  55.227  1.00  0.00    -0.221 OA
BRANCH  11  14
HETATM   14  C1  UNL     1      28.532   0.779  53.006  1.00  0.00     0.173 C 
BRANCH  14  15
HETATM   15  C2  UNL     1      29.009   1.717  54.093  1.00  0.00     0.179 C 
BRANCH  15  16
HETATM   16  O3  UNL     1      28.108   2.780  54.241  1.00  0.00    -0.400 OA
HETATM   17  H5  UNL     1      28.172   3.187  55.143  1.00  0.00     0.209 HD
ENDBRANCH  15  16
ENDBRANCH  14  15
ENDBRANCH  11  14
ENDBRANCH   1  11
BRANCH   4  18
HETATM   18  N1  UNL     1      24.844   3.918  51.520  1.00  0.00    -0.344 N 
HETATM   19  H7  UNL     1      24.937   4.675  52.244  1.00  0.00     0.167 HD
BRANCH  18  20
HETATM   20  C7  UNL     1      25.657   4.017  50.361  1.00  0.00     0.011 A 
HETATM   21  C8  UNL     1      26.520   3.391  49.517  1.00  0.00     0.005 A 
HETATM   22  C9  UNL     1      26.174   4.823  49.233  1.00  0.00     0.086 A 
ENDBRANCH  18  20
ENDBRANCH   4  18
TORSDOF 6
ENDMDL
MODEL 6
REMARK VINA RESULT:      -6.7      3.857      5.843
REMARK  6 active torsions:
REMARK  status: ('A' for Active; 'I' for Inactive)
REMARK    1  A    between atoms: S1_2  and  C1_4 
REMARK    2  A    between atoms: S1_2  and  C3_7 
REMARK    3  A    between atoms: C1_4  and  C2_5 
REMARK    4  A    between atoms: C2_5  and  O3_6 
REMARK    5  A    between atoms: C6_10  and  N1_11 
REMARK    6  A    between atoms: N1_11  and  C7_12 
ROOT
HETATM    1  C3  UNL     1      23.557   0.569  53.172  1.00  0.00     0.151 A 
HETATM    2  C4  UNL     1      24.579   1.383  52.762  1.00  0.00     0.061 A 
HETATM    3  C5  UNL     1      25.850   1.039  53.160  1.00  0.00     0.043 A 
HETATM    4  C6  UNL     1      26.887   1.849  52.745  1.00  0.00     0.141 A 
HETATM    5  N2  UNL     1      28.169   1.543  53.110  1.00  0.00    -0.224 NA
HETATM    6  C10 UNL     1      28.424   0.458  53.872  1.00  0.00     0.236 A 
HETATM    7  N3  UNL     1      27.424  -0.369  54.302  1.00  0.00    -0.240 NA
HETATM    8  C11 UNL     1      26.139  -0.068  53.940  1.00  0.00     0.089 A 
HETATM    9  C12 UNL     1      25.062  -0.861  54.330  1.00  0.00     0.150 A 
HETATM   10  N4  UNL     1      23.836  -0.502  53.927  1.00  0.00    -0.247 NA
ENDROOT
BRANCH   1  11
HETATM   11  S1  UNL     1      21.882   0.882  52.728  1.00  0.00     0.194 S 
HETATM   12  O1  UNL     1      21.467   0.162  51.498  1.00  0.00    -0.221 OA
HETATM   13  O2  UNL     1      21.761   2.384  52.518  1.00  0.00    -0.221 OA
BRANCH  11  14
HETATM   14  C1  UNL     1      20.784   0.487  54.080  1.00  0.00     0.173 C 
BRANCH  14  15
HETATM   15  C2  UNL     1      20.444  -0.985  53.992  1.00  0.00     0.179 C 
BRANCH  15  16
HETATM   16  O3  UNL     1      21.138  -1.700  54.977  1.00  0.00    -0.400 OA
HETATM   17  H5  UNL     1      20.525  -2.041  55.677  1.00  0.00     0.209 HD
ENDBRANCH  15  16
ENDBRANCH  14  15
ENDBRANCH  11  14
ENDBRANCH   1  11
BRANCH   4  18
HETATM   18  N1  UNL     1      26.766   3.022  51.954  1.00  0.00    -0.344 N 
HETATM   19  H7  UNL     1      26.972   3.855  52.561  1.00  0.00     0.167 HD
BRANCH  18  20
HETATM   20  C7  UNL     1      26.442   3.267  50.594  1.00  0.00     0.011 A 
HETATM   21  C8  UNL     1      25.488   3.234  49.626  1.00  0.00     0.005 A 
HETATM   22  C9  UNL     1      26.856   3.719  49.247  1.00  0.00     0.086 A 
ENDBRANCH  18  20
ENDBRANCH   4  18
TORSDOF 6
ENDMDL
MODEL 7
REMARK VINA RESULT:      -6.5      1.985      2.694
REMARK  6 active torsions:
REMARK  status: ('A' for Active; 'I' for Inactive)
REMARK    1  A    between atoms: S1_2  and  C1_4 
REMARK    2  A    between atoms: S1_2  and  C3_7 
REMARK    3  A    between atoms: C1_4  and  C2_5 
REMARK    4  A    between atoms: C2_5  and  O3_6 
REMARK    5  A    between atoms: C6_10  and  N1_11 
REMARK    6  A    between atoms: N1_11  and  C7_12 
ROOT
HETATM    1  C3  UNL     1      23.790  -0.551  53.964  1.00  0.00     0.151 A 
HETATM    2  C4  UNL     1      23.336   0.014  52.802  1.00  0.00     0.061 A 
HETATM    3  C5  UNL     1      21.975   0.016  52.599  1.00  0.00     0.043 A 
HETATM    4  C6  UNL     1      21.508   0.590  51.434  1.00  0.00     0.141 A 
HETATM    5  N2  UNL     1      20.163   0.622  51.191  1.00  0.00    -0.224 NA
HETATM    6  C10 UNL     1      19.293   0.099  52.081  1.00  0.00     0.236 A 
HETATM    7  N3  UNL     1      19.717  -0.477  53.246  1.00  0.00    -0.240 NA
HETATM    8  C11 UNL     1      21.062  -0.513  53.495  1.00  0.00     0.089 A 
HETATM    9  C12 UNL     1      21.578  -1.075  54.660  1.00  0.00     0.150 A 
HETATM   10  N4  UNL     1      22.907  -1.064  54.831  1.00  0.00    -0.247 NA
ENDROOT
BRANCH   1  11
HETATM   11  S1  UNL     1      25.504  -0.614  54.360  1.00  0.00     0.194 S 
HETATM   12  O1  UNL     1      26.257  -1.574  53.514  1.00  0.00    -0.221 OA
HETATM   13  O2  UNL     1      25.599  -1.025  55.822  1.00  0.00    -0.221 OA
BRANCH  11  14
HETATM   14  C1  UNL     1      26.238   1.011  54.260  1.00  0.00     0.173 C 
BRANCH  14  15
HETATM   15  C2  UNL     1      27.735   0.841  54.123  1.00  0.00     0.179 C 
BRANCH  15  16
HETATM   16  O3  UNL     1      28.188  -0.158  54.994  1.00  0.00    -0.400 OA
HETATM   17  H5  UNL     1      27.611  -0.963  54.955  1.00  0.00     0.209 HD
ENDBRANCH  15  16
ENDBRANCH  14  15
ENDBRANCH  11  14
ENDBRANCH   1  11
BRANCH   4  18
HETATM   18  N1  UNL     1      22.304   1.167  50.408  1.00  0.00    -0.344 N 
HETATM   19  H7  UNL     1      22.418   0.460  49.639  1.00  0.00     0.167 HD
BRANCH  18  20
HETATM   20  C7  UNL     1      22.931   2.428  50.237  1.00  0.00     0.011 A 
HETATM   21  C8  UNL     1      23.884   3.149  49.588  1.00  0.00     0.005 A 
HETATM   22  C9  UNL     1      23.039   3.857  50.606  1.00  0.00     0.086 A 
ENDBRANCH  18  20
ENDBRANCH   4  18
TORSDOF 6
ENDMDL
MODEL 8
REMARK VINA RESULT:      -6.4      3.149      5.647
REMARK  6 active torsions:
REMARK  status: ('A' for Active; 'I' for Inactive)
REMARK    1  A    between atoms: S1_2  and  C1_4 
REMARK    2  A    between atoms: S1_2  and  C3_7 
REMARK    3  A    between atoms: C1_4  and  C2_5 
REMARK    4  A    between atoms: C2_5  and  O3_6 
REMARK    5  A    between atoms: C6_10  and  N1_11 
REMARK    6  A    between atoms: N1_11  and  C7_12 
ROOT
HETATM    1  C3  UNL     1      24.438   2.031  51.709  1.00  0.00     0.151 A 
HETATM    2  C4  UNL     1      25.367   1.593  52.616  1.00  0.00     0.061 A 
HETATM    3  C5  UNL     1      24.966   0.616  53.498  1.00  0.00     0.043 A 
HETATM    4  C6  UNL     1      25.897   0.163  54.410  1.00  0.00     0.141 A 
HETATM    5  N2  UNL     1      25.548  -0.812  55.302  1.00  0.00    -0.224 NA
HETATM    6  C10 UNL     1      24.302  -1.333  55.295  1.00  0.00     0.236 A 
HETATM    7  N3  UNL     1      23.352  -0.912  54.405  1.00  0.00    -0.240 NA
HETATM    8  C11 UNL     1      23.696   0.065  53.511  1.00  0.00     0.089 A 
HETATM    9  C12 UNL     1      22.791   0.547  52.567  1.00  0.00     0.150 A 
HETATM   10  N4  UNL     1      23.209   1.499  51.722  1.00  0.00    -0.247 NA
ENDROOT
BRANCH   1  11
HETATM   11  S1  UNL     1      24.815   3.269  50.515  1.00  0.00     0.194 S 
HETATM   12  O1  UNL     1      24.642   4.647  51.039  1.00  0.00    -0.221 OA
HETATM   13  O2  UNL     1      23.879   3.039  49.338  1.00  0.00    -0.221 OA
BRANCH  11  14
HETATM   14  C1  UNL     1      26.468   3.049  49.876  1.00  0.00     0.173 C 
BRANCH  14  15
HETATM   15  C2  UNL     1      26.934   4.376  49.318  1.00  0.00     0.179 C 
BRANCH  15  16
HETATM   16  O3  UNL     1      25.870   5.032  48.683  1.00  0.00    -0.400 OA
HETATM   17  H5  UNL     1      25.125   5.206  49.312  1.00  0.00     0.209 HD
ENDBRANCH  15  16
ENDBRANCH  14  15
ENDBRANCH  11  14
ENDBRANCH   1  11
BRANCH   4  18
HETATM   18  N1  UNL     1      27.234   0.625  54.539  1.00  0.00    -0.344 N 
HETATM   19  H7  UNL     1      27.227   1.511  55.105  1.00  0.00     0.167 HD
BRANCH  18  20
HETATM   20  C7  UNL     1      28.491   0.151  54.080  1.00  0.00     0.011 A 
HETATM   21  C8  UNL     1      29.738   0.469  53.641  1.00  0.00     0.005 A 
HETATM   22  C9  UNL     1      29.377  -0.984  53.739  1.00  0.00     0.086 A 
ENDBRANCH  18  20
ENDBRANCH   4  18
TORSDOF 6
ENDMDL
MODEL 9
REMARK VINA RESULT:      -6.3      4.164      6.105
REMARK  6 active torsions:
REMARK  status: ('A' for Active; 'I' for Inactive)
REMARK    1  A    between atoms: S1_2  and  C1_4 
REMARK    2  A    between atoms: S1_2  and  C3_7 
REMARK    3  A    between atoms: C1_4  and  C2_5 
REMARK    4  A    between atoms: C2_5  and  O3_6 
REMARK    5  A    between atoms: C6_10  and  N1_11 
REMARK    6  A    between atoms: N1_11  and  C7_12 
ROOT
HETATM    1  C3  UNL     1      23.247   1.004  52.947  1.00  0.00     0.151 A 
HETATM    2  C4  UNL     1      24.395   1.650  52.571  1.00  0.00     0.061 A 
HETATM    3  C5  UNL     1      25.587   1.084  52.961  1.00  0.00     0.043 A 
HETATM    4  C6  UNL     1      26.749   1.723  52.580  1.00  0.00     0.141 A 
HETATM    5  N2  UNL     1      27.957   1.195  52.938  1.00  0.00    -0.224 NA
HETATM    6  C10 UNL     1      28.020   0.055  53.660  1.00  0.00     0.236 A 
HETATM    7  N3  UNL     1      26.892  -0.608  54.055  1.00  0.00    -0.240 NA
HETATM    8  C11 UNL     1      25.679  -0.084  53.701  1.00  0.00     0.089 A 
HETATM    9  C12 UNL     1      24.481  -0.699  54.056  1.00  0.00     0.150 A 
HETATM   10  N4  UNL     1      23.336  -0.125  53.663  1.00  0.00    -0.247 NA
ENDROOT
BRANCH   1  11
HETATM   11  S1  UNL     1      21.653   1.609  52.509  1.00  0.00     0.194 S 
HETATM   12  O1  UNL     1      20.604   1.234  53.490  1.00  0.00    -0.221 OA
HETATM   13  O2  UNL     1      21.323   1.020  51.145  1.00  0.00    -0.221 OA
BRANCH  11  14
HETATM   14  C1  UNL     1      21.688   3.380  52.281  1.00  0.00     0.173 C 
BRANCH  14  15
HETATM   15  C2  UNL     1      20.412   3.786  51.578  1.00  0.00     0.179 C 
BRANCH  15  16
HETATM   16  O3  UNL     1      19.300   3.285  52.269  1.00  0.00    -0.400 OA
HETATM   17  H5  UNL     1      18.855   3.993  52.802  1.00  0.00     0.209 HD
ENDBRANCH  15  16
ENDBRANCH  14  15
ENDBRANCH  11  14
ENDBRANCH   1  11
BRANCH   4  18
HETATM   18  N1  UNL     1      26.833   2.928  51.833  1.00  0.00    -0.344 N 
HETATM   19  H7  UNL     1      27.287   3.661  52.434  1.00  0.00     0.167 HD
BRANCH  18  20
HETATM   20  C7  UNL     1      26.447   3.305  50.520  1.00  0.00     0.011 A 
HETATM   21  C8  UNL     1      26.828   3.836  49.328  1.00  0.00     0.005 A 
HETATM   22  C9  UNL     1      25.397   3.414  49.483  1.00  0.00     0.086 A 
ENDBRANCH  18  20
ENDBRANCH   4  18
TORSDOF 6
ENDMDL
