MODEL 1
REMARK VINA RESULT:      -7.8      0.000      0.000
REMARK  2 active torsions:
REMARK  status: ('A' for Active; 'I' for Inactive)
REMARK    1  A    between atoms: C9_14  and  N6_15 
REMARK    2  A    between atoms: N6_15  and  C10_16 
ROOT
HETATM    1  N1  UNL     1      22.297   1.663  49.291  1.00  0.00    -0.192 NA
HETATM    2  C1  UNL     1      21.897   2.724  49.421  1.00  0.00     0.088 C 
HETATM    3  C2  UNL     1      21.386   4.017  49.588  1.00  0.00     0.107 C 
HETATM    4  C3  UNL     1      21.765   4.929  50.408  1.00  0.00     0.004 C 
HETATM    5  C4  UNL     1      21.083   6.291  50.453  1.00  0.00     0.032 C 
HETATM    6  C5  UNL     1      21.747   7.491  50.631  1.00  0.00     0.107 C 
HETATM    7  N2  UNL     1      23.206   7.689  50.807  1.00  0.00    -0.199 N 
HETATM    8  C6  UNL     1      24.129   6.733  51.460  1.00  0.00     0.720 C 
HETATM    9  N3  UNL     1      25.067   6.703  50.505  1.00  0.00     0.043 NA
HETATM   10  N4  UNL     1      25.632   5.528  49.818  1.00  0.00    -0.127 NA
HETATM   11  C7  UNL     1      24.894   4.379  49.612  1.00  0.00     0.258 C 
HETATM   12  N5  UNL     1      23.553   3.875  50.116  1.00  0.00    -0.240 NA
HETATM   13  C8  UNL     1      22.968   4.453  51.171  1.00  0.00     0.089 C 
HETATM   14  C9  UNL     1      23.455   4.598  52.607  1.00  0.00     0.253 C 
HETATM   15  N7  UNL     1      24.108   5.944  52.708  1.00  0.00    -0.196 N 
HETATM   16  H4  UNL     1      23.817   8.423  50.503  1.00  0.00     0.183 HD
HETATM   17  H12 UNL     1      24.451   6.107  53.686  1.00  0.00     0.180 HD
ENDROOT
BRANCH  14  18
HETATM   18  N6  UNL     1      24.317   3.538  52.966  1.00  0.00    -0.363 N 
HETATM   19  H7  UNL     1      25.306   3.832  53.229  1.00  0.00     0.162 HD
BRANCH  18  20
HETATM   20  C10 UNL     1      24.056   2.152  53.027  1.00  0.00     0.031 A 
HETATM   21  C11 UNL     1      22.800   1.587  53.070  1.00  0.00     0.029 A 
HETATM   22  C12 UNL     1      22.536   0.235  53.141  1.00  0.00     0.004 A 
HETATM   23  C13 UNL     1      23.619  -0.616  53.172  1.00  0.00     0.024 A 
HETATM   24  C14 UNL     1      24.904  -0.118  53.132  1.00  0.00     0.036 A 
HETATM   25 CL1  UNL     1      26.317  -1.186  53.170  1.00  0.00    -0.084 Cl
HETATM   26  C15 UNL     1      25.093   1.242  53.062  1.00  0.00     0.053 A 
ENDBRANCH  18  20
ENDBRANCH  14  18
TORSDOF 2
ENDMDL
MODEL 2
REMARK VINA RESULT:      -7.8      2.319      3.870
REMARK  2 active torsions:
REMARK  status: ('A' for Active; 'I' for Inactive)
REMARK    1  A    between atoms: C9_14  and  N6_15 
REMARK    2  A    between atoms: N6_15  and  C10_16 
ROOT
HETATM    1  N1  UNL     1      26.786   3.614  50.275  1.00  0.00    -0.192 NA
HETATM    2  C1  UNL     1      25.797   3.471  49.721  1.00  0.00     0.088 C 
HETATM    3  C2  UNL     1      24.596   3.281  49.029  1.00  0.00     0.107 C 
HETATM    4  C3  UNL     1      23.499   2.767  49.453  1.00  0.00     0.004 C 
HETATM    5  C4  UNL     1      22.280   2.635  48.547  1.00  0.00     0.032 C 
HETATM    6  C5  UNL     1      20.977   2.852  48.956  1.00  0.00     0.107 C 
HETATM    7  N2  UNL     1      20.516   3.244  50.310  1.00  0.00    -0.199 N 
HETATM    8  C6  UNL     1      21.174   2.867  51.582  1.00  0.00     0.720 C 
HETATM    9  N3  UNL     1      21.229   4.087  52.129  1.00  0.00     0.043 NA
HETATM   10  N4  UNL     1      22.403   4.792  52.672  1.00  0.00    -0.127 NA
HETATM   11  C7  UNL     1      23.674   4.580  52.175  1.00  0.00     0.258 C 
HETATM   12  N5  UNL     1      24.286   3.566  51.223  1.00  0.00    -0.240 NA
HETATM   13  C8  UNL     1      23.625   2.445  50.915  1.00  0.00     0.089 C 
HETATM   14  C9  UNL     1      23.139   1.313  51.810  1.00  0.00     0.253 C 
HETATM   15  N7  UNL     1      21.711   1.614  52.151  1.00  0.00    -0.196 N 
HETATM   16  H4  UNL     1      19.763   3.833  50.609  1.00  0.00     0.183 HD
HETATM   17  H12 UNL     1      21.316   0.854  52.758  1.00  0.00     0.180 HD
ENDROOT
BRANCH  14  18
HETATM   18  N6  UNL     1      23.961   1.173  52.951  1.00  0.00    -0.363 N 
HETATM   19  H7  UNL     1      23.497   1.428  53.874  1.00  0.00     0.162 HD
BRANCH  18  20
HETATM   20  C10 UNL     1      25.303   0.743  53.041  1.00  0.00     0.031 A 
HETATM   21  C11 UNL     1      25.726  -0.560  52.891  1.00  0.00     0.029 A 
HETATM   22  C12 UNL     1      27.032  -0.990  52.989  1.00  0.00     0.004 A 
HETATM   23  C13 UNL     1      27.990  -0.036  53.258  1.00  0.00     0.024 A 
HETATM   24  C14 UNL     1      27.636   1.286  53.418  1.00  0.00     0.036 A 
HETATM   25 CL1  UNL     1      28.843   2.537  53.764  1.00  0.00    -0.084 Cl
HETATM   26  C15 UNL     1      26.314   1.644  53.308  1.00  0.00     0.053 A 
ENDBRANCH  18  20
ENDBRANCH  14  18
TORSDOF 2
ENDMDL
MODEL 3
REMARK VINA RESULT:      -7.2      3.555      5.906
REMARK  2 active torsions:
REMARK  status: ('A' for Active; 'I' for Inactive)
REMARK    1  A    between atoms: C9_14  and  N6_15 
REMARK    2  A    between atoms: N6_15  and  C10_16 
ROOT
HETATM    1  N1  UNL     1      21.931   3.709  46.250  1.00  0.00    -0.192 NA
HETATM    2  C1  UNL     1      21.977   3.063  47.191  1.00  0.00     0.088 C 
HETATM    3  C2  UNL     1      22.044   2.255  48.332  1.00  0.00     0.107 C 
HETATM    4  C3  UNL     1      22.733   2.431  49.400  1.00  0.00     0.004 C 
HETATM    5  C4  UNL     1      22.684   1.434  50.552  1.00  0.00     0.032 C 
HETATM    6  C5  UNL     1      22.687   1.786  51.889  1.00  0.00     0.107 C 
HETATM    7  N2  UNL     1      22.735   3.157  52.455  1.00  0.00    -0.199 N 
HETATM    8  C6  UNL     1      23.416   4.316  51.835  1.00  0.00     0.720 C 
HETATM    9  N3  UNL     1      22.405   5.189  51.919  1.00  0.00     0.043 NA
HETATM   10  N4  UNL     1      21.806   5.998  50.842  1.00  0.00    -0.127 NA
HETATM   11  C7  UNL     1      21.776   5.560  49.533  1.00  0.00     0.258 C 
HETATM   12  N5  UNL     1      22.426   4.410  48.783  1.00  0.00    -0.240 NA
HETATM   13  C8  UNL     1      23.454   3.747  49.324  1.00  0.00     0.089 C 
HETATM   14  C9  UNL     1      24.827   4.245  49.754  1.00  0.00     0.253 C 
HETATM   15  N7  UNL     1      24.739   4.547  51.220  1.00  0.00    -0.196 N 
HETATM   16  H4  UNL     1      22.312   3.552  53.272  1.00  0.00     0.183 HD
HETATM   17  H12 UNL     1      25.667   4.881  51.577  1.00  0.00     0.180 HD
ENDROOT
BRANCH  14  18
HETATM   18  N6  UNL     1      25.233   5.359  48.984  1.00  0.00    -0.363 N 
HETATM   19  H7  UNL     1      24.442   5.999  48.669  1.00  0.00     0.162 HD
BRANCH  18  20
HETATM   20  C10 UNL     1      26.529   5.743  48.578  1.00  0.00     0.031 A 
HETATM   21  C11 UNL     1      27.648   4.943  48.649  1.00  0.00     0.029 A 
HETATM   22  C12 UNL     1      28.919   5.314  48.264  1.00  0.00     0.004 A 
HETATM   23  C13 UNL     1      29.079   6.590  47.769  1.00  0.00     0.024 A 
HETATM   24  C14 UNL     1      28.001   7.443  47.669  1.00  0.00     0.036 A 
HETATM   25 CL1  UNL     1      28.172   9.090  47.036  1.00  0.00    -0.084 Cl
HETATM   26  C15 UNL     1      26.761   7.007  48.072  1.00  0.00     0.053 A 
ENDBRANCH  18  20
ENDBRANCH  14  18
TORSDOF 2
ENDMDL
MODEL 4
REMARK VINA RESULT:      -7.2      8.008     10.543
REMARK  2 active torsions:
REMARK  status: ('A' for Active; 'I' for Inactive)
REMARK    1  A    between atoms: C9_14  and  N6_15 
REMARK    2  A    between atoms: N6_15  and  C10_16 
ROOT
HETATM    1  N1  UNL     1      33.141   2.308  47.854  1.00  0.00    -0.192 NA
HETATM    2  C1  UNL     1      33.463   2.898  46.930  1.00  0.00     0.088 C 
HETATM    3  C2  UNL     1      33.845   3.606  45.784  1.00  0.00     0.107 C 
HETATM    4  C3  UNL     1      33.523   4.797  45.434  1.00  0.00     0.004 C 
HETATM    5  C4  UNL     1      34.037   5.411  44.136  1.00  0.00     0.032 C 
HETATM    6  C5  UNL     1      34.432   6.729  43.999  1.00  0.00     0.107 C 
HETATM    7  N2  UNL     1      34.437   7.776  45.049  1.00  0.00    -0.199 N 
HETATM    8  C6  UNL     1      33.485   7.862  46.180  1.00  0.00     0.720 C 
HETATM    9  N3  UNL     1      34.381   8.012  47.163  1.00  0.00     0.043 NA
HETATM   10  N4  UNL     1      34.520   7.222  48.399  1.00  0.00    -0.127 NA
HETATM   11  C7  UNL     1      34.169   5.888  48.454  1.00  0.00     0.258 C 
HETATM   12  N5  UNL     1      33.425   4.947  47.522  1.00  0.00    -0.240 NA
HETATM   13  C8  UNL     1      32.694   5.435  46.513  1.00  0.00     0.089 C 
HETATM   14  C9  UNL     1      31.492   6.369  46.532  1.00  0.00     0.253 C 
HETATM   15  N7  UNL     1      32.019   7.756  46.323  1.00  0.00    -0.196 N 
HETATM   16  H4  UNL     1      35.061   8.541  45.219  1.00  0.00     0.183 HD
HETATM   17  H12 UNL     1      31.228   8.446  46.311  1.00  0.00     0.180 HD
ENDROOT
BRANCH  14  18
HETATM   18  N6  UNL     1      30.755   6.232  47.730  1.00  0.00    -0.363 N 
HETATM   19  H7  UNL     1      31.343   6.067  48.603  1.00  0.00     0.162 HD
BRANCH  18  20
HETATM   20  C10 UNL     1      29.360   6.284  47.935  1.00  0.00     0.031 A 
HETATM   21  C11 UNL     1      28.563   7.375  47.666  1.00  0.00     0.029 A 
HETATM   22  C12 UNL     1      27.201   7.439  47.873  1.00  0.00     0.004 A 
HETATM   23  C13 UNL     1      26.591   6.317  48.392  1.00  0.00     0.024 A 
HETATM   24  C14 UNL     1      27.329   5.189  48.684  1.00  0.00     0.036 A 
HETATM   25 CL1  UNL     1      26.575   3.731  49.352  1.00  0.00    -0.084 Cl
HETATM   26  C15 UNL     1      28.684   5.197  48.452  1.00  0.00     0.053 A 
ENDBRANCH  18  20
ENDBRANCH  14  18
TORSDOF 2
ENDMDL
MODEL 5
REMARK VINA RESULT:      -7.1      2.013      2.962
REMARK  2 active torsions:
REMARK  status: ('A' for Active; 'I' for Inactive)
REMARK    1  A    between atoms: C9_14  and  N6_15 
REMARK    2  A    between atoms: N6_15  and  C10_16 
ROOT
HETATM    1  N1  UNL     1      20.452   0.988  53.017  1.00  0.00    -0.192 NA
HETATM    2  C1  UNL     1      20.539   2.074  52.673  1.00  0.00     0.088 C 
HETATM    3  C2  UNL     1      20.647   3.412  52.276  1.00  0.00     0.107 C 
HETATM    4  C3  UNL     1      21.598   3.983  51.631  1.00  0.00     0.004 C 
HETATM    5  C4  UNL     1      21.547   5.466  51.284  1.00  0.00     0.032 C 
HETATM    6  C5  UNL     1      21.981   6.002  50.086  1.00  0.00     0.107 C 
HETATM    7  N2  UNL     1      22.564   5.269  48.935  1.00  0.00    -0.199 N 
HETATM    8  C6  UNL     1      23.378   4.036  49.027  1.00  0.00     0.720 C 
HETATM    9  N3  UNL     1      22.718   3.312  48.116  1.00  0.00     0.043 NA
HETATM   10  N4  UNL     1      22.133   1.967  48.267  1.00  0.00    -0.127 NA
HETATM   11  C7  UNL     1      21.655   1.513  49.480  1.00  0.00     0.258 C 
HETATM   12  N5  UNL     1      21.737   2.019  50.910  1.00  0.00    -0.240 NA
HETATM   13  C8  UNL     1      22.629   2.960  51.242  1.00  0.00     0.089 C 
HETATM   14  C9  UNL     1      24.149   2.947  51.159  1.00  0.00     0.253 C 
HETATM   15  N7  UNL     1      24.516   3.593  49.857  1.00  0.00    -0.196 N 
HETATM   16  H4  UNL     1      22.489   5.419  47.947  1.00  0.00     0.183 HD
HETATM   17  H12 UNL     1      25.560   3.626  49.752  1.00  0.00     0.180 HD
ENDROOT
BRANCH  14  18
HETATM   18  N6  UNL     1      24.658   1.634  51.287  1.00  0.00    -0.363 N 
HETATM   19  H7  UNL     1      24.916   1.161  50.368  1.00  0.00     0.162 HD
BRANCH  18  20
HETATM   20  C10 UNL     1      24.874   0.866  52.451  1.00  0.00     0.031 A 
HETATM   21  C11 UNL     1      23.922   0.086  53.070  1.00  0.00     0.029 A 
HETATM   22  C12 UNL     1      24.121  -0.659  54.213  1.00  0.00     0.004 A 
HETATM   23  C13 UNL     1      25.377  -0.617  54.780  1.00  0.00     0.024 A 
HETATM   24  C14 UNL     1      26.377   0.143  54.212  1.00  0.00     0.036 A 
HETATM   25 CL1  UNL     1      28.002   0.219  54.916  1.00  0.00    -0.084 Cl
HETATM   26  C15 UNL     1      26.107   0.862  53.071  1.00  0.00     0.053 A 
ENDBRANCH  18  20
ENDBRANCH  14  18
TORSDOF 2
ENDMDL
MODEL 6
REMARK VINA RESULT:      -7.0      2.285      3.422
REMARK  2 active torsions:
REMARK  status: ('A' for Active; 'I' for Inactive)
REMARK    1  A    between atoms: C9_14  and  N6_15 
REMARK    2  A    between atoms: N6_15  and  C10_16 
ROOT
HETATM    1  N1  UNL     1      20.391   0.683  53.198  1.00  0.00    -0.192 NA
HETATM    2  C1  UNL     1      20.415   1.751  52.793  1.00  0.00     0.088 C 
HETATM    3  C2  UNL     1      20.445   3.069  52.320  1.00  0.00     0.107 C 
HETATM    4  C3  UNL     1      21.345   3.644  51.609  1.00  0.00     0.004 C 
HETATM    5  C4  UNL     1      21.212   5.102  51.185  1.00  0.00     0.032 C 
HETATM    6  C5  UNL     1      21.576   5.590  49.943  1.00  0.00     0.107 C 
HETATM    7  N2  UNL     1      22.149   4.821  48.811  1.00  0.00    -0.199 N 
HETATM    8  C6  UNL     1      23.022   3.632  48.938  1.00  0.00     0.720 C 
HETATM    9  N3  UNL     1      22.363   2.829  48.093  1.00  0.00     0.043 NA
HETATM   10  N4  UNL     1      21.848   1.471  48.340  1.00  0.00    -0.127 NA
HETATM   11  C7  UNL     1      21.437   1.064  49.594  1.00  0.00     0.258 C 
HETATM   12  N5  UNL     1      21.548   1.652  50.990  1.00  0.00    -0.240 NA
HETATM   13  C8  UNL     1      22.407   2.648  51.236  1.00  0.00     0.089 C 
HETATM   14  C9  UNL     1      23.921   2.698  51.093  1.00  0.00     0.253 C 
HETATM   15  N7  UNL     1      24.210   3.287  49.745  1.00  0.00    -0.196 N 
HETATM   16  H4  UNL     1      22.031   4.912  47.821  1.00  0.00     0.183 HD
HETATM   17  H12 UNL     1      25.246   3.360  49.597  1.00  0.00     0.180 HD
ENDROOT
BRANCH  14  18
HETATM   18  N6  UNL     1      24.496   1.418  51.271  1.00  0.00    -0.363 N 
HETATM   19  H7  UNL     1      24.664   0.872  50.372  1.00  0.00     0.162 HD
BRANCH  18  20
HETATM   20  C10 UNL     1      24.878   0.765  52.462  1.00  0.00     0.031 A 
HETATM   21  C11 UNL     1      26.162   0.718  52.960  1.00  0.00     0.029 A 
HETATM   22  C12 UNL     1      26.545   0.074  54.117  1.00  0.00     0.004 A 
HETATM   23  C13 UNL     1      25.561  -0.575  54.831  1.00  0.00     0.024 A 
HETATM   24  C14 UNL     1      24.255  -0.567  54.392  1.00  0.00     0.036 A 
HETATM   25 CL1  UNL     1      22.966  -1.391  55.287  1.00  0.00    -0.084 Cl
HETATM   26  C15 UNL     1      23.944   0.096  53.228  1.00  0.00     0.053 A 
ENDBRANCH  18  20
ENDBRANCH  14  18
TORSDOF 2
ENDMDL
MODEL 7
REMARK VINA RESULT:      -6.9      2.728      5.664
REMARK  2 active torsions:
REMARK  status: ('A' for Active; 'I' for Inactive)
REMARK    1  A    between atoms: C9_14  and  N6_15 
REMARK    2  A    between atoms: N6_15  and  C10_16 
ROOT
HETATM    1  N1  UNL     1      27.239   2.482  51.709  1.00  0.00    -0.192 NA
HETATM    2  C1  UNL     1      26.249   2.011  52.032  1.00  0.00     0.088 C 
HETATM    3  C2  UNL     1      25.046   1.430  52.450  1.00  0.00     0.107 C 
HETATM    4  C3  UNL     1      23.901   1.986  52.613  1.00  0.00     0.004 C 
HETATM    5  C4  UNL     1      22.690   1.189  53.082  1.00  0.00     0.032 C 
HETATM    6  C5  UNL     1      21.405   1.367  52.602  1.00  0.00     0.107 C 
HETATM    7  N2  UNL     1      20.961   2.335  51.569  1.00  0.00    -0.199 N 
HETATM    8  C6  UNL     1      21.562   3.665  51.326  1.00  0.00     0.720 C 
HETATM    9  N3  UNL     1      21.718   3.557  50.001  1.00  0.00     0.043 NA
HETATM   10  N4  UNL     1      22.943   3.757  49.206  1.00  0.00    -0.127 NA
HETATM   11  C7  UNL     1      24.197   3.498  49.723  1.00  0.00     0.258 C 
HETATM   12  N5  UNL     1      24.730   3.191  51.112  1.00  0.00    -0.240 NA
HETATM   13  C8  UNL     1      23.975   3.426  52.191  1.00  0.00     0.089 C 
HETATM   14  C9  UNL     1      23.376   4.727  52.707  1.00  0.00     0.253 C 
HETATM   15  N7  UNL     1      21.976   4.799  52.178  1.00  0.00    -0.196 N 
HETATM   16  H4  UNL     1      20.259   2.268  50.857  1.00  0.00     0.183 HD
HETATM   17  H12 UNL     1      21.505   5.673  52.516  1.00  0.00     0.180 HD
ENDROOT
BRANCH  14  18
HETATM   18  N6  UNL     1      24.165   5.839  52.333  1.00  0.00    -0.363 N 
HETATM   19  H7  UNL     1      24.961   6.070  53.001  1.00  0.00     0.162 HD
BRANCH  18  20
HETATM   20  C10 UNL     1      24.051   6.680  51.205  1.00  0.00     0.031 A 
HETATM   21  C11 UNL     1      22.905   7.346  50.830  1.00  0.00     0.029 A 
HETATM   22  C12 UNL     1      22.782   8.161  49.724  1.00  0.00     0.004 A 
HETATM   23  C13 UNL     1      23.899   8.319  48.932  1.00  0.00     0.024 A 
HETATM   24  C14 UNL     1      25.080   7.682  49.250  1.00  0.00     0.036 A 
HETATM   25 CL1  UNL     1      26.533   7.864  48.253  1.00  0.00    -0.084 Cl
HETATM   26  C15 UNL     1      25.130   6.883  50.368  1.00  0.00     0.053 A 
ENDBRANCH  18  20
ENDBRANCH  14  18
TORSDOF 2
ENDMDL
MODEL 8
REMARK VINA RESULT:      -6.8      6.249      8.238
REMARK  2 active torsions:
REMARK  status: ('A' for Active; 'I' for Inactive)
REMARK    1  A    between atoms: C9_14  and  N6_15 
REMARK    2  A    between atoms: N6_15  and  C10_16 
ROOT
HETATM    1  N1  UNL     1      29.564   9.422  45.107  1.00  0.00    -0.192 NA
HETATM    2  C1  UNL     1      28.459   9.186  45.276  1.00  0.00     0.088 C 
HETATM    3  C2  UNL     1      27.106   8.882  45.465  1.00  0.00     0.107 C 
HETATM    4  C3  UNL     1      26.542   8.329  46.476  1.00  0.00     0.004 C 
HETATM    5  C4  UNL     1      25.041   8.069  46.507  1.00  0.00     0.032 C 
HETATM    6  C5  UNL     1      24.244   8.229  47.625  1.00  0.00     0.107 C 
HETATM    7  N2  UNL     1      24.672   8.673  48.975  1.00  0.00    -0.199 N 
HETATM    8  C6  UNL     1      25.997   8.412  49.582  1.00  0.00     0.720 C 
HETATM    9  N3  UNL     1      26.271   9.663  49.970  1.00  0.00     0.043 NA
HETATM   10  N4  UNL     1      27.468  10.470  49.673  1.00  0.00    -0.127 NA
HETATM   11  C7  UNL     1      28.186  10.307  48.505  1.00  0.00     0.258 C 
HETATM   12  N5  UNL     1      28.174   9.278  47.387  1.00  0.00    -0.240 NA
HETATM   13  C8  UNL     1      27.560   8.102  47.559  1.00  0.00     0.089 C 
HETATM   14  C9  UNL     1      27.817   6.998  48.575  1.00  0.00     0.253 C 
HETATM   15  N7  UNL     1      26.873   7.230  49.716  1.00  0.00    -0.196 N 
HETATM   16  H4  UNL     1      24.211   9.231  49.667  1.00  0.00     0.183 HD
HETATM   17  H12 UNL     1      26.996   6.485  50.444  1.00  0.00     0.180 HD
ENDROOT
BRANCH  14  18
HETATM   18  N6  UNL     1      29.172   6.975  48.975  1.00  0.00    -0.363 N 
HETATM   19  H7  UNL     1      29.347   7.253  49.988  1.00  0.00     0.162 HD
BRANCH  18  20
HETATM   20  C10 UNL     1      30.322   6.637  48.229  1.00  0.00     0.031 A 
HETATM   21  C11 UNL     1      31.278   7.533  47.803  1.00  0.00     0.029 A 
HETATM   22  C12 UNL     1      32.398   7.213  47.065  1.00  0.00     0.004 A 
HETATM   23  C13 UNL     1      32.571   5.888  46.728  1.00  0.00     0.024 A 
HETATM   24  C14 UNL     1      31.653   4.938  47.122  1.00  0.00     0.036 A 
HETATM   25 CL1  UNL     1      31.847   3.227  46.705  1.00  0.00    -0.084 Cl
HETATM   26  C15 UNL     1      30.559   5.329  47.856  1.00  0.00     0.053 A 
ENDBRANCH  18  20
ENDBRANCH  14  18
TORSDOF 2
ENDMDL
MODEL 9
REMARK VINA RESULT:      -6.8      3.098      6.258
REMARK  2 active torsions:
REMARK  status: ('A' for Active; 'I' for Inactive)
REMARK    1  A    between atoms: C9_14  and  N6_15 
REMARK    2  A    between atoms: N6_15  and  C10_16 
ROOT
HETATM    1  N1  UNL     1      25.554   3.657  49.561  1.00  0.00    -0.192 NA
HETATM    2  C1  UNL     1      25.403   2.861  50.366  1.00  0.00     0.088 C 
HETATM    3  C2  UNL     1      25.233   1.897  51.367  1.00  0.00     0.107 C 
HETATM    4  C3  UNL     1      24.195   1.658  52.083  1.00  0.00     0.004 C 
HETATM    5  C4  UNL     1      24.193   0.559  53.139  1.00  0.00     0.032 C 
HETATM    6  C5  UNL     1      23.122  -0.278  53.391  1.00  0.00     0.107 C 
HETATM    7  N2  UNL     1      21.805  -0.279  52.708  1.00  0.00    -0.199 N 
HETATM    8  C6  UNL     1      21.131   0.913  52.144  1.00  0.00     0.720 C 
HETATM    9  N3  UNL     1      20.850   0.411  50.936  1.00  0.00     0.043 NA
HETATM   10  N4  UNL     1      21.178   0.975  49.614  1.00  0.00    -0.127 NA
HETATM   11  C7  UNL     1      22.301   1.752  49.412  1.00  0.00     0.258 C 
HETATM   12  N5  UNL     1      23.319   2.405  50.331  1.00  0.00    -0.240 NA
HETATM   13  C8  UNL     1      23.062   2.539  51.637  1.00  0.00     0.089 C 
HETATM   14  C9  UNL     1      21.941   3.285  52.346  1.00  0.00     0.253 C 
HETATM   15  N7  UNL     1      20.859   2.284  52.620  1.00  0.00    -0.196 N 
HETATM   16  H4  UNL     1      21.184  -1.027  52.467  1.00  0.00     0.183 HD
HETATM   17  H12 UNL     1      20.062   2.742  53.125  1.00  0.00     0.180 HD
ENDROOT
BRANCH  14  18
HETATM   18  N6  UNL     1      21.493   4.386  51.581  1.00  0.00    -0.363 N 
HETATM   19  H7  UNL     1      20.495   4.307  51.220  1.00  0.00     0.162 HD
BRANCH  18  20
HETATM   20  C10 UNL     1      22.177   5.570  51.230  1.00  0.00     0.031 A 
HETATM   21  C11 UNL     1      23.492   5.843  51.537  1.00  0.00     0.029 A 
HETATM   22  C12 UNL     1      24.163   7.001  51.207  1.00  0.00     0.004 A 
HETATM   23  C13 UNL     1      23.458   7.962  50.514  1.00  0.00     0.024 A 
HETATM   24  C14 UNL     1      22.139   7.753  50.173  1.00  0.00     0.036 A 
HETATM   25 CL1  UNL     1      21.205   8.968  49.282  1.00  0.00    -0.084 Cl
HETATM   26  C15 UNL     1      21.532   6.574  50.535  1.00  0.00     0.053 A 
ENDBRANCH  18  20
ENDBRANCH  14  18
TORSDOF 2
ENDMDL
