MODEL 1
REMARK VINA RESULT:      -8.4      0.000      0.000
REMARK  2 active torsions:
REMARK  status: ('A' for Active; 'I' for Inactive)
REMARK    1  A    between atoms: N2_11  and  C9_12 
REMARK    2  A    between atoms: C16_20  and  N4_21 
ROOT
HETATM    1  C1  UNL     1      18.529   0.160  52.322  1.00  0.00     0.010 C 
HETATM    2  C2  UNL     1      19.869   0.670  52.837  1.00  0.00    -0.013 C 
HETATM    3  C3  UNL     1      20.275   1.947  52.153  1.00  0.00     0.005 C 
HETATM    4  C4  UNL     1      20.128   1.927  50.673  1.00  0.00     0.003 C 
HETATM    5  C5  UNL     1      21.133   1.100  49.948  1.00  0.00     0.039 C 
HETATM    6  C6  UNL     1      22.555   1.370  50.341  1.00  0.00     0.179 C 
HETATM    7 BR1  UNL     1      22.975   3.255  50.311  1.00  0.00    -0.067 Br
HETATM    8  N1  UNL     1      22.865   0.767  51.616  1.00  0.00    -0.277 N 
HETATM    9  C7  UNL     1      22.203   0.067  52.558  1.00  0.00     0.047 A 
HETATM   10  C8  UNL     1      23.415   0.038  53.249  1.00  0.00     0.138 A 
HETATM   11  N2  UNL     1      24.023   0.739  52.277  1.00  0.00    -0.284 N 
HETATM   12  C17 UNL     1      20.845  -0.438  52.773  1.00  0.00     0.064 C 
ENDROOT
BRANCH  11  13
HETATM   13  C9  UNL     1      25.383   1.245  52.062  1.00  0.00     0.179 C 
HETATM   14  C10 UNL     1      26.380   0.134  52.265  1.00  0.00     0.012 C 
HETATM   15  C11 UNL     1      27.541   0.211  52.889  1.00  0.00    -0.048 C 
HETATM   16  C12 UNL     1      28.698  -0.617  53.254  1.00  0.00     0.082 C 
HETATM   17  C14 UNL     1      28.032   1.496  53.509  1.00  0.00     0.161 C 
HETATM   18  C13 UNL     1      29.011  -0.153  54.650  1.00  0.00     0.089 C 
HETATM   19  N3  UNL     1      28.614   1.058  54.752  1.00  0.00    -0.292 NA
HETATM   20  C15 UNL     1      26.852   2.354  53.696  1.00  0.00     0.031 C 
HETATM   21  C16 UNL     1      25.663   2.285  53.083  1.00  0.00     0.030 C 
BRANCH  21  22
HETATM   22  N4  UNL     1      24.752   3.290  53.519  1.00  0.00    -0.401 N 
HETATM   23  H20 UNL     1      25.408   4.112  53.671  1.00  0.00     0.156 HD
HETATM   24  H21 UNL     1      23.745   3.500  53.729  1.00  0.00     0.156 HD
ENDBRANCH  21  22
ENDBRANCH  11  13
TORSDOF 2
ENDMDL
MODEL 2
REMARK VINA RESULT:      -7.8      3.524      5.178
REMARK  2 active torsions:
REMARK  status: ('A' for Active; 'I' for Inactive)
REMARK    1  A    between atoms: N2_11  and  C9_12 
REMARK    2  A    between atoms: C16_20  and  N4_21 
ROOT
HETATM    1  C1  UNL     1      23.432   8.308  50.177  1.00  0.00     0.010 C 
HETATM    2  C2  UNL     1      23.853   7.131  51.048  1.00  0.00    -0.013 C 
HETATM    3  C3  UNL     1      25.141   6.520  50.567  1.00  0.00     0.005 C 
HETATM    4  C4  UNL     1      25.199   6.279  49.101  1.00  0.00     0.003 C 
HETATM    5  C5  UNL     1      24.362   5.149  48.611  1.00  0.00     0.039 C 
HETATM    6  C6  UNL     1      24.545   3.869  49.370  1.00  0.00     0.179 C 
HETATM    7 BR1  UNL     1      26.408   3.394  49.560  1.00  0.00    -0.067 Br
HETATM    8  N1  UNL     1      23.867   3.920  50.644  1.00  0.00    -0.277 N 
HETATM    9  C7  UNL     1      23.154   4.826  51.342  1.00  0.00     0.047 A 
HETATM   10  C8  UNL     1      23.035   3.836  52.318  1.00  0.00     0.138 A 
HETATM   11  N2  UNL     1      23.752   2.974  51.577  1.00  0.00    -0.284 N 
HETATM   12  C17 UNL     1      22.704   6.209  51.171  1.00  0.00     0.064 C 
ENDROOT
BRANCH  11  13
HETATM   13  C9  UNL     1      24.203   1.589  51.749  1.00  0.00     0.179 C 
HETATM   14  C10 UNL     1      23.033   0.710  52.105  1.00  0.00     0.012 C 
HETATM   15  C11 UNL     1      23.008  -0.258  53.002  1.00  0.00    -0.048 C 
HETATM   16  C12 UNL     1      22.100  -1.259  53.577  1.00  0.00     0.082 C 
HETATM   17  C14 UNL     1      24.221  -0.616  53.825  1.00  0.00     0.161 C 
HETATM   18  C13 UNL     1      22.450  -1.224  55.039  1.00  0.00     0.089 C 
HETATM   19  N3  UNL     1      23.669  -0.853  55.135  1.00  0.00    -0.292 NA
HETATM   20  C15 UNL     1      25.122   0.545  53.780  1.00  0.00     0.031 C 
HETATM   21  C16 UNL     1      25.155   1.543  52.887  1.00  0.00     0.030 C 
BRANCH  21  22
HETATM   22  N4  UNL     1      26.171   2.503  53.161  1.00  0.00    -0.401 N 
HETATM   23  H20 UNL     1      25.612   3.406  53.143  1.00  0.00     0.156 HD
HETATM   24  H21 UNL     1      27.194   2.635  53.358  1.00  0.00     0.156 HD
ENDBRANCH  21  22
ENDBRANCH  11  13
TORSDOF 2
ENDMDL
MODEL 3
REMARK VINA RESULT:      -7.6      4.477      5.820
REMARK  2 active torsions:
REMARK  status: ('A' for Active; 'I' for Inactive)
REMARK    1  A    between atoms: N2_11  and  C9_12 
REMARK    2  A    between atoms: C16_20  and  N4_21 
ROOT
HETATM    1  C1  UNL     1      24.462  -0.400  53.359  1.00  0.00     0.010 C 
HETATM    2  C2  UNL     1      24.812   1.063  53.116  1.00  0.00    -0.013 C 
HETATM    3  C3  UNL     1      23.580   1.926  53.068  1.00  0.00     0.005 C 
HETATM    4  C4  UNL     1      22.482   1.385  52.222  1.00  0.00     0.003 C 
HETATM    5  C5  UNL     1      22.718   1.462  50.753  1.00  0.00     0.039 C 
HETATM    6  C6  UNL     1      23.153   2.812  50.266  1.00  0.00     0.179 C 
HETATM    7 BR1  UNL     1      22.007   4.225  50.916  1.00  0.00    -0.067 Br
HETATM    8  N1  UNL     1      24.542   3.055  50.580  1.00  0.00    -0.277 N 
HETATM    9  C7  UNL     1      25.530   2.408  51.228  1.00  0.00     0.047 A 
HETATM   10  C8  UNL     1      26.327   3.508  50.909  1.00  0.00     0.138 A 
HETATM   11  N2  UNL     1      25.304   4.106  50.275  1.00  0.00    -0.284 N 
HETATM   12  C17 UNL     1      25.704   1.140  51.940  1.00  0.00     0.064 C 
ENDROOT
BRANCH  11  13
HETATM   13  C9  UNL     1      25.130   5.376  49.562  1.00  0.00     0.179 C 
HETATM   14  C10 UNL     1      26.281   5.593  48.615  1.00  0.00     0.012 C 
HETATM   15  C11 UNL     1      26.924   6.724  48.390  1.00  0.00    -0.048 C 
HETATM   16  C12 UNL     1      28.024   7.271  47.587  1.00  0.00     0.082 C 
HETATM   17  C14 UNL     1      26.560   8.005  49.100  1.00  0.00     0.161 C 
HETATM   18  C13 UNL     1      28.715   8.193  48.554  1.00  0.00     0.089 C 
HETATM   19  N3  UNL     1      27.843   8.589  49.400  1.00  0.00    -0.292 NA
HETATM   20  C15 UNL     1      25.805   7.624  50.303  1.00  0.00     0.031 C 
HETATM   21  C16 UNL     1      25.157   6.479  50.555  1.00  0.00     0.030 C 
BRANCH  21  22
HETATM   22  N4  UNL     1      24.531   6.462  51.834  1.00  0.00    -0.401 N 
HETATM   23  H20 UNL     1      23.504   6.476  51.562  1.00  0.00     0.156 HD
HETATM   24  H21 UNL     1      24.699   6.443  52.870  1.00  0.00     0.156 HD
ENDBRANCH  21  22
ENDBRANCH  11  13
TORSDOF 2
ENDMDL
MODEL 4
REMARK VINA RESULT:      -7.5      4.895      6.928
REMARK  2 active torsions:
REMARK  status: ('A' for Active; 'I' for Inactive)
REMARK    1  A    between atoms: N2_11  and  C9_12 
REMARK    2  A    between atoms: C16_20  and  N4_21 
ROOT
HETATM    1  C1  UNL     1      26.298   0.081  52.683  1.00  0.00     0.010 C 
HETATM    2  C2  UNL     1      26.186   1.587  52.487  1.00  0.00    -0.013 C 
HETATM    3  C3  UNL     1      24.915   2.129  53.083  1.00  0.00     0.005 C 
HETATM    4  C4  UNL     1      23.694   1.351  52.743  1.00  0.00     0.003 C 
HETATM    5  C5  UNL     1      23.219   1.499  51.340  1.00  0.00     0.039 C 
HETATM    6  C6  UNL     1      23.093   2.919  50.876  1.00  0.00     0.179 C 
HETATM    7 BR1  UNL     1      22.097   4.009  52.122  1.00  0.00    -0.067 Br
HETATM    8  N1  UNL     1      24.389   3.485  50.578  1.00  0.00    -0.277 N 
HETATM    9  C7  UNL     1      25.674   3.087  50.648  1.00  0.00     0.047 A 
HETATM   10  C8  UNL     1      25.991   4.349  50.147  1.00  0.00     0.138 A 
HETATM   11  N2  UNL     1      24.692   4.692  50.098  1.00  0.00    -0.284 N 
HETATM   12  C17 UNL     1      26.412   1.889  51.058  1.00  0.00     0.064 C 
ENDROOT
BRANCH  11  13
HETATM   13  C9  UNL     1      23.954   5.890  49.689  1.00  0.00     0.179 C 
HETATM   14  C10 UNL     1      24.404   6.326  48.319  1.00  0.00     0.012 C 
HETATM   15  C11 UNL     1      24.627   7.561  47.909  1.00  0.00    -0.048 C 
HETATM   16  C12 UNL     1      25.047   8.311  46.719  1.00  0.00     0.082 C 
HETATM   17  C14 UNL     1      24.448   8.750  48.821  1.00  0.00     0.161 C 
HETATM   18  C13 UNL     1      25.952   9.366  47.293  1.00  0.00     0.089 C 
HETATM   19  N3  UNL     1      25.575   9.586  48.494  1.00  0.00    -0.292 NA
HETATM   20  C15 UNL     1      24.490   8.238  50.199  1.00  0.00     0.031 C 
HETATM   21  C16 UNL     1      24.280   6.988  50.633  1.00  0.00     0.030 C 
BRANCH  21  22
HETATM   22  N4  UNL     1      24.404   6.860  52.046  1.00  0.00    -0.401 N 
HETATM   23  H20 UNL     1      23.481   7.273  52.373  1.00  0.00     0.156 HD
HETATM   24  H21 UNL     1      25.027   6.532  52.825  1.00  0.00     0.156 HD
ENDBRANCH  21  22
ENDBRANCH  11  13
TORSDOF 2
ENDMDL
MODEL 5
REMARK VINA RESULT:      -7.2      3.901      5.197
REMARK  2 active torsions:
REMARK  status: ('A' for Active; 'I' for Inactive)
REMARK    1  A    between atoms: N2_11  and  C9_12 
REMARK    2  A    between atoms: C16_20  and  N4_21 
ROOT
HETATM    1  C1  UNL     1      22.742  -1.053  53.510  1.00  0.00     0.010 C 
HETATM    2  C2  UNL     1      22.972   0.441  53.323  1.00  0.00    -0.013 C 
HETATM    3  C3  UNL     1      21.706   1.151  52.928  1.00  0.00     0.005 C 
HETATM    4  C4  UNL     1      20.939   0.484  51.842  1.00  0.00     0.003 C 
HETATM    5  C5  UNL     1      21.543   0.590  50.484  1.00  0.00     0.039 C 
HETATM    6  C6  UNL     1      21.932   1.983  50.087  1.00  0.00     0.179 C 
HETATM    7 BR1  UNL     1      20.501   3.249  50.371  1.00  0.00    -0.067 Br
HETATM    8  N1  UNL     1      23.152   2.389  50.745  1.00  0.00    -0.277 N 
HETATM    9  C7  UNL     1      24.002   1.863  51.648  1.00  0.00     0.047 A 
HETATM   10  C8  UNL     1      24.723   3.051  51.515  1.00  0.00     0.138 A 
HETATM   11  N2  UNL     1      23.841   3.524  50.618  1.00  0.00    -0.284 N 
HETATM   12  C17 UNL     1      24.128   0.624  52.420  1.00  0.00     0.064 C 
ENDROOT
BRANCH  11  13
HETATM   13  C9  UNL     1      23.716   4.764  49.846  1.00  0.00     0.179 C 
HETATM   14  C10 UNL     1      24.991   5.026  49.088  1.00  0.00     0.012 C 
HETATM   15  C11 UNL     1      25.600   6.188  48.933  1.00  0.00    -0.048 C 
HETATM   16  C12 UNL     1      26.784   6.779  48.298  1.00  0.00     0.082 C 
HETATM   17  C14 UNL     1      25.058   7.461  49.534  1.00  0.00     0.161 C 
HETATM   18  C13 UNL     1      27.260   7.762  49.332  1.00  0.00     0.089 C 
HETATM   19  N3  UNL     1      26.243   8.125  50.016  1.00  0.00    -0.292 NA
HETATM   20  C15 UNL     1      24.141   7.064  50.613  1.00  0.00     0.031 C 
HETATM   21  C16 UNL     1      23.523   5.890  50.794  1.00  0.00     0.030 C 
BRANCH  21  22
HETATM   22  N4  UNL     1      22.701   5.866  51.957  1.00  0.00    -0.401 N 
HETATM   23  H20 UNL     1      23.370   6.248  52.690  1.00  0.00     0.156 HD
HETATM   24  H21 UNL     1      21.749   5.627  52.329  1.00  0.00     0.156 HD
ENDBRANCH  21  22
ENDBRANCH  11  13
TORSDOF 2
ENDMDL
MODEL 6
REMARK VINA RESULT:      -7.2      2.943      4.296
REMARK  2 active torsions:
REMARK  status: ('A' for Active; 'I' for Inactive)
REMARK    1  A    between atoms: N2_11  and  C9_12 
REMARK    2  A    between atoms: C16_20  and  N4_21 
ROOT
HETATM    1  C1  UNL     1      22.841   6.309  47.513  1.00  0.00     0.010 C 
HETATM    2  C2  UNL     1      23.134   4.997  48.228  1.00  0.00    -0.013 C 
HETATM    3  C3  UNL     1      21.950   4.527  49.030  1.00  0.00     0.005 C 
HETATM    4  C4  UNL     1      21.316   5.580  49.867  1.00  0.00     0.003 C 
HETATM    5  C5  UNL     1      22.095   5.990  51.068  1.00  0.00     0.039 C 
HETATM    6  C6  UNL     1      22.571   4.848  51.916  1.00  0.00     0.179 C 
HETATM    7 BR1  UNL     1      21.150   3.608  52.333  1.00  0.00    -0.067 Br
HETATM    8  N1  UNL     1      23.704   4.189  51.310  1.00  0.00    -0.277 N 
HETATM    9  C7  UNL     1      24.414   4.303  50.170  1.00  0.00     0.047 A 
HETATM   10  C8  UNL     1      25.178   3.240  50.653  1.00  0.00     0.138 A 
HETATM   11  N2  UNL     1      24.435   3.173  51.771  1.00  0.00    -0.284 N 
HETATM   12  C17 UNL     1      24.403   5.146  48.972  1.00  0.00     0.064 C 
ENDROOT
BRANCH  11  13
HETATM   13  C9  UNL     1      24.446   2.329  52.970  1.00  0.00     0.179 C 
HETATM   14  C10 UNL     1      25.856   2.185  53.482  1.00  0.00     0.012 C 
HETATM   15  C11 UNL     1      26.428   1.087  53.942  1.00  0.00    -0.048 C 
HETATM   16  C12 UNL     1      27.703   0.607  54.489  1.00  0.00     0.082 C 
HETATM   17  C14 UNL     1      25.692  -0.229  54.010  1.00  0.00     0.161 C 
HETATM   18  C13 UNL     1      27.858  -0.740  53.840  1.00  0.00     0.089 C 
HETATM   19  N3  UNL     1      26.686  -1.182  53.583  1.00  0.00    -0.292 NA
HETATM   20  C15 UNL     1      24.555  -0.128  53.083  1.00  0.00     0.031 C 
HETATM   21  C16 UNL     1      23.969   0.974  52.596  1.00  0.00     0.030 C 
BRANCH  21  22
HETATM   22  N4  UNL     1      22.886   0.688  51.717  1.00  0.00    -0.401 N 
HETATM   23  H20 UNL     1      22.052   0.874  52.349  1.00  0.00     0.156 HD
HETATM   24  H21 UNL     1      22.627   0.382  50.746  1.00  0.00     0.156 HD
ENDBRANCH  21  22
ENDBRANCH  11  13
TORSDOF 2
ENDMDL
MODEL 7
REMARK VINA RESULT:      -6.5      3.644      4.755
REMARK  2 active torsions:
REMARK  status: ('A' for Active; 'I' for Inactive)
REMARK    1  A    between atoms: N2_11  and  C9_12 
REMARK    2  A    between atoms: C16_20  and  N4_21 
ROOT
HETATM    1  C1  UNL     1      20.966   5.956  46.288  1.00  0.00     0.010 C 
HETATM    2  C2  UNL     1      21.309   5.317  47.628  1.00  0.00    -0.013 C 
HETATM    3  C3  UNL     1      21.816   6.336  48.613  1.00  0.00     0.005 C 
HETATM    4  C4  UNL     1      22.844   7.262  48.068  1.00  0.00     0.003 C 
HETATM    5  C5  UNL     1      24.187   6.658  47.847  1.00  0.00     0.039 C 
HETATM    6  C6  UNL     1      24.724   5.895  49.022  1.00  0.00     0.179 C 
HETATM    7 BR1  UNL     1      24.621   6.914  50.660  1.00  0.00    -0.067 Br
HETATM    8  N1  UNL     1      24.080   4.608  49.143  1.00  0.00    -0.277 N 
HETATM    9  C7  UNL     1      23.100   3.936  48.508  1.00  0.00     0.047 A 
HETATM   10  C8  UNL     1      23.342   2.912  49.424  1.00  0.00     0.138 A 
HETATM   11  N2  UNL     1      24.310   3.629  50.019  1.00  0.00    -0.284 N 
HETATM   12  C17 UNL     1      22.194   4.160  47.379  1.00  0.00     0.064 C 
ENDROOT
BRANCH  11  13
HETATM   13  C9  UNL     1      25.217   3.405  51.150  1.00  0.00     0.179 C 
HETATM   14  C10 UNL     1      25.924   2.085  50.984  1.00  0.00     0.012 C 
HETATM   15  C11 UNL     1      26.169   1.190  51.924  1.00  0.00    -0.048 C 
HETATM   16  C12 UNL     1      26.795  -0.125  52.112  1.00  0.00     0.082 C 
HETATM   17  C14 UNL     1      25.740   1.396  53.355  1.00  0.00     0.161 C 
HETATM   18  C13 UNL     1      25.846  -0.812  53.055  1.00  0.00     0.089 C 
HETATM   19  N3  UNL     1      25.265   0.093  53.746  1.00  0.00    -0.292 NA
HETATM   20  C15 UNL     1      24.679   2.414  53.338  1.00  0.00     0.031 C 
HETATM   21  C16 UNL     1      24.408   3.322  52.391  1.00  0.00     0.030 C 
BRANCH  21  22
HETATM   22  N4  UNL     1      23.298   4.153  52.717  1.00  0.00    -0.401 N 
HETATM   23  H20 UNL     1      23.585   4.516  53.674  1.00  0.00     0.156 HD
HETATM   24  H21 UNL     1      22.369   4.512  52.384  1.00  0.00     0.156 HD
ENDBRANCH  21  22
ENDBRANCH  11  13
TORSDOF 2
ENDMDL
MODEL 8
REMARK VINA RESULT:      -6.5      6.705      7.658
REMARK  2 active torsions:
REMARK  status: ('A' for Active; 'I' for Inactive)
REMARK    1  A    between atoms: N2_11  and  C9_12 
REMARK    2  A    between atoms: C16_20  and  N4_21 
ROOT
HETATM    1  C1  UNL     1      23.350   2.321  50.817  1.00  0.00     0.010 C 
HETATM    2  C2  UNL     1      24.367   3.455  50.830  1.00  0.00    -0.013 C 
HETATM    3  C3  UNL     1      23.706   4.789  51.044  1.00  0.00     0.005 C 
HETATM    4  C4  UNL     1      22.504   5.024  50.201  1.00  0.00     0.003 C 
HETATM    5  C5  UNL     1      22.780   5.278  48.760  1.00  0.00     0.039 C 
HETATM    6  C6  UNL     1      23.824   6.325  48.506  1.00  0.00     0.179 C 
HETATM    7 BR1  UNL     1      23.488   7.946  49.501  1.00  0.00    -0.067 Br
HETATM    8  N1  UNL     1      25.149   5.806  48.748  1.00  0.00    -0.277 N 
HETATM    9  C7  UNL     1      25.688   4.649  49.180  1.00  0.00     0.047 A 
HETATM   10  C8  UNL     1      26.924   5.275  49.014  1.00  0.00     0.138 A 
HETATM   11  N2  UNL     1      26.331   6.404  48.589  1.00  0.00    -0.284 N 
HETATM   12  C17 UNL     1      25.212   3.336  49.623  1.00  0.00     0.064 C 
ENDROOT
BRANCH  11  13
HETATM   13  C9  UNL     1      26.808   7.718  48.147  1.00  0.00     0.179 C 
HETATM   14  C10 UNL     1      27.896   7.548  47.119  1.00  0.00     0.012 C 
HETATM   15  C11 UNL     1      29.017   8.239  47.025  1.00  0.00    -0.048 C 
HETATM   16  C12 UNL     1      30.230   8.342  46.203  1.00  0.00     0.082 C 
HETATM   17  C14 UNL     1      29.359   9.343  47.996  1.00  0.00     0.161 C 
HETATM   18  C13 UNL     1      31.307   8.570  47.228  1.00  0.00     0.089 C 
HETATM   19  N3  UNL     1      30.767   9.144  48.235  1.00  0.00    -0.292 NA
HETATM   20  C15 UNL     1      28.535   9.124  49.194  1.00  0.00     0.031 C 
HETATM   21  C16 UNL     1      27.403   8.418  49.312  1.00  0.00     0.030 C 
BRANCH  21  22
HETATM   22  N4  UNL     1      26.875   8.428  50.635  1.00  0.00    -0.401 N 
HETATM   23  H20 UNL     1      26.042   9.077  50.520  1.00  0.00     0.156 HD
HETATM   24  H21 UNL     1      26.998   8.056  51.609  1.00  0.00     0.156 HD
ENDBRANCH  21  22
ENDBRANCH  11  13
TORSDOF 2
ENDMDL
MODEL 9
REMARK VINA RESULT:      -6.5      1.871      2.461
REMARK  2 active torsions:
REMARK  status: ('A' for Active; 'I' for Inactive)
REMARK    1  A    between atoms: N2_11  and  C9_12 
REMARK    2  A    between atoms: C16_20  and  N4_21 
ROOT
HETATM    1  C1  UNL     1      17.235   3.527  50.698  1.00  0.00     0.010 C 
HETATM    2  C2  UNL     1      18.596   3.631  51.374  1.00  0.00    -0.013 C 
HETATM    3  C3  UNL     1      19.555   4.459  50.563  1.00  0.00     0.005 C 
HETATM    4  C4  UNL     1      19.589   4.121  49.115  1.00  0.00     0.003 C 
HETATM    5  C5  UNL     1      20.258   2.834  48.781  1.00  0.00     0.039 C 
HETATM    6  C6  UNL     1      21.612   2.661  49.401  1.00  0.00     0.179 C 
HETATM    7 BR1  UNL     1      22.750   4.195  49.108  1.00  0.00    -0.067 Br
HETATM    8  N1  UNL     1      21.503   2.329  50.803  1.00  0.00    -0.277 N 
HETATM    9  C7  UNL     1      20.511   2.177  51.701  1.00  0.00     0.047 A 
HETATM   10  C8  UNL     1      21.520   1.888  52.621  1.00  0.00     0.138 A 
HETATM   11  N2  UNL     1      22.467   2.053  51.682  1.00  0.00    -0.284 N 
HETATM   12  C17 UNL     1      19.049   2.268  51.721  1.00  0.00     0.064 C 
ENDROOT
BRANCH  11  13
HETATM   13  C9  UNL     1      23.931   1.962  51.662  1.00  0.00     0.179 C 
HETATM   14  C10 UNL     1      24.368   0.624  52.198  1.00  0.00     0.012 C 
HETATM   15  C11 UNL     1      25.378   0.384  53.014  1.00  0.00    -0.048 C 
HETATM   16  C12 UNL     1      26.053  -0.725  53.699  1.00  0.00     0.082 C 
HETATM   17  C14 UNL     1      26.262   1.489  53.537  1.00  0.00     0.161 C 
HETATM   18  C13 UNL     1      26.353  -0.144  55.054  1.00  0.00     0.089 C 
HETATM   19  N3  UNL     1      26.465   1.121  54.915  1.00  0.00    -0.292 NA
HETATM   20  C15 UNL     1      25.511   2.744  53.380  1.00  0.00     0.031 C 
HETATM   21  C16 UNL     1      24.478   3.003  52.568  1.00  0.00     0.030 C 
BRANCH  21  22
HETATM   22  N4  UNL     1      23.999   4.339  52.684  1.00  0.00    -0.401 N 
HETATM   23  H20 UNL     1      23.508   4.465  51.750  1.00  0.00     0.156 HD
HETATM   24  H21 UNL     1      23.956   5.183  53.307  1.00  0.00     0.156 HD
ENDBRANCH  21  22
ENDBRANCH  11  13
TORSDOF 2
ENDMDL
