MODEL 1
REMARK VINA RESULT:      -8.5      0.000      0.000
REMARK  4 active torsions:
REMARK  status: ('A' for Active; 'I' for Inactive)
REMARK    1  A    between atoms: C3_3  and  C4_4 
REMARK    2  A    between atoms: C14_15  and  N2_16 
REMARK    3  A    between atoms: N2_16  and  C15_17 
REMARK    4  A    between atoms: C21_25  and  N4_26 
ROOT
HETATM    1  C1  UNL     1      22.651   1.242  53.115  1.00  0.00     0.018 C 
HETATM    2  C2  UNL     1      23.319   1.679  52.073  1.00  0.00     0.039 C 
HETATM    3  C3  UNL     1      23.314   1.938  50.642  1.00  0.00     0.102 C 
HETATM    4  N1  UNL     1      24.130   3.136  50.577  1.00  0.00    -0.206 NA
HETATM    5  C13 UNL     1      25.329   2.615  51.258  1.00  0.00     0.171 C 
HETATM    6  C14 UNL     1      24.698   2.103  52.535  1.00  0.00     0.168 C 
HETATM    7  N3  UNL     1      24.540   3.246  53.411  1.00  0.00    -0.072 NA
HETATM    8  C21 UNL     1      23.981   4.274  52.818  1.00  0.00     0.706 C 
HETATM    9  N5  UNL     1      23.642   4.131  51.444  1.00  0.00    -0.150 N 
HETATM   10  H22 UNL     1      22.964   4.851  51.076  1.00  0.00     0.199 HD
ENDROOT
BRANCH   3  11
HETATM   11  C4  UNL     1      21.853   2.316  50.165  1.00  0.00     0.040 C 
HETATM   12  C5  UNL     1      21.244   0.819  50.191  1.00  0.00    -0.016 C 
HETATM   13  C6  UNL     1      20.058   1.270  49.588  1.00  0.00    -0.070 C 
HETATM   14  C7  UNL     1      18.612   1.091  49.967  1.00  0.00     0.044 C 
HETATM   15  C8  UNL     1      20.881   1.785  48.367  1.00  0.00     0.025 A 
HETATM   16  C9  UNL     1      22.176   1.754  47.980  1.00  0.00    -0.025 A 
HETATM   17  C12 UNL     1      20.038   3.129  48.330  1.00  0.00    -0.011 C 
HETATM   18  C10 UNL     1      22.086   2.899  48.886  1.00  0.00     0.046 A 
HETATM   19  C11 UNL     1      21.215   3.718  47.921  1.00  0.00    -0.020 C 
ENDBRANCH   3  11
BRANCH   6  20
HETATM   20  N2  UNL     1      25.404   0.999  53.129  1.00  0.00    -0.360 N 
HETATM   21  H15 UNL     1      24.809   0.212  53.478  1.00  0.00     0.162 HD
BRANCH  20  22
HETATM   22  C15 UNL     1      26.795   0.748  53.349  1.00  0.00     0.031 A 
HETATM   23  C16 UNL     1      27.733   1.730  53.675  1.00  0.00     0.029 A 
HETATM   24  C17 UNL     1      29.034   1.319  53.847  1.00  0.00     0.004 A 
HETATM   25  C18 UNL     1      29.452   0.012  53.718  1.00  0.00     0.019 A 
HETATM   26  C19 UNL     1      28.529  -0.950  53.398  1.00  0.00     0.013 A 
HETATM   27 BR1  UNL     1      29.177  -2.728  53.236  1.00  0.00    -0.051 Br
HETATM   28  C20 UNL     1      27.219  -0.570  53.219  1.00  0.00     0.048 A 
ENDBRANCH  20  22
ENDBRANCH   6  20
BRANCH   8  29
HETATM   29  N4  UNL     1      23.737   5.470  53.549  1.00  0.00    -0.232 N 
HETATM   30  H20 UNL     1      22.789   5.916  53.645  1.00  0.00     0.174 HD
HETATM   31  H21 UNL     1      24.501   5.981  54.041  1.00  0.00     0.174 HD
ENDBRANCH   8  29
TORSDOF 4
ENDMDL
MODEL 2
REMARK VINA RESULT:      -8.4      3.643      5.848
REMARK  4 active torsions:
REMARK  status: ('A' for Active; 'I' for Inactive)
REMARK    1  A    between atoms: C3_3  and  C4_4 
REMARK    2  A    between atoms: C14_15  and  N2_16 
REMARK    3  A    between atoms: N2_16  and  C15_17 
REMARK    4  A    between atoms: C21_25  and  N4_26 
ROOT
HETATM    1  C1  UNL     1      25.589   2.758  52.438  1.00  0.00     0.018 C 
HETATM    2  C2  UNL     1      24.537   2.299  51.801  1.00  0.00     0.039 C 
HETATM    3  C3  UNL     1      23.515   1.268  51.720  1.00  0.00     0.102 C 
HETATM    4  N1  UNL     1      22.381   2.043  51.250  1.00  0.00    -0.206 NA
HETATM    5  C13 UNL     1      22.998   2.608  50.036  1.00  0.00     0.171 C 
HETATM    6  C14 UNL     1      24.239   3.228  50.643  1.00  0.00     0.168 C 
HETATM    7  N3  UNL     1      23.841   4.508  51.192  1.00  0.00    -0.072 NA
HETATM    8  C21 UNL     1      22.763   4.434  51.935  1.00  0.00     0.706 C 
HETATM    9  N5  UNL     1      22.150   3.159  52.074  1.00  0.00    -0.150 N 
HETATM   10  H22 UNL     1      21.468   3.078  52.875  1.00  0.00     0.199 HD
ENDROOT
BRANCH   3  11
HETATM   11  C4  UNL     1      23.171   0.732  53.169  1.00  0.00     0.040 C 
HETATM   12  C5  UNL     1      24.354  -0.365  53.259  1.00  0.00    -0.016 C 
HETATM   13  C6  UNL     1      23.825  -0.867  54.460  1.00  0.00    -0.070 C 
HETATM   14  C7  UNL     1      24.459  -1.129  55.800  1.00  0.00     0.044 C 
HETATM   15  C8  UNL     1      22.483  -1.185  53.730  1.00  0.00     0.025 A 
HETATM   16  C9  UNL     1      22.019  -1.103  52.463  1.00  0.00    -0.025 A 
HETATM   17  C12 UNL     1      21.650  -0.617  54.956  1.00  0.00    -0.011 C 
HETATM   18  C10 UNL     1      21.842   0.242  53.011  1.00  0.00     0.046 A 
HETATM   19  C11 UNL     1      20.751  -0.197  53.999  1.00  0.00    -0.020 C 
ENDBRANCH   3  11
BRANCH   6  20
HETATM   20  N2  UNL     1      25.355   3.297  49.738  1.00  0.00    -0.360 N 
HETATM   21  H15 UNL     1      25.720   2.378  49.392  1.00  0.00     0.162 HD
BRANCH  20  22
HETATM   22  C15 UNL     1      26.093   4.396  49.195  1.00  0.00     0.031 A 
HETATM   23  C16 UNL     1      27.466   4.375  48.939  1.00  0.00     0.029 A 
HETATM   24  C17 UNL     1      28.022   5.521  48.421  1.00  0.00     0.004 A 
HETATM   25  C18 UNL     1      27.308   6.668  48.147  1.00  0.00     0.019 A 
HETATM   26  C19 UNL     1      25.961   6.685  48.400  1.00  0.00     0.013 A 
HETATM   27 BR1  UNL     1      25.042   8.299  47.998  1.00  0.00    -0.051 Br
HETATM   28  C20 UNL     1      25.375   5.554  48.918  1.00  0.00     0.048 A 
ENDBRANCH  20  22
ENDBRANCH   6  20
BRANCH   8  29
HETATM   29  N4  UNL     1      22.254   5.605  52.565  1.00  0.00    -0.232 N 
HETATM   30  H20 UNL     1      21.540   5.592  53.338  1.00  0.00     0.174 HD
HETATM   31  H21 UNL     1      22.567   6.560  52.289  1.00  0.00     0.174 HD
ENDBRANCH   8  29
TORSDOF 4
ENDMDL
MODEL 3
REMARK VINA RESULT:      -8.4      4.167      5.877
REMARK  4 active torsions:
REMARK  status: ('A' for Active; 'I' for Inactive)
REMARK    1  A    between atoms: C3_3  and  C4_4 
REMARK    2  A    between atoms: C14_15  and  N2_16 
REMARK    3  A    between atoms: N2_16  and  C15_17 
REMARK    4  A    between atoms: C21_25  and  N4_26 
ROOT
HETATM    1  C1  UNL     1      26.711   3.714  49.329  1.00  0.00     0.018 C 
HETATM    2  C2  UNL     1      25.834   4.587  49.766  1.00  0.00     0.039 C 
HETATM    3  C3  UNL     1      25.397   5.974  49.778  1.00  0.00     0.102 C 
HETATM    4  N1  UNL     1      23.955   5.807  49.821  1.00  0.00    -0.206 NA
HETATM    5  C13 UNL     1      23.874   4.966  51.029  1.00  0.00     0.171 C 
HETATM    6  C14 UNL     1      24.832   3.860  50.638  1.00  0.00     0.168 C 
HETATM    7  N3  UNL     1      24.092   2.945  49.795  1.00  0.00    -0.072 NA
HETATM    8  C21 UNL     1      23.427   3.549  48.839  1.00  0.00     0.706 C 
HETATM    9  N5  UNL     1      23.510   4.968  48.783  1.00  0.00    -0.150 N 
HETATM   10  H22 UNL     1      23.201   5.395  47.869  1.00  0.00     0.199 HD
ENDROOT
BRANCH   3  11
HETATM   11  C4  UNL     1      25.766   6.670  48.405  1.00  0.00     0.040 C 
HETATM   12  C5  UNL     1      27.297   7.034  48.775  1.00  0.00    -0.016 C 
HETATM   13  C6  UNL     1      27.425   7.783  47.593  1.00  0.00    -0.070 C 
HETATM   14  C7  UNL     1      28.455   7.750  46.495  1.00  0.00     0.044 C 
HETATM   15  C8  UNL     1      26.246   8.696  48.049  1.00  0.00     0.025 A 
HETATM   16  C9  UNL     1      25.463   8.804  49.147  1.00  0.00    -0.025 A 
HETATM   17  C12 UNL     1      25.625   8.672  46.589  1.00  0.00    -0.011 C 
HETATM   18  C10 UNL     1      24.839   7.751  48.347  1.00  0.00     0.046 A 
HETATM   19  C11 UNL     1      24.407   8.716  47.233  1.00  0.00    -0.020 C 
ENDBRANCH   3  11
BRANCH   6  20
HETATM   20  N2  UNL     1      25.483   3.234  51.758  1.00  0.00    -0.360 N 
HETATM   21  H15 UNL     1      25.996   3.877  52.405  1.00  0.00     0.162 HD
BRANCH  20  22
HETATM   22  C15 UNL     1      25.578   1.872  52.183  1.00  0.00     0.031 A 
HETATM   23  C16 UNL     1      26.696   1.058  51.986  1.00  0.00     0.029 A 
HETATM   24  C17 UNL     1      26.620  -0.233  52.452  1.00  0.00     0.004 A 
HETATM   25  C18 UNL     1      25.518  -0.757  53.091  1.00  0.00     0.019 A 
HETATM   26  C19 UNL     1      24.421   0.044  53.284  1.00  0.00     0.013 A 
HETATM   27 BR1  UNL     1      22.939  -0.746  54.172  1.00  0.00    -0.051 Br
HETATM   28  C20 UNL     1      24.466   1.341  52.829  1.00  0.00     0.048 A 
ENDBRANCH  20  22
ENDBRANCH   6  20
BRANCH   8  29
HETATM   29  N4  UNL     1      22.665   2.786  47.911  1.00  0.00    -0.232 N 
HETATM   30  H20 UNL     1      23.009   2.508  46.957  1.00  0.00     0.174 HD
HETATM   31  H21 UNL     1      21.701   2.453  48.131  1.00  0.00     0.174 HD
ENDBRANCH   8  29
TORSDOF 4
ENDMDL
MODEL 4
REMARK VINA RESULT:      -8.2      1.691      2.481
REMARK  4 active torsions:
REMARK  status: ('A' for Active; 'I' for Inactive)
REMARK    1  A    between atoms: C3_3  and  C4_4 
REMARK    2  A    between atoms: C14_15  and  N2_16 
REMARK    3  A    between atoms: N2_16  and  C15_17 
REMARK    4  A    between atoms: C21_25  and  N4_26 
ROOT
HETATM    1  C1  UNL     1      21.804   3.966  52.341  1.00  0.00     0.018 C 
HETATM    2  C2  UNL     1      22.725   3.782  51.425  1.00  0.00     0.039 C 
HETATM    3  C3  UNL     1      23.028   3.349  50.070  1.00  0.00     0.102 C 
HETATM    4  N1  UNL     1      24.098   4.265  49.721  1.00  0.00    -0.206 NA
HETATM    5  C13 UNL     1      25.008   3.968  50.844  1.00  0.00     0.171 C 
HETATM    6  C14 UNL     1      24.063   4.190  52.006  1.00  0.00     0.168 C 
HETATM    7  N3  UNL     1      24.025   5.618  52.247  1.00  0.00    -0.072 NA
HETATM    8  C21 UNL     1      23.831   6.318  51.155  1.00  0.00     0.706 C 
HETATM    9  N5  UNL     1      23.712   5.602  49.932  1.00  0.00    -0.150 N 
HETATM   10  H22 UNL     1      23.294   6.151  49.134  1.00  0.00     0.199 HD
ENDROOT
BRANCH   3  11
HETATM   11  C4  UNL     1      21.800   3.649  49.118  1.00  0.00     0.040 C 
HETATM   12  C5  UNL     1      20.854   2.443  49.631  1.00  0.00    -0.016 C 
HETATM   13  C6  UNL     1      19.927   2.709  48.609  1.00  0.00    -0.070 C 
HETATM   14  C7  UNL     1      18.438   2.930  48.642  1.00  0.00     0.044 C 
HETATM   15  C8  UNL     1      21.040   2.464  47.544  1.00  0.00     0.025 A 
HETATM   16  C9  UNL     1      22.335   2.077  47.557  1.00  0.00    -0.025 A 
HETATM   17  C12 UNL     1      20.561   3.729  46.713  1.00  0.00    -0.011 C 
HETATM   18  C10 UNL     1      22.374   3.516  47.821  1.00  0.00     0.046 A 
HETATM   19  C11 UNL     1      21.897   3.887  46.408  1.00  0.00    -0.020 C 
ENDBRANCH   3  11
BRANCH   6  20
HETATM   20  N2  UNL     1      24.380   3.405  53.169  1.00  0.00    -0.360 N 
HETATM   21  H15 UNL     1      24.280   3.892  54.089  1.00  0.00     0.162 HD
BRANCH  20  22
HETATM   22  C15 UNL     1      24.818   2.053  53.332  1.00  0.00     0.031 A 
HETATM   23  C16 UNL     1      24.036   0.930  53.051  1.00  0.00     0.029 A 
HETATM   24  C17 UNL     1      24.609  -0.301  53.269  1.00  0.00     0.004 A 
HETATM   25  C18 UNL     1      25.891  -0.481  53.742  1.00  0.00     0.019 A 
HETATM   26  C19 UNL     1      26.657   0.623  54.017  1.00  0.00     0.013 A 
HETATM   27 BR1  UNL     1      28.412   0.299  54.666  1.00  0.00    -0.051 Br
HETATM   28  C20 UNL     1      26.111   1.869  53.809  1.00  0.00     0.048 A 
ENDBRANCH  20  22
ENDBRANCH   6  20
BRANCH   8  29
HETATM   29  N4  UNL     1      23.748   7.737  51.226  1.00  0.00    -0.232 N 
HETATM   30  H20 UNL     1      24.435   8.388  50.767  1.00  0.00     0.174 HD
HETATM   31  H21 UNL     1      22.985   8.219  51.747  1.00  0.00     0.174 HD
ENDBRANCH   8  29
TORSDOF 4
ENDMDL
MODEL 5
REMARK VINA RESULT:      -8.0      4.140      5.259
REMARK  4 active torsions:
REMARK  status: ('A' for Active; 'I' for Inactive)
REMARK    1  A    between atoms: C3_3  and  C4_4 
REMARK    2  A    between atoms: C14_15  and  N2_16 
REMARK    3  A    between atoms: N2_16  and  C15_17 
REMARK    4  A    between atoms: C21_25  and  N4_26 
ROOT
HETATM    1  C1  UNL     1      23.930   4.035  52.645  1.00  0.00     0.018 C 
HETATM    2  C2  UNL     1      23.501   3.812  51.425  1.00  0.00     0.039 C 
HETATM    3  C3  UNL     1      22.718   2.961  50.544  1.00  0.00     0.102 C 
HETATM    4  N1  UNL     1      22.172   3.944  49.626  1.00  0.00    -0.206 NA
HETATM    5  C13 UNL     1      23.441   4.548  49.181  1.00  0.00     0.171 C 
HETATM    6  C14 UNL     1      24.043   4.903  50.524  1.00  0.00     0.168 C 
HETATM    7  N3  UNL     1      23.442   6.156  50.933  1.00  0.00    -0.072 NA
HETATM    8  C21 UNL     1      22.135   6.158  50.824  1.00  0.00     0.706 C 
HETATM    9  N5  UNL     1      21.519   4.980  50.319  1.00  0.00    -0.150 N 
HETATM   10  H22 UNL     1      20.481   4.910  50.497  1.00  0.00     0.199 HD
ENDROOT
BRANCH   3  11
HETATM   11  C4  UNL     1      21.512   2.318  51.343  1.00  0.00     0.040 C 
HETATM   12  C5  UNL     1      22.389   1.287  52.226  1.00  0.00    -0.016 C 
HETATM   13  C6  UNL     1      21.219   0.683  52.718  1.00  0.00    -0.070 C 
HETATM   14  C7  UNL     1      20.767   0.376  54.121  1.00  0.00     0.044 C 
HETATM   15  C8  UNL     1      20.792   0.335  51.259  1.00  0.00     0.025 A 
HETATM   16  C9  UNL     1      21.330   0.467  50.026  1.00  0.00    -0.025 A 
HETATM   17  C12 UNL     1      19.298   0.778  51.562  1.00  0.00    -0.011 C 
HETATM   18  C10 UNL     1      20.711   1.764  50.303  1.00  0.00     0.046 A 
HETATM   19  C11 UNL     1      19.282   1.203  50.251  1.00  0.00    -0.020 C 
ENDBRANCH   3  11
BRANCH   6  20
HETATM   20  N2  UNL     1      25.481   4.909  50.532  1.00  0.00    -0.360 N 
HETATM   21  H15 UNL     1      25.935   4.444  51.352  1.00  0.00     0.162 HD
BRANCH  20  22
HETATM   22  C15 UNL     1      26.450   5.438  49.622  1.00  0.00     0.031 A 
HETATM   23  C16 UNL     1      27.445   4.680  48.999  1.00  0.00     0.029 A 
HETATM   24  C17 UNL     1      28.302   5.346  48.155  1.00  0.00     0.004 A 
HETATM   25  C18 UNL     1      28.230   6.698  47.895  1.00  0.00     0.019 A 
HETATM   26  C19 UNL     1      27.253   7.440  48.507  1.00  0.00     0.013 A 
HETATM   27 BR1  UNL     1      27.216   9.295  48.103  1.00  0.00    -0.051 Br
HETATM   28  C20 UNL     1      26.381   6.802  49.358  1.00  0.00     0.048 A 
ENDBRANCH  20  22
ENDBRANCH   6  20
BRANCH   8  29
HETATM   29  N4  UNL     1      21.392   7.310  51.207  1.00  0.00    -0.232 N 
HETATM   30  H20 UNL     1      20.402   7.279  51.561  1.00  0.00     0.174 HD
HETATM   31  H21 UNL     1      21.797   8.269  51.155  1.00  0.00     0.174 HD
ENDBRANCH   8  29
TORSDOF 4
ENDMDL
MODEL 6
REMARK VINA RESULT:      -7.7      3.207      4.859
REMARK  4 active torsions:
REMARK  status: ('A' for Active; 'I' for Inactive)
REMARK    1  A    between atoms: C3_3  and  C4_4 
REMARK    2  A    between atoms: C14_15  and  N2_16 
REMARK    3  A    between atoms: N2_16  and  C15_17 
REMARK    4  A    between atoms: C21_25  and  N4_26 
ROOT
HETATM    1  C1  UNL     1      21.135   1.117  49.768  1.00  0.00     0.018 C 
HETATM    2  C2  UNL     1      21.122   1.867  50.846  1.00  0.00     0.039 C 
HETATM    3  C3  UNL     1      21.472   3.143  51.447  1.00  0.00     0.102 C 
HETATM    4  N1  UNL     1      20.357   3.333  52.356  1.00  0.00    -0.206 NA
HETATM    5  C13 UNL     1      20.478   2.071  53.109  1.00  0.00     0.171 C 
HETATM    6  C14 UNL     1      20.461   1.084  51.961  1.00  0.00     0.168 C 
HETATM    7  N3  UNL     1      19.073   0.885  51.601  1.00  0.00    -0.072 NA
HETATM    8  C21 UNL     1      18.414   2.010  51.455  1.00  0.00     0.706 C 
HETATM    9  N5  UNL     1      19.126   3.219  51.683  1.00  0.00    -0.150 N 
HETATM   10  H22 UNL     1      18.663   4.087  51.301  1.00  0.00     0.199 HD
ENDROOT
BRANCH   3  11
HETATM   11  C4  UNL     1      21.414   4.289  50.357  1.00  0.00     0.040 C 
HETATM   12  C5  UNL     1      22.652   3.770  49.458  1.00  0.00    -0.016 C 
HETATM   13  C6  UNL     1      22.602   4.938  48.679  1.00  0.00    -0.070 C 
HETATM   14  C7  UNL     1      22.542   5.145  47.189  1.00  0.00     0.044 C 
HETATM   15  C8  UNL     1      22.839   5.796  49.960  1.00  0.00     0.025 A 
HETATM   16  C9  UNL     1      23.078   5.552  51.268  1.00  0.00    -0.025 A 
HETATM   17  C12 UNL     1      21.732   6.837  49.501  1.00  0.00    -0.011 C 
HETATM   18  C10 UNL     1      21.624   5.466  51.134  1.00  0.00     0.046 A 
HETATM   19  C11 UNL     1      21.463   6.967  50.847  1.00  0.00    -0.020 C 
ENDBRANCH   3  11
BRANCH   6  20
HETATM   20  N2  UNL     1      21.180  -0.133  52.232  1.00  0.00    -0.360 N 
HETATM   21  H15 UNL     1      20.996  -0.926  51.576  1.00  0.00     0.162 HD
BRANCH  20  22
HETATM   22  C15 UNL     1      22.122  -0.493  53.247  1.00  0.00     0.031 A 
HETATM   23  C16 UNL     1      21.788  -1.121  54.449  1.00  0.00     0.029 A 
HETATM   24  C17 UNL     1      22.816  -1.393  55.319  1.00  0.00     0.004 A 
HETATM   25  C18 UNL     1      24.136  -1.084  55.072  1.00  0.00     0.019 A 
HETATM   26  C19 UNL     1      24.463  -0.468  53.891  1.00  0.00     0.013 A 
HETATM   27 BR1  UNL     1      26.300  -0.071  53.619  1.00  0.00    -0.051 Br
HETATM   28  C20 UNL     1      23.455  -0.182  52.999  1.00  0.00     0.048 A 
ENDBRANCH  20  22
ENDBRANCH   6  20
BRANCH   8  29
HETATM   29  N4  UNL     1      17.041   1.986  51.081  1.00  0.00    -0.232 N 
HETATM   30  H20 UNL     1      16.258   1.741  51.739  1.00  0.00     0.174 HD
HETATM   31  H21 UNL     1      16.729   2.216  50.113  1.00  0.00     0.174 HD
ENDBRANCH   8  29
TORSDOF 4
ENDMDL
MODEL 7
REMARK VINA RESULT:      -7.5      2.977      4.345
REMARK  4 active torsions:
REMARK  status: ('A' for Active; 'I' for Inactive)
REMARK    1  A    between atoms: C3_3  and  C4_4 
REMARK    2  A    between atoms: C14_15  and  N2_16 
REMARK    3  A    between atoms: N2_16  and  C15_17 
REMARK    4  A    between atoms: C21_25  and  N4_26 
ROOT
HETATM    1  C1  UNL     1      23.320   2.768  49.128  1.00  0.00     0.018 C 
HETATM    2  C2  UNL     1      23.521   3.586  50.134  1.00  0.00     0.039 C 
HETATM    3  C3  UNL     1      23.750   4.955  50.566  1.00  0.00     0.102 C 
HETATM    4  N1  UNL     1      23.030   4.969  51.827  1.00  0.00    -0.206 NA
HETATM    5  C13 UNL     1      23.714   3.835  52.476  1.00  0.00     0.171 C 
HETATM    6  C14 UNL     1      23.517   2.774  51.413  1.00  0.00     0.168 C 
HETATM    7  N3  UNL     1      22.183   2.241  51.597  1.00  0.00    -0.072 NA
HETATM    8  C21 UNL     1      21.268   3.174  51.711  1.00  0.00     0.706 C 
HETATM    9  N5  UNL     1      21.704   4.527  51.661  1.00  0.00    -0.150 N 
HETATM   10  H22 UNL     1      20.942   5.234  51.483  1.00  0.00     0.199 HD
ENDROOT
BRANCH   3  11
HETATM   11  C4  UNL     1      23.027   5.961  49.581  1.00  0.00     0.040 C 
HETATM   12  C5  UNL     1      24.191   6.009  48.461  1.00  0.00    -0.016 C 
HETATM   13  C6  UNL     1      23.522   7.041  47.782  1.00  0.00    -0.070 C 
HETATM   14  C7  UNL     1      23.121   7.193  46.338  1.00  0.00     0.044 C 
HETATM   15  C8  UNL     1      23.599   7.927  49.063  1.00  0.00     0.025 A 
HETATM   16  C9  UNL     1      24.143   7.816  50.295  1.00  0.00    -0.025 A 
HETATM   17  C12 UNL     1      22.097   8.398  48.861  1.00  0.00    -0.011 C 
HETATM   18  C10 UNL     1      22.859   7.121  50.392  1.00  0.00     0.046 A 
HETATM   19  C11 UNL     1      22.039   8.411  50.238  1.00  0.00    -0.020 C 
ENDBRANCH   3  11
BRANCH   6  20
HETATM   20  N2  UNL     1      24.553   1.776  51.392  1.00  0.00    -0.360 N 
HETATM   21  H15 UNL     1      24.940   1.540  50.449  1.00  0.00     0.162 HD
BRANCH  20  22
HETATM   22  C15 UNL     1      25.182   1.015  52.427  1.00  0.00     0.031 A 
HETATM   23  C16 UNL     1      24.506   0.167  53.308  1.00  0.00     0.029 A 
HETATM   24  C17 UNL     1      25.263  -0.488  54.250  1.00  0.00     0.004 A 
HETATM   25  C18 UNL     1      26.629  -0.354  54.369  1.00  0.00     0.019 A 
HETATM   26  C19 UNL     1      27.291   0.479  53.504  1.00  0.00     0.013 A 
HETATM   27 BR1  UNL     1      29.172   0.614  53.728  1.00  0.00    -0.051 Br
HETATM   28  C20 UNL     1      26.561   1.148  52.550  1.00  0.00     0.048 A 
ENDBRANCH  20  22
ENDBRANCH   6  20
BRANCH   8  29
HETATM   29  N4  UNL     1      19.902   2.813  51.877  1.00  0.00    -0.232 N 
HETATM   30  H20 UNL     1      19.499   2.435  52.772  1.00  0.00     0.174 HD
HETATM   31  H21 UNL     1      19.209   2.907  51.103  1.00  0.00     0.174 HD
ENDBRANCH   8  29
TORSDOF 4
ENDMDL
MODEL 8
REMARK VINA RESULT:      -7.4      9.080     11.554
REMARK  4 active torsions:
REMARK  status: ('A' for Active; 'I' for Inactive)
REMARK    1  A    between atoms: C3_3  and  C4_4 
REMARK    2  A    between atoms: C14_15  and  N2_16 
REMARK    3  A    between atoms: N2_16  and  C15_17 
REMARK    4  A    between atoms: C21_25  and  N4_26 
ROOT
HETATM    1  C1  UNL     1      31.194   7.655  45.383  1.00  0.00     0.018 C 
HETATM    2  C2  UNL     1      31.490   7.296  46.610  1.00  0.00     0.039 C 
HETATM    3  C3  UNL     1      32.097   6.298  47.476  1.00  0.00     0.102 C 
HETATM    4  N1  UNL     1      32.665   7.142  48.511  1.00  0.00    -0.206 NA
HETATM    5  C13 UNL     1      31.435   7.854  48.905  1.00  0.00     0.171 C 
HETATM    6  C14 UNL     1      30.994   8.373  47.552  1.00  0.00     0.168 C 
HETATM    7  N3  UNL     1      31.761   9.575  47.296  1.00  0.00    -0.072 NA
HETATM    8  C21 UNL     1      33.047   9.418  47.506  1.00  0.00     0.706 C 
HETATM    9  N5  UNL     1      33.485   8.143  47.958  1.00  0.00    -0.150 N 
HETATM   10  H22 UNL     1      34.520   7.967  47.857  1.00  0.00     0.199 HD
ENDROOT
BRANCH   3  11
HETATM   11  C4  UNL     1      33.289   5.580  46.722  1.00  0.00     0.040 C 
HETATM   12  C5  UNL     1      32.473   5.198  45.381  1.00  0.00    -0.016 C 
HETATM   13  C6  UNL     1      33.557   4.434  44.916  1.00  0.00    -0.070 C 
HETATM   14  C7  UNL     1      34.293   4.439  43.603  1.00  0.00     0.044 C 
HETATM   15  C8  UNL     1      33.471   3.544  46.194  1.00  0.00     0.025 A 
HETATM   16  C9  UNL     1      32.660   3.460  47.273  1.00  0.00    -0.025 A 
HETATM   17  C12 UNL     1      35.051   3.560  46.345  1.00  0.00    -0.011 C 
HETATM   18  C10 UNL     1      33.618   4.513  47.609  1.00  0.00     0.046 A 
HETATM   19  C11 UNL     1      34.804   3.541  47.702  1.00  0.00    -0.020 C 
ENDBRANCH   3  11
BRANCH   6  20
HETATM   20  N2  UNL     1      29.571   8.546  47.434  1.00  0.00    -0.360 N 
HETATM   21  H15 UNL     1      29.222   8.810  46.483  1.00  0.00     0.162 HD
BRANCH  20  22
HETATM   22  C15 UNL     1      28.502   8.429  48.376  1.00  0.00     0.031 A 
HETATM   23  C16 UNL     1      28.205   9.378  49.357  1.00  0.00     0.029 A 
HETATM   24  C17 UNL     1      27.144   9.108  50.188  1.00  0.00     0.004 A 
HETATM   25  C18 UNL     1      26.372   7.970  50.105  1.00  0.00     0.019 A 
HETATM   26  C19 UNL     1      26.664   7.039  49.141  1.00  0.00     0.013 A 
HETATM   27 BR1  UNL     1      25.558   5.496  49.087  1.00  0.00    -0.051 Br
HETATM   28  C20 UNL     1      27.720   7.281  48.294  1.00  0.00     0.048 A 
ENDBRANCH  20  22
ENDBRANCH   6  20
BRANCH   8  29
HETATM   29  N4  UNL     1      33.941  10.501  47.278  1.00  0.00    -0.232 N 
HETATM   30  H20 UNL     1      34.866  10.611  47.767  1.00  0.00     0.174 HD
HETATM   31  H21 UNL     1      33.724  11.262  46.599  1.00  0.00     0.174 HD
ENDBRANCH   8  29
TORSDOF 4
ENDMDL
MODEL 9
REMARK VINA RESULT:      -7.4      3.429      6.068
REMARK  4 active torsions:
REMARK  status: ('A' for Active; 'I' for Inactive)
REMARK    1  A    between atoms: C3_3  and  C4_4 
REMARK    2  A    between atoms: C14_15  and  N2_16 
REMARK    3  A    between atoms: N2_16  and  C15_17 
REMARK    4  A    between atoms: C21_25  and  N4_26 
ROOT
HETATM    1  C1  UNL     1      23.361   2.027  50.158  1.00  0.00     0.018 C 
HETATM    2  C2  UNL     1      23.412   2.125  51.466  1.00  0.00     0.039 C 
HETATM    3  C3  UNL     1      22.734   1.903  52.732  1.00  0.00     0.102 C 
HETATM    4  N1  UNL     1      23.854   1.545  53.585  1.00  0.00    -0.206 NA
HETATM    5  C13 UNL     1      24.684   2.743  53.358  1.00  0.00     0.171 C 
HETATM    6  C14 UNL     1      24.748   2.730  51.845  1.00  0.00     0.168 C 
HETATM    7  N3  UNL     1      25.783   1.785  51.479  1.00  0.00    -0.072 NA
HETATM    8  C21 UNL     1      25.672   0.635  52.100  1.00  0.00     0.706 C 
HETATM    9  N5  UNL     1      24.602   0.493  53.026  1.00  0.00    -0.150 N 
HETATM   10  H22 UNL     1      24.378  -0.502  53.297  1.00  0.00     0.199 HD
ENDROOT
BRANCH   3  11
HETATM   11  C4  UNL     1      21.783   0.642  52.623  1.00  0.00     0.040 C 
HETATM   12  C5  UNL     1      20.421   1.450  52.303  1.00  0.00    -0.016 C 
HETATM   13  C6  UNL     1      19.669   0.269  52.420  1.00  0.00    -0.070 C 
HETATM   14  C7  UNL     1      18.656  -0.367  51.505  1.00  0.00     0.044 C 
HETATM   15  C8  UNL     1      20.178   0.096  53.884  1.00  0.00     0.025 A 
HETATM   16  C9  UNL     1      20.950   0.804  54.739  1.00  0.00    -0.025 A 
HETATM   17  C12 UNL     1      20.414  -1.455  53.648  1.00  0.00    -0.011 C 
HETATM   18  C10 UNL     1      21.899   0.054  53.916  1.00  0.00     0.046 A 
HETATM   19  C11 UNL     1      21.484  -1.304  54.503  1.00  0.00    -0.020 C 
ENDBRANCH   3  11
BRANCH   6  20
HETATM   20  N2  UNL     1      24.907   4.034  51.261  1.00  0.00    -0.360 N 
HETATM   21  H15 UNL     1      25.894   4.348  51.109  1.00  0.00     0.162 HD
BRANCH  20  22
HETATM   22  C15 UNL     1      23.966   5.022  50.831  1.00  0.00     0.031 A 
HETATM   23  C16 UNL     1      22.917   5.508  51.614  1.00  0.00     0.029 A 
HETATM   24  C17 UNL     1      22.098   6.454  51.045  1.00  0.00     0.004 A 
HETATM   25  C18 UNL     1      22.255   6.939  49.765  1.00  0.00     0.019 A 
HETATM   26  C19 UNL     1      23.286   6.461  48.997  1.00  0.00     0.013 A 
HETATM   27 BR1  UNL     1      23.440   7.173  47.244  1.00  0.00    -0.051 Br
HETATM   28  C20 UNL     1      24.122   5.513  49.539  1.00  0.00     0.048 A 
ENDBRANCH  20  22
ENDBRANCH   6  20
BRANCH   8  29
HETATM   29  N4  UNL     1      26.602  -0.409  51.834  1.00  0.00    -0.232 N 
HETATM   30  H20 UNL     1      26.562  -1.359  52.284  1.00  0.00     0.174 HD
HETATM   31  H21 UNL     1      27.390  -0.287  51.163  1.00  0.00     0.174 HD
ENDBRANCH   8  29
TORSDOF 4
ENDMDL
