MODEL 1
REMARK VINA RESULT:      -6.6      0.000      0.000
REMARK  3 active torsions:
REMARK  status: ('A' for Active; 'I' for Inactive)
REMARK    1  A    between atoms: P1_1  and  N1_2 
REMARK    2  A    between atoms: C6_11  and  N5_12 
REMARK    3  A    between atoms: N5_12  and  C7_13 
ROOT
HETATM    1  N1  UNL     1      19.076   2.432  51.458  1.00  0.00    -0.284 N 
HETATM    2  C1  UNL     1      19.974   2.051  52.510  1.00  0.00     0.186 C 
HETATM    3  C2  UNL     1      20.225   0.591  52.656  1.00  0.00     0.087 A 
HETATM    4  C3  UNL     1      19.169  -0.302  52.093  1.00  0.00     0.087 C 
HETATM    5  C4  UNL     1      18.227   0.323  51.175  1.00  0.00     0.114 C 
HETATM    6  N2  UNL     1      18.147   1.578  50.853  1.00  0.00    -0.190 NA
HETATM    7  N3  UNL     1      20.297   0.314  54.078  1.00  0.00    -0.368 N 
HETATM    8  C5  UNL     1      21.242  -0.168  54.998  1.00  0.00     0.206 A 
HETATM    9  N4  UNL     1      22.403  -0.484  54.582  1.00  0.00    -0.226 NA
HETATM   10  C6  UNL     1      22.939  -0.433  53.300  1.00  0.00     0.139 A 
HETATM   11  P2  UNL     1      21.955   0.115  52.077  1.00  0.00     0.026 P 
HETATM   12  H8  UNL     1      19.379   0.561  54.452  1.00  0.00     0.161 HD
ENDROOT
BRANCH  10  13
HETATM   13  N5  UNL     1      24.321  -0.868  53.192  1.00  0.00    -0.340 N 
HETATM   14  H10 UNL     1      24.462  -1.896  52.995  1.00  0.00     0.167 HD
BRANCH  13  15
HETATM   15  C7  UNL     1      25.345   0.143  53.360  1.00  0.00     0.035 A 
HETATM   16  C8  UNL     1      25.367   1.518  53.445  1.00  0.00     0.029 A 
HETATM   17  C9  UNL     1      26.588   2.137  53.572  1.00  0.00     0.004 A 
HETATM   18  C10 UNL     1      27.761   1.440  53.617  1.00  0.00     0.019 A 
HETATM   19  C11 UNL     1      27.778   0.061  53.535  1.00  0.00     0.013 A 
HETATM   20 BR1  UNL     1      29.478  -0.829  53.597  1.00  0.00    -0.051 Br
HETATM   21  C12 UNL     1      26.542  -0.580  53.407  1.00  0.00     0.048 A 
ENDBRANCH  13  15
ENDBRANCH  10  13
BRANCH   1  22
HETATM   22  P1  UNL     1      19.061   4.116  50.807  1.00  0.00    -0.017 P 
HETATM   23  H1  UNL     1      17.988   4.809  51.522  1.00  0.00     0.079 HD
HETATM   24  H2  UNL     1      18.682   4.117  49.396  1.00  0.00     0.079 HD
ENDBRANCH   1  22
TORSDOF 3
ENDMDL
MODEL 2
REMARK VINA RESULT:      -6.5      5.387      7.038
REMARK  3 active torsions:
REMARK  status: ('A' for Active; 'I' for Inactive)
REMARK    1  A    between atoms: P1_1  and  N1_2 
REMARK    2  A    between atoms: C6_11  and  N5_12 
REMARK    3  A    between atoms: N5_12  and  C7_13 
ROOT
HETATM    1  N1  UNL     1      23.587   0.284  53.415  1.00  0.00    -0.284 N 
HETATM    2  C1  UNL     1      23.293   1.617  52.974  1.00  0.00     0.186 C 
HETATM    3  C2  UNL     1      24.466   2.515  52.786  1.00  0.00     0.087 A 
HETATM    4  C3  UNL     1      25.694   2.136  53.547  1.00  0.00     0.087 C 
HETATM    5  C4  UNL     1      25.722   0.781  54.080  1.00  0.00     0.114 C 
HETATM    6  N2  UNL     1      24.776  -0.106  54.042  1.00  0.00    -0.190 NA
HETATM    7  N3  UNL     1      24.072   3.831  53.250  1.00  0.00    -0.368 N 
HETATM    8  C5  UNL     1      23.915   5.120  52.716  1.00  0.00     0.206 A 
HETATM    9  N4  UNL     1      24.161   5.310  51.481  1.00  0.00    -0.226 NA
HETATM   10  C6  UNL     1      24.580   4.414  50.504  1.00  0.00     0.139 A 
HETATM   11  P2  UNL     1      24.818   2.834  50.961  1.00  0.00     0.026 P 
HETATM   12  H8  UNL     1      23.859   3.719  54.243  1.00  0.00     0.161 HD
ENDROOT
BRANCH  10  13
HETATM   13  N5  UNL     1      24.754   4.984  49.179  1.00  0.00    -0.340 N 
HETATM   14  H10 UNL     1      23.874   5.081  48.604  1.00  0.00     0.167 HD
BRANCH  13  15
HETATM   15  C7  UNL     1      26.100   5.357  48.794  1.00  0.00     0.035 A 
HETATM   16  C8  UNL     1      27.332   4.739  48.796  1.00  0.00     0.029 A 
HETATM   17  C9  UNL     1      28.419   5.466  48.369  1.00  0.00     0.004 A 
HETATM   18  C10 UNL     1      28.315   6.760  47.949  1.00  0.00     0.019 A 
HETATM   19  C11 UNL     1      27.097   7.411  47.932  1.00  0.00     0.013 A 
HETATM   20 BR1  UNL     1      27.053   9.235  47.332  1.00  0.00    -0.051 Br
HETATM   21  C12 UNL     1      25.983   6.682  48.362  1.00  0.00     0.048 A 
ENDBRANCH  13  15
ENDBRANCH  10  13
BRANCH   1  22
HETATM   22  P1  UNL     1      22.396  -1.056  53.198  1.00  0.00    -0.017 P 
HETATM   23  H1  UNL     1      23.174  -2.294  53.263  1.00  0.00     0.079 HD
HETATM   24  H2  UNL     1      21.809  -1.009  51.861  1.00  0.00     0.079 HD
ENDBRANCH   1  22
TORSDOF 3
ENDMDL
MODEL 3
REMARK VINA RESULT:      -6.5      5.342      8.066
REMARK  3 active torsions:
REMARK  status: ('A' for Active; 'I' for Inactive)
REMARK    1  A    between atoms: P1_1  and  N1_2 
REMARK    2  A    between atoms: C6_11  and  N5_12 
REMARK    3  A    between atoms: N5_12  and  C7_13 
ROOT
HETATM    1  N1  UNL     1      28.127  -0.534  53.406  1.00  0.00    -0.284 N 
HETATM    2  C1  UNL     1      26.879   0.120  53.136  1.00  0.00     0.186 C 
HETATM    3  C2  UNL     1      26.923   1.607  53.076  1.00  0.00     0.087 A 
HETATM    4  C3  UNL     1      28.065   2.246  53.795  1.00  0.00     0.087 C 
HETATM    5  C4  UNL     1      29.169   1.365  54.151  1.00  0.00     0.114 C 
HETATM    6  N2  UNL     1      29.241   0.079  53.990  1.00  0.00    -0.190 NA
HETATM    7  N3  UNL     1      25.708   2.093  53.701  1.00  0.00    -0.368 N 
HETATM    8  C5  UNL     1      24.573   2.834  53.335  1.00  0.00     0.206 A 
HETATM    9  N4  UNL     1      24.470   3.253  52.137  1.00  0.00    -0.226 NA
HETATM   10  C6  UNL     1      25.332   3.098  51.057  1.00  0.00     0.139 A 
HETATM   11  P2  UNL     1      26.735   2.243  51.311  1.00  0.00     0.026 P 
HETATM   12  H8  UNL     1      25.750   1.770  54.670  1.00  0.00     0.161 HD
ENDROOT
BRANCH  10  13
HETATM   13  N5  UNL     1      24.885   3.711  49.818  1.00  0.00    -0.340 N 
HETATM   14  H10 UNL     1      23.984   3.332  49.420  1.00  0.00     0.167 HD
BRANCH  13  15
HETATM   15  C7  UNL     1      25.713   4.765  49.268  1.00  0.00     0.035 A 
HETATM   16  C8  UNL     1      27.012   4.864  48.817  1.00  0.00     0.029 A 
HETATM   17  C9  UNL     1      27.453   6.094  48.389  1.00  0.00     0.004 A 
HETATM   18  C10 UNL     1      26.656   7.202  48.396  1.00  0.00     0.019 A 
HETATM   19  C11 UNL     1      25.350   7.140  48.841  1.00  0.00     0.013 A 
HETATM   20 BR1  UNL     1      24.310   8.755  48.821  1.00  0.00    -0.051 Br
HETATM   21  C12 UNL     1      24.888   5.895  49.277  1.00  0.00     0.048 A 
ENDBRANCH  13  15
ENDBRANCH  10  13
BRANCH   1  22
HETATM   22  P1  UNL     1      28.372  -2.279  53.007  1.00  0.00    -0.017 P 
HETATM   23  H1  UNL     1      27.355  -3.007  53.768  1.00  0.00     0.079 HD
HETATM   24  H2  UNL     1      29.666  -2.741  53.503  1.00  0.00     0.079 HD
ENDBRANCH   1  22
TORSDOF 3
ENDMDL
MODEL 4
REMARK VINA RESULT:      -6.5      5.418      6.360
REMARK  3 active torsions:
REMARK  status: ('A' for Active; 'I' for Inactive)
REMARK    1  A    between atoms: P1_1  and  N1_2 
REMARK    2  A    between atoms: C6_11  and  N5_12 
REMARK    3  A    between atoms: N5_12  and  C7_13 
ROOT
HETATM    1  N1  UNL     1      25.325   8.058  49.549  1.00  0.00    -0.284 N 
HETATM    2  C1  UNL     1      25.272   7.013  50.530  1.00  0.00     0.186 C 
HETATM    3  C2  UNL     1      23.930   6.421  50.781  1.00  0.00     0.087 A 
HETATM    4  C3  UNL     1      22.768   7.286  50.415  1.00  0.00     0.087 C 
HETATM    5  C4  UNL     1      23.063   8.419  49.548  1.00  0.00     0.114 C 
HETATM    6  N2  UNL     1      24.226   8.811  49.124  1.00  0.00    -0.190 NA
HETATM    7  N3  UNL     1      23.835   6.171  52.206  1.00  0.00    -0.368 N 
HETATM    8  C5  UNL     1      23.680   5.068  53.061  1.00  0.00     0.206 A 
HETATM    9  N4  UNL     1      23.584   3.903  52.555  1.00  0.00    -0.226 NA
HETATM   10  C6  UNL     1      23.608   3.501  51.225  1.00  0.00     0.139 A 
HETATM   11  P2  UNL     1      23.786   4.682  50.068  1.00  0.00     0.026 P 
HETATM   12  H8  UNL     1      23.914   7.087  52.651  1.00  0.00     0.161 HD
ENDROOT
BRANCH  10  13
HETATM   13  N5  UNL     1      23.480   2.070  51.011  1.00  0.00    -0.340 N 
HETATM   14  H10 UNL     1      22.860   1.782  50.206  1.00  0.00     0.167 HD
BRANCH  13  15
HETATM   15  C7  UNL     1      24.208   1.201  51.913  1.00  0.00     0.035 A 
HETATM   16  C8  UNL     1      25.533   0.886  52.123  1.00  0.00     0.029 A 
HETATM   17  C9  UNL     1      25.830  -0.047  53.087  1.00  0.00     0.004 A 
HETATM   18  C10 UNL     1      24.866  -0.662  53.833  1.00  0.00     0.019 A 
HETATM   19  C11 UNL     1      23.528  -0.372  53.651  1.00  0.00     0.013 A 
HETATM   20 BR1  UNL     1      22.245  -1.296  54.742  1.00  0.00    -0.051 Br
HETATM   21  C12 UNL     1      23.213   0.578  52.674  1.00  0.00     0.048 A 
ENDBRANCH  13  15
ENDBRANCH  10  13
BRANCH   1  22
HETATM   22  P1  UNL     1      26.881   8.514  48.754  1.00  0.00    -0.017 P 
HETATM   23  H1  UNL     1      27.853   8.666  49.838  1.00  0.00     0.079 HD
HETATM   24  H2  UNL     1      26.768   9.824  48.118  1.00  0.00     0.079 HD
ENDBRANCH   1  22
TORSDOF 3
ENDMDL
MODEL 5
REMARK VINA RESULT:      -6.4      3.360      3.705
REMARK  3 active torsions:
REMARK  status: ('A' for Active; 'I' for Inactive)
REMARK    1  A    between atoms: P1_1  and  N1_2 
REMARK    2  A    between atoms: C6_11  and  N5_12 
REMARK    3  A    between atoms: N5_12  and  C7_13 
ROOT
HETATM    1  N1  UNL     1      21.151   4.070  48.650  1.00  0.00    -0.284 N 
HETATM    2  C1  UNL     1      21.938   4.144  49.847  1.00  0.00     0.186 C 
HETATM    3  C2  UNL     1      22.635   2.892  50.248  1.00  0.00     0.087 A 
HETATM    4  C3  UNL     1      22.047   1.628  49.709  1.00  0.00     0.087 C 
HETATM    5  C4  UNL     1      21.116   1.780  48.600  1.00  0.00     0.114 C 
HETATM    6  N2  UNL     1      20.676   2.884  48.078  1.00  0.00    -0.190 NA
HETATM    7  N3  UNL     1      22.560   2.808  51.693  1.00  0.00    -0.368 N 
HETATM    8  C5  UNL     1      23.445   2.792  52.783  1.00  0.00     0.206 A 
HETATM    9  N4  UNL     1      24.697   2.865  52.562  1.00  0.00    -0.226 NA
HETATM   10  C6  UNL     1      25.389   2.968  51.361  1.00  0.00     0.139 A 
HETATM   11  P2  UNL     1      24.495   3.001  49.960  1.00  0.00     0.026 P 
HETATM   12  H8  UNL     1      21.563   2.752  51.913  1.00  0.00     0.161 HD
ENDROOT
BRANCH  10  13
HETATM   13  N5  UNL     1      26.835   3.041  51.487  1.00  0.00    -0.340 N 
HETATM   14  H10 UNL     1      27.313   3.737  50.853  1.00  0.00     0.167 HD
BRANCH  13  15
HETATM   15  C7  UNL     1      27.457   2.165  52.458  1.00  0.00     0.035 A 
HETATM   16  C8  UNL     1      28.326   2.325  53.515  1.00  0.00     0.029 A 
HETATM   17  C9  UNL     1      28.726   1.201  54.198  1.00  0.00     0.004 A 
HETATM   18  C10 UNL     1      28.294  -0.050  53.865  1.00  0.00     0.019 A 
HETATM   19  C11 UNL     1      27.422  -0.249  52.812  1.00  0.00     0.013 A 
HETATM   20 BR1  UNL     1      26.878  -2.048  52.415  1.00  0.00    -0.051 Br
HETATM   21  C12 UNL     1      27.007   0.887  52.110  1.00  0.00     0.048 A 
ENDBRANCH  13  15
ENDBRANCH  10  13
BRANCH   1  22
HETATM   22  P1  UNL     1      20.681   5.561  47.747  1.00  0.00    -0.017 P 
HETATM   23  H1  UNL     1      19.221   5.630  47.825  1.00  0.00     0.079 HD
HETATM   24  H2  UNL     1      21.011   5.429  46.330  1.00  0.00     0.079 HD
ENDBRANCH   1  22
TORSDOF 3
ENDMDL
MODEL 6
REMARK VINA RESULT:      -6.2      4.953      6.275
REMARK  3 active torsions:
REMARK  status: ('A' for Active; 'I' for Inactive)
REMARK    1  A    between atoms: P1_1  and  N1_2 
REMARK    2  A    between atoms: C6_11  and  N5_12 
REMARK    3  A    between atoms: N5_12  and  C7_13 
ROOT
HETATM    1  N1  UNL     1      23.997   7.312  49.516  1.00  0.00    -0.284 N 
HETATM    2  C1  UNL     1      24.416   6.346  50.490  1.00  0.00     0.186 C 
HETATM    3  C2  UNL     1      23.329   5.582  51.160  1.00  0.00     0.087 A 
HETATM    4  C3  UNL     1      21.985   6.235  51.153  1.00  0.00     0.087 C 
HETATM    5  C4  UNL     1      21.814   7.332  50.211  1.00  0.00     0.114 C 
HETATM    6  N2  UNL     1      22.712   7.860  49.436  1.00  0.00    -0.190 NA
HETATM    7  N3  UNL     1      23.714   5.426  52.550  1.00  0.00    -0.368 N 
HETATM    8  C5  UNL     1      24.009   4.380  53.438  1.00  0.00     0.206 A 
HETATM    9  N4  UNL     1      23.956   3.179  53.016  1.00  0.00    -0.226 NA
HETATM   10  C6  UNL     1      23.641   2.687  51.754  1.00  0.00     0.139 A 
HETATM   11  P2  UNL     1      23.263   3.792  50.571  1.00  0.00     0.026 P 
HETATM   12  H8  UNL     1      23.773   6.375  52.925  1.00  0.00     0.161 HD
ENDROOT
BRANCH  10  13
HETATM   13  N5  UNL     1      23.691   1.241  51.626  1.00  0.00    -0.340 N 
HETATM   14  H10 UNL     1      24.295   0.872  50.844  1.00  0.00     0.167 HD
BRANCH  13  15
HETATM   15  C7  UNL     1      22.916   0.469  52.576  1.00  0.00     0.035 A 
HETATM   16  C8  UNL     1      23.194  -0.261  53.713  1.00  0.00     0.029 A 
HETATM   17  C9  UNL     1      22.152  -0.902  54.339  1.00  0.00     0.004 A 
HETATM   18  C10 UNL     1      20.869  -0.838  53.876  1.00  0.00     0.019 A 
HETATM   19  C11 UNL     1      20.553  -0.117  52.741  1.00  0.00     0.013 A 
HETATM   20 BR1  UNL     1      18.721  -0.094  52.163  1.00  0.00    -0.051 Br
HETATM   21  C12 UNL     1      21.605   0.542  52.096  1.00  0.00     0.048 A 
ENDBRANCH  13  15
ENDBRANCH  10  13
BRANCH   1  22
HETATM   22  P1  UNL     1      25.141   7.934  48.264  1.00  0.00    -0.017 P 
HETATM   23  H1  UNL     1      25.441   6.793  47.398  1.00  0.00     0.079 HD
HETATM   24  H2  UNL     1      26.407   8.328  48.877  1.00  0.00     0.079 HD
ENDBRANCH   1  22
TORSDOF 3
ENDMDL
MODEL 7
REMARK VINA RESULT:      -6.2      3.680      4.786
REMARK  3 active torsions:
REMARK  status: ('A' for Active; 'I' for Inactive)
REMARK    1  A    between atoms: P1_1  and  N1_2 
REMARK    2  A    between atoms: C6_11  and  N5_12 
REMARK    3  A    between atoms: N5_12  and  C7_13 
ROOT
HETATM    1  N1  UNL     1      20.033   5.500  49.650  1.00  0.00    -0.284 N 
HETATM    2  C1  UNL     1      21.209   4.688  49.769  1.00  0.00     0.186 C 
HETATM    3  C2  UNL     1      22.397   5.346  50.380  1.00  0.00     0.087 A 
HETATM    4  C3  UNL     1      22.413   6.838  50.307  1.00  0.00     0.087 C 
HETATM    5  C4  UNL     1      21.143   7.475  49.987  1.00  0.00     0.114 C 
HETATM    6  N2  UNL     1      20.021   6.899  49.679  1.00  0.00    -0.190 NA
HETATM    7  N3  UNL     1      23.561   4.876  49.655  1.00  0.00    -0.368 N 
HETATM    8  C5  UNL     1      24.731   4.148  49.923  1.00  0.00     0.206 A 
HETATM    9  N4  UNL     1      24.938   3.727  51.107  1.00  0.00    -0.226 NA
HETATM   10  C6  UNL     1      24.165   3.865  52.254  1.00  0.00     0.139 A 
HETATM   11  P2  UNL     1      22.735   4.705  52.120  1.00  0.00     0.026 P 
HETATM   12  H8  UNL     1      23.430   5.191  48.692  1.00  0.00     0.161 HD
ENDROOT
BRANCH  10  13
HETATM   13  N5  UNL     1      24.711   3.240  53.446  1.00  0.00    -0.340 N 
HETATM   14  H10 UNL     1      24.847   3.879  54.275  1.00  0.00     0.167 HD
BRANCH  13  15
HETATM   15  C7  UNL     1      25.006   1.824  53.371  1.00  0.00     0.035 A 
HETATM   16  C8  UNL     1      24.313   0.692  52.998  1.00  0.00     0.029 A 
HETATM   17  C9  UNL     1      24.953  -0.520  53.105  1.00  0.00     0.004 A 
HETATM   18  C10 UNL     1      26.234  -0.634  53.562  1.00  0.00     0.019 A 
HETATM   19  C11 UNL     1      26.959   0.478  53.943  1.00  0.00     0.013 A 
HETATM   20 BR1  UNL     1      28.752   0.215  54.581  1.00  0.00    -0.051 Br
HETATM   21  C12 UNL     1      26.320   1.717  53.838  1.00  0.00     0.048 A 
ENDBRANCH  13  15
ENDBRANCH  10  13
BRANCH   1  22
HETATM   22  P1  UNL     1      18.402   4.755  49.435  1.00  0.00    -0.017 P 
HETATM   23  H1  UNL     1      17.608   5.742  48.699  1.00  0.00     0.079 HD
HETATM   24  H2  UNL     1      17.743   4.580  50.727  1.00  0.00     0.079 HD
ENDBRANCH   1  22
TORSDOF 3
ENDMDL
MODEL 8
REMARK VINA RESULT:      -6.2      4.138      7.538
REMARK  3 active torsions:
REMARK  status: ('A' for Active; 'I' for Inactive)
REMARK    1  A    between atoms: P1_1  and  N1_2 
REMARK    2  A    between atoms: C6_11  and  N5_12 
REMARK    3  A    between atoms: N5_12  and  C7_13 
ROOT
HETATM    1  N1  UNL     1      26.349   1.941  52.721  1.00  0.00    -0.284 N 
HETATM    2  C1  UNL     1      24.998   2.377  52.931  1.00  0.00     0.186 C 
HETATM    3  C2  UNL     1      24.304   2.943  51.742  1.00  0.00     0.087 A 
HETATM    4  C3  UNL     1      25.197   3.471  50.667  1.00  0.00     0.087 C 
HETATM    5  C4  UNL     1      26.591   3.058  50.736  1.00  0.00     0.114 C 
HETATM    6  N2  UNL     1      27.166   2.353  51.662  1.00  0.00    -0.190 NA
HETATM    7  N3  UNL     1      23.503   4.057  52.209  1.00  0.00    -0.368 N 
HETATM    8  C5  UNL     1      22.146   4.413  52.267  1.00  0.00     0.206 A 
HETATM    9  N4  UNL     1      21.276   3.603  51.808  1.00  0.00    -0.226 NA
HETATM   10  C6  UNL     1      21.438   2.352  51.225  1.00  0.00     0.139 A 
HETATM   11  P2  UNL     1      22.988   1.769  51.074  1.00  0.00     0.026 P 
HETATM   12  H8  UNL     1      24.168   4.731  52.593  1.00  0.00     0.161 HD
ENDROOT
BRANCH  10  13
HETATM   13  N5  UNL     1      20.206   1.696  50.820  1.00  0.00    -0.340 N 
HETATM   14  H10 UNL     1      19.817   1.993  49.884  1.00  0.00     0.167 HD
BRANCH  13  15
HETATM   15  C7  UNL     1      19.652   0.715  51.730  1.00  0.00     0.035 A 
HETATM   16  C8  UNL     1      20.086   0.072  52.870  1.00  0.00     0.029 A 
HETATM   17  C9  UNL     1      19.249  -0.853  53.447  1.00  0.00     0.004 A 
HETATM   18  C10 UNL     1      18.019  -1.149  52.933  1.00  0.00     0.019 A 
HETATM   19  C11 UNL     1      17.551  -0.524  51.793  1.00  0.00     0.013 A 
HETATM   20 BR1  UNL     1      15.812  -1.015  51.142  1.00  0.00    -0.051 Br
HETATM   21  C12 UNL     1      18.393   0.420  51.198  1.00  0.00     0.048 A 
ENDBRANCH  13  15
ENDBRANCH  10  13
BRANCH   1  22
HETATM   22  P1  UNL     1      27.145   0.786  53.858  1.00  0.00    -0.017 P 
HETATM   23  H1  UNL     1      27.344   1.528  55.104  1.00  0.00     0.079 HD
HETATM   24  H2  UNL     1      28.476   0.427  53.376  1.00  0.00     0.079 HD
ENDBRANCH   1  22
TORSDOF 3
ENDMDL
MODEL 9
REMARK VINA RESULT:      -6.1      4.026      4.599
REMARK  3 active torsions:
REMARK  status: ('A' for Active; 'I' for Inactive)
REMARK    1  A    between atoms: P1_1  and  N1_2 
REMARK    2  A    between atoms: C6_11  and  N5_12 
REMARK    3  A    between atoms: N5_12  and  C7_13 
ROOT
HETATM    1  N1  UNL     1      22.630   5.466  47.316  1.00  0.00    -0.284 N 
HETATM    2  C1  UNL     1      22.741   5.379  48.744  1.00  0.00     0.186 C 
HETATM    3  C2  UNL     1      22.742   4.005  49.315  1.00  0.00     0.087 A 
HETATM    4  C3  UNL     1      22.120   2.951  48.457  1.00  0.00     0.087 C 
HETATM    5  C4  UNL     1      21.918   3.304  47.059  1.00  0.00     0.114 C 
HETATM    6  N2  UNL     1      22.140   4.450  46.489  1.00  0.00    -0.190 NA
HETATM    7  N3  UNL     1      21.975   4.055  50.544  1.00  0.00    -0.368 N 
HETATM    8  C5  UNL     1      22.189   3.843  51.915  1.00  0.00     0.206 A 
HETATM    9  N4  UNL     1      23.351   3.507  52.313  1.00  0.00    -0.226 NA
HETATM   10  C6  UNL     1      24.520   3.300  51.589  1.00  0.00     0.139 A 
HETATM   11  P2  UNL     1      24.450   3.508  49.941  1.00  0.00     0.026 P 
HETATM   12  H8  UNL     1      21.030   4.329  50.266  1.00  0.00     0.161 HD
ENDROOT
BRANCH  10  13
HETATM   13  N5  UNL     1      25.679   2.928  52.382  1.00  0.00    -0.340 N 
HETATM   14  H10 UNL     1      26.266   3.730  52.738  1.00  0.00     0.167 HD
BRANCH  13  15
HETATM   15  C7  UNL     1      25.902   1.513  52.600  1.00  0.00     0.035 A 
HETATM   16  C8  UNL     1      25.109   0.387  52.649  1.00  0.00     0.029 A 
HETATM   17  C9  UNL     1      25.713  -0.816  52.926  1.00  0.00     0.004 A 
HETATM   18  C10 UNL     1      27.055  -0.927  53.150  1.00  0.00     0.019 A 
HETATM   19  C11 UNL     1      27.881   0.180  53.109  1.00  0.00     0.013 A 
HETATM   20 BR1  UNL     1      29.755  -0.076  53.447  1.00  0.00    -0.051 Br
HETATM   21  C12 UNL     1      27.278   1.409  52.826  1.00  0.00     0.048 A 
ENDBRANCH  13  15
ENDBRANCH  10  13
BRANCH   1  22
HETATM   22  P1  UNL     1      23.126   6.960  46.430  1.00  0.00    -0.017 P 
HETATM   23  H1  UNL     1      22.061   7.935  46.668  1.00  0.00     0.079 HD
HETATM   24  H2  UNL     1      23.147   6.719  44.989  1.00  0.00     0.079 HD
ENDBRANCH   1  22
TORSDOF 3
ENDMDL
