MODEL 1
REMARK VINA RESULT:      -8.4      0.000      0.000
REMARK  7 active torsions:
REMARK  status: ('A' for Active; 'I' for Inactive)
REMARK    1  A    between atoms: C1_2  and  C2_3 
REMARK    2  A    between atoms: N3_8  and  C6_9 
REMARK    3  A    between atoms: C15_19  and  O1_20 
REMARK    4  A    between atoms: O1_20  and  C16_21 
REMARK    5  A    between atoms: C16_21  and  C17_22 
REMARK    6  A    between atoms: C17_22  and  C18_23 
REMARK    7  A    between atoms: C21_28  and  O3_29 
ROOT
HETATM    1  C2  UNL     1      26.078   3.657  50.475  1.00  0.00     0.011 C 
HETATM    2  C3  UNL     1      26.354   2.464  50.950  1.00  0.00     0.004 C 
HETATM    3  C4  UNL     1      25.396   2.219  52.023  1.00  0.00     0.086 A 
HETATM    4  C5  UNL     1      25.237   0.830  52.484  1.00  0.00     0.125 A 
HETATM    5  N2  UNL     1      24.124   0.263  52.736  1.00  0.00    -0.183 NA
HETATM    6  N3  UNL     1      22.884   0.896  52.597  1.00  0.00    -0.245 N 
HETATM    7  C12 UNL     1      22.906   2.243  52.144  1.00  0.00     0.127 A 
HETATM    8  C13 UNL     1      24.081   2.847  51.876  1.00  0.00    -0.025 A 
HETATM    9  C14 UNL     1      23.941   4.166  51.326  1.00  0.00     0.047 C 
HETATM   10  C15 UNL     1      24.978   4.602  50.576  1.00  0.00     0.080 C 
ENDROOT
BRANCH  10  11
HETATM   11  O1  UNL     1      24.932   5.852  49.984  1.00  0.00    -0.350 OA
BRANCH  11  12
HETATM   12  C16 UNL     1      24.236   6.967  50.434  1.00  0.00     0.178 C 
BRANCH  12  13
HETATM   13  C17 UNL     1      24.777   8.184  49.694  1.00  0.00     0.067 C 
BRANCH  13  14
HETATM   14  C18 UNL     1      26.287   8.172  49.912  1.00  0.00     0.277 C 
HETATM   15  N4  UNL     1      26.940   7.755  48.693  1.00  0.00     0.095 N 
HETATM   16  C19 UNL     1      28.212   8.444  48.591  1.00  0.00     0.296 C 
HETATM   17  H17 UNL     1      26.340   7.903  47.849  1.00  0.00     0.316 HD
HETATM   18  C20 UNL     1      27.875   9.909  48.361  1.00  0.00     0.201 C 
HETATM   19  O2  UNL     1      26.972  10.409  49.284  1.00  0.00    -0.358 OA
HETATM   20  C21 UNL     1      26.700   9.558  50.340  1.00  0.00     0.289 C 
BRANCH  20  21
HETATM   21  O3  UNL     1      27.763   9.539  51.257  1.00  0.00    -0.369 OA
HETATM   22  H23 UNL     1      28.342   8.790  51.000  1.00  0.00     0.212 HD
ENDBRANCH  20  21
ENDBRANCH  13  14
ENDBRANCH  12  13
ENDBRANCH  11  12
ENDBRANCH  10  11
BRANCH   1  23
HETATM   23  C1  UNL     1      26.995   4.068  49.382  1.00  0.00     0.121 C 
HETATM   24  N1  UNL     1      27.967   4.850  49.068  1.00  0.00    -0.311 NA
HETATM   25  H1  UNL     1      28.325   5.494  49.821  1.00  0.00     0.186 HD
ENDBRANCH   1  23
BRANCH   6  26
HETATM   26  C6  UNL     1      21.710   0.168  52.912  1.00  0.00     0.058 A 
HETATM   27  C7  UNL     1      20.557   0.453  52.216  1.00  0.00     0.033 A 
HETATM   28  C8  UNL     1      19.363  -0.197  52.445  1.00  0.00     0.026 A 
HETATM   29  C9  UNL     1      19.322  -1.178  53.417  1.00  0.00     0.034 A 
HETATM   30 CL1  UNL     1      17.818  -2.010  53.721  1.00  0.00    -0.084 Cl
HETATM   31  C10 UNL     1      20.457  -1.483  54.128  1.00  0.00     0.026 A 
HETATM   32  C11 UNL     1      21.630  -0.805  53.862  1.00  0.00     0.033 A 
ENDBRANCH   6  26
TORSDOF 7
ENDMDL
MODEL 2
REMARK VINA RESULT:      -8.3      1.242      1.602
REMARK  7 active torsions:
REMARK  status: ('A' for Active; 'I' for Inactive)
REMARK    1  A    between atoms: C1_2  and  C2_3 
REMARK    2  A    between atoms: N3_8  and  C6_9 
REMARK    3  A    between atoms: C15_19  and  O1_20 
REMARK    4  A    between atoms: O1_20  and  C16_21 
REMARK    5  A    between atoms: C16_21  and  C17_22 
REMARK    6  A    between atoms: C17_22  and  C18_23 
REMARK    7  A    between atoms: C21_28  and  O3_29 
ROOT
HETATM    1  C2  UNL     1      25.224   2.795  51.457  1.00  0.00     0.011 C 
HETATM    2  C3  UNL     1      25.186   1.577  51.946  1.00  0.00     0.004 C 
HETATM    3  C4  UNL     1      23.946   1.481  52.709  1.00  0.00     0.086 A 
HETATM    4  C5  UNL     1      23.470   0.131  53.058  1.00  0.00     0.125 A 
HETATM    5  N2  UNL     1      22.261  -0.264  52.977  1.00  0.00    -0.183 NA
HETATM    6  N3  UNL     1      21.211   0.544  52.530  1.00  0.00    -0.245 N 
HETATM    7  C12 UNL     1      21.548   1.871  52.149  1.00  0.00     0.127 A 
HETATM    8  C13 UNL     1      22.825   2.295  52.232  1.00  0.00    -0.025 A 
HETATM    9  C14 UNL     1      23.031   3.617  51.713  1.00  0.00     0.047 C 
HETATM   10  C15 UNL     1      24.285   3.892  51.290  1.00  0.00     0.080 C 
ENDROOT
BRANCH  10  11
HETATM   11  O1  UNL     1      24.582   5.133  50.752  1.00  0.00    -0.350 OA
BRANCH  11  12
HETATM   12  C16 UNL     1      24.197   6.373  51.246  1.00  0.00     0.178 C 
BRANCH  12  13
HETATM   13  C17 UNL     1      24.525   7.418  50.187  1.00  0.00     0.067 C 
BRANCH  13  14
HETATM   14  C18 UNL     1      26.012   7.720  50.339  1.00  0.00     0.277 C 
HETATM   15  N4  UNL     1      26.755   6.955  49.365  1.00  0.00     0.095 N 
HETATM   16  C19 UNL     1      27.910   7.728  48.953  1.00  0.00     0.296 C 
HETATM   17  H17 UNL     1      26.164   6.663  48.553  1.00  0.00     0.316 HD
HETATM   18  C20 UNL     1      27.363   8.911  48.171  1.00  0.00     0.201 C 
HETATM   19  O2  UNL     1      26.369   9.596  48.850  1.00  0.00    -0.358 OA
HETATM   20  C21 UNL     1      26.199   9.206  50.166  1.00  0.00     0.289 C 
BRANCH  20  21
HETATM   21  O3  UNL     1      27.227   9.714  50.977  1.00  0.00    -0.369 OA
HETATM   22  H23 UNL     1      27.594  10.493  50.509  1.00  0.00     0.212 HD
ENDBRANCH  20  21
ENDBRANCH  13  14
ENDBRANCH  12  13
ENDBRANCH  11  12
ENDBRANCH  10  11
BRANCH   1  23
HETATM   23  C1  UNL     1      26.454   3.062  50.670  1.00  0.00     0.121 C 
HETATM   24  N1  UNL     1      27.114   3.962  50.030  1.00  0.00    -0.311 NA
HETATM   25  H1  UNL     1      26.695   4.928  49.994  1.00  0.00     0.186 HD
ENDBRANCH   1  23
BRANCH   6  26
HETATM   26  C6  UNL     1      19.904  -0.002  52.487  1.00  0.00     0.058 A 
HETATM   27  C7  UNL     1      19.078   0.357  51.447  1.00  0.00     0.033 A 
HETATM   28  C8  UNL     1      17.790  -0.117  51.312  1.00  0.00     0.026 A 
HETATM   29  C9  UNL     1      17.308  -0.992  52.266  1.00  0.00     0.034 A 
HETATM   30 CL1  UNL     1      15.680  -1.601  52.113  1.00  0.00    -0.084 Cl
HETATM   31  C10 UNL     1      18.109  -1.368  53.317  1.00  0.00     0.026 A 
HETATM   32  C11 UNL     1      19.392  -0.867  53.408  1.00  0.00     0.033 A 
ENDBRANCH   6  26
TORSDOF 7
ENDMDL
MODEL 3
REMARK VINA RESULT:      -8.3      4.539      8.601
REMARK  7 active torsions:
REMARK  status: ('A' for Active; 'I' for Inactive)
REMARK    1  A    between atoms: C1_2  and  C2_3 
REMARK    2  A    between atoms: N3_8  and  C6_9 
REMARK    3  A    between atoms: C15_19  and  O1_20 
REMARK    4  A    between atoms: O1_20  and  C16_21 
REMARK    5  A    between atoms: C16_21  and  C17_22 
REMARK    6  A    between atoms: C17_22  and  C18_23 
REMARK    7  A    between atoms: C21_28  and  O3_29 
ROOT
HETATM    1  C2  UNL     1      21.408   1.942  52.126  1.00  0.00     0.011 C 
HETATM    2  C3  UNL     1      21.088   2.952  51.350  1.00  0.00     0.004 C 
HETATM    3  C4  UNL     1      22.169   3.924  51.479  1.00  0.00     0.086 A 
HETATM    4  C5  UNL     1      22.255   4.979  50.455  1.00  0.00     0.125 A 
HETATM    5  N2  UNL     1      23.331   5.375  49.898  1.00  0.00    -0.183 NA
HETATM    6  N3  UNL     1      24.592   4.844  50.187  1.00  0.00    -0.245 N 
HETATM    7  C12 UNL     1      24.638   3.804  51.155  1.00  0.00     0.127 A 
HETATM    8  C13 UNL     1      23.503   3.381  51.747  1.00  0.00    -0.025 A 
HETATM    9  C14 UNL     1      23.689   2.257  52.619  1.00  0.00     0.047 C 
HETATM   10  C15 UNL     1      22.600   1.482  52.820  1.00  0.00     0.080 C 
ENDROOT
BRANCH  10  11
HETATM   11  O1  UNL     1      22.681   0.362  53.628  1.00  0.00    -0.350 OA
BRANCH  11  12
HETATM   12  C16 UNL     1      23.550  -0.713  53.484  1.00  0.00     0.178 C 
BRANCH  12  13
HETATM   13  C17 UNL     1      24.505  -0.702  54.671  1.00  0.00     0.067 C 
BRANCH  13  14
HETATM   14  C18 UNL     1      25.911  -0.730  54.081  1.00  0.00     0.277 C 
HETATM   15  N4  UNL     1      25.855  -0.314  52.699  1.00  0.00     0.095 N 
HETATM   16  C19 UNL     1      27.079   0.396  52.380  1.00  0.00     0.296 C 
HETATM   17  H17 UNL     1      25.002   0.253  52.487  1.00  0.00     0.316 HD
HETATM   18  C20 UNL     1      27.027   1.692  53.171  1.00  0.00     0.201 C 
HETATM   19  O2  UNL     1      26.757   1.498  54.515  1.00  0.00    -0.358 OA
HETATM   20  C21 UNL     1      26.778   0.175  54.919  1.00  0.00     0.289 C 
BRANCH  20  21
HETATM   21  O3  UNL     1      28.097  -0.297  55.024  1.00  0.00    -0.369 OA
HETATM   22  H23 UNL     1      28.415  -0.045  55.918  1.00  0.00     0.212 HD
ENDBRANCH  20  21
ENDBRANCH  13  14
ENDBRANCH  12  13
ENDBRANCH  11  12
ENDBRANCH  10  11
BRANCH   1  23
HETATM   23  C1  UNL     1      20.381   0.869  52.127  1.00  0.00     0.121 C 
HETATM   24  N1  UNL     1      19.804  -0.028  52.845  1.00  0.00    -0.311 NA
HETATM   25  H1  UNL     1      20.116  -0.112  53.847  1.00  0.00     0.186 HD
ENDBRANCH   1  23
BRANCH   6  26
HETATM   26  C6  UNL     1      25.722   5.366  49.508  1.00  0.00     0.058 A 
HETATM   27  C7  UNL     1      26.766   4.517  49.225  1.00  0.00     0.033 A 
HETATM   28  C8  UNL     1      27.909   4.925  48.570  1.00  0.00     0.026 A 
HETATM   29  C9  UNL     1      28.009   6.246  48.181  1.00  0.00     0.034 A 
HETATM   30 CL1  UNL     1      29.448   6.780  47.351  1.00  0.00    -0.084 Cl
HETATM   31  C10 UNL     1      26.982   7.118  48.450  1.00  0.00     0.026 A 
HETATM   32  C11 UNL     1      25.857   6.662  49.108  1.00  0.00     0.033 A 
ENDBRANCH   6  26
TORSDOF 7
ENDMDL
MODEL 4
REMARK VINA RESULT:      -8.2      2.613      4.373
REMARK  7 active torsions:
REMARK  status: ('A' for Active; 'I' for Inactive)
REMARK    1  A    between atoms: C1_2  and  C2_3 
REMARK    2  A    between atoms: N3_8  and  C6_9 
REMARK    3  A    between atoms: C15_19  and  O1_20 
REMARK    4  A    between atoms: O1_20  and  C16_21 
REMARK    5  A    between atoms: C16_21  and  C17_22 
REMARK    6  A    between atoms: C17_22  and  C18_23 
REMARK    7  A    between atoms: C21_28  and  O3_29 
ROOT
HETATM    1  C2  UNL     1      25.755  -0.304  53.335  1.00  0.00     0.011 C 
HETATM    2  C3  UNL     1      25.141  -1.005  54.260  1.00  0.00     0.004 C 
HETATM    3  C4  UNL     1      23.815  -0.412  54.408  1.00  0.00     0.086 A 
HETATM    4  C5  UNL     1      22.792  -1.210  55.106  1.00  0.00     0.125 A 
HETATM    5  N2  UNL     1      21.580  -1.337  54.732  1.00  0.00    -0.183 NA
HETATM    6  N3  UNL     1      21.056  -0.729  53.587  1.00  0.00    -0.245 N 
HETATM    7  C12 UNL     1      21.955   0.061  52.818  1.00  0.00     0.127 A 
HETATM    8  C13 UNL     1      23.238   0.197  53.208  1.00  0.00    -0.025 A 
HETATM    9  C14 UNL     1      24.050   0.931  52.280  1.00  0.00     0.047 C 
HETATM   10  C15 UNL     1      25.375   0.670  52.325  1.00  0.00     0.080 C 
ENDROOT
BRANCH  10  11
HETATM   11  O1  UNL     1      26.241   1.310  51.456  1.00  0.00    -0.350 OA
BRANCH  11  12
HETATM   12  C16 UNL     1      26.579   2.658  51.451  1.00  0.00     0.178 C 
BRANCH  12  13
HETATM   13  C17 UNL     1      26.370   3.186  50.038  1.00  0.00     0.067 C 
BRANCH  13  14
HETATM   14  C18 UNL     1      24.999   3.854  50.035  1.00  0.00     0.277 C 
HETATM   15  N4  UNL     1      24.661   4.252  51.382  1.00  0.00     0.095 N 
HETATM   16  C19 UNL     1      23.878   5.470  51.323  1.00  0.00     0.296 C 
HETATM   17  H17 UNL     1      25.506   4.353  51.992  1.00  0.00     0.316 HD
HETATM   18  C20 UNL     1      24.826   6.552  50.834  1.00  0.00     0.201 C 
HETATM   19  O2  UNL     1      25.507   6.196  49.681  1.00  0.00    -0.358 OA
HETATM   20  C21 UNL     1      25.062   5.027  49.090  1.00  0.00     0.289 C 
BRANCH  20  21
HETATM   21  O3  UNL     1      23.848   5.236  48.416  1.00  0.00    -0.369 OA
HETATM   22  H23 UNL     1      23.298   5.804  48.997  1.00  0.00     0.212 HD
ENDBRANCH  20  21
ENDBRANCH  13  14
ENDBRANCH  12  13
ENDBRANCH  11  12
ENDBRANCH  10  11
BRANCH   1  23
HETATM   23  C1  UNL     1      27.143  -0.771  53.085  1.00  0.00     0.121 C 
HETATM   24  N1  UNL     1      28.241  -1.139  53.644  1.00  0.00    -0.311 NA
HETATM   25  H1  UNL     1      28.263  -1.143  54.697  1.00  0.00     0.186 HD
ENDBRANCH   1  23
BRANCH   6  26
HETATM   26  C6  UNL     1      19.690  -0.936  53.271  1.00  0.00     0.058 A 
HETATM   27  C7  UNL     1      19.084  -0.074  52.387  1.00  0.00     0.033 A 
HETATM   28  C8  UNL     1      17.762  -0.188  52.014  1.00  0.00     0.026 A 
HETATM   29  C9  UNL     1      17.011  -1.214  52.554  1.00  0.00     0.034 A 
HETATM   30 CL1  UNL     1      15.335  -1.373  52.095  1.00  0.00    -0.084 Cl
HETATM   31  C10 UNL     1      17.589  -2.090  53.441  1.00  0.00     0.026 A 
HETATM   32  C11 UNL     1      18.917  -1.936  53.783  1.00  0.00     0.033 A 
ENDBRANCH   6  26
TORSDOF 7
ENDMDL
MODEL 5
REMARK VINA RESULT:      -8.2      4.469      6.130
REMARK  7 active torsions:
REMARK  status: ('A' for Active; 'I' for Inactive)
REMARK    1  A    between atoms: C1_2  and  C2_3 
REMARK    2  A    between atoms: N3_8  and  C6_9 
REMARK    3  A    between atoms: C15_19  and  O1_20 
REMARK    4  A    between atoms: O1_20  and  C16_21 
REMARK    5  A    between atoms: C16_21  and  C17_22 
REMARK    6  A    between atoms: C17_22  and  C18_23 
REMARK    7  A    between atoms: C21_28  and  O3_29 
ROOT
HETATM    1  C2  UNL     1      27.378   7.087  48.460  1.00  0.00     0.011 C 
HETATM    2  C3  UNL     1      26.144   7.186  48.899  1.00  0.00     0.004 C 
HETATM    3  C4  UNL     1      25.599   5.832  48.894  1.00  0.00     0.086 A 
HETATM    4  C5  UNL     1      24.371   5.595  49.672  1.00  0.00     0.125 A 
HETATM    5  N2  UNL     1      24.162   4.587  50.423  1.00  0.00    -0.183 NA
HETATM    6  N3  UNL     1      25.090   3.559  50.615  1.00  0.00    -0.245 N 
HETATM    7  C12 UNL     1      26.326   3.682  49.924  1.00  0.00     0.127 A 
HETATM    8  C13 UNL     1      26.554   4.746  49.129  1.00  0.00    -0.025 A 
HETATM    9  C14 UNL     1      27.881   4.789  48.584  1.00  0.00     0.047 C 
HETATM   10  C15 UNL     1      28.334   6.015  48.238  1.00  0.00     0.080 C 
ENDROOT
BRANCH  10  11
HETATM   11  O1  UNL     1      29.610   6.166  47.724  1.00  0.00    -0.350 OA
BRANCH  11  12
HETATM   12  C16 UNL     1      30.808   5.841  48.347  1.00  0.00     0.178 C 
BRANCH  12  13
HETATM   13  C17 UNL     1      31.522   4.813  47.479  1.00  0.00     0.067 C 
BRANCH  13  14
HETATM   14  C18 UNL     1      32.984   4.837  47.913  1.00  0.00     0.277 C 
HETATM   15  N4  UNL     1      33.416   3.489  48.200  1.00  0.00     0.095 N 
HETATM   16  C19 UNL     1      34.817   3.366  47.843  1.00  0.00     0.296 C 
HETATM   17  H17 UNL     1      32.822   2.770  47.725  1.00  0.00     0.316 HD
HETATM   18  C20 UNL     1      34.871   3.469  46.327  1.00  0.00     0.201 C 
HETATM   19  O2  UNL     1      34.200   4.576  45.835  1.00  0.00    -0.358 OA
HETATM   20  C21 UNL     1      33.782   5.472  46.803  1.00  0.00     0.289 C 
BRANCH  20  21
HETATM   21  O3  UNL     1      34.862   6.229  47.287  1.00  0.00    -0.369 OA
HETATM   22  H23 UNL     1      34.916   7.031  46.724  1.00  0.00     0.212 HD
ENDBRANCH  20  21
ENDBRANCH  13  14
ENDBRANCH  12  13
ENDBRANCH  11  12
ENDBRANCH  10  11
BRANCH   1  23
HETATM   23  C1  UNL     1      28.067   8.400  48.379  1.00  0.00     0.121 C 
HETATM   24  N1  UNL     1      29.006   9.056  47.793  1.00  0.00    -0.311 NA
HETATM   25  H1  UNL     1      29.566   8.541  47.065  1.00  0.00     0.186 HD
ENDBRANCH   1  23
BRANCH   6  26
HETATM   26  C6  UNL     1      24.746   2.482  51.470  1.00  0.00     0.058 A 
HETATM   27  C7  UNL     1      23.446   2.383  51.908  1.00  0.00     0.033 A 
HETATM   28  C8  UNL     1      23.008   1.375  52.740  1.00  0.00     0.026 A 
HETATM   29  C9  UNL     1      23.918   0.421  53.154  1.00  0.00     0.034 A 
HETATM   30 CL1  UNL     1      23.383  -0.861  54.209  1.00  0.00    -0.084 Cl
HETATM   31  C10 UNL     1      25.224   0.495  52.734  1.00  0.00     0.026 A 
HETATM   32  C11 UNL     1      25.614   1.523  51.899  1.00  0.00     0.033 A 
ENDBRANCH   6  26
TORSDOF 7
ENDMDL
MODEL 6
REMARK VINA RESULT:      -8.1      2.415      3.995
REMARK  7 active torsions:
REMARK  status: ('A' for Active; 'I' for Inactive)
REMARK    1  A    between atoms: C1_2  and  C2_3 
REMARK    2  A    between atoms: N3_8  and  C6_9 
REMARK    3  A    between atoms: C15_19  and  O1_20 
REMARK    4  A    between atoms: O1_20  and  C16_21 
REMARK    5  A    between atoms: C16_21  and  C17_22 
REMARK    6  A    between atoms: C17_22  and  C18_23 
REMARK    7  A    between atoms: C21_28  and  O3_29 
ROOT
HETATM    1  C2  UNL     1      25.436   7.670  50.101  1.00  0.00     0.011 C 
HETATM    2  C3  UNL     1      24.293   7.663  50.748  1.00  0.00     0.004 C 
HETATM    3  C4  UNL     1      23.686   6.361  50.489  1.00  0.00     0.086 A 
HETATM    4  C5  UNL     1      22.585   5.940  51.372  1.00  0.00     0.125 A 
HETATM    5  N2  UNL     1      22.446   4.774  51.866  1.00  0.00    -0.183 NA
HETATM    6  N3  UNL     1      23.340   3.724  51.635  1.00  0.00    -0.245 N 
HETATM    7  C12 UNL     1      24.457   4.011  50.804  1.00  0.00     0.127 A 
HETATM    8  C13 UNL     1      24.610   5.243  50.280  1.00  0.00    -0.025 A 
HETATM    9  C14 UNL     1      25.836   5.415  49.553  1.00  0.00     0.047 C 
HETATM   10  C15 UNL     1      26.291   6.685  49.460  1.00  0.00     0.080 C 
ENDROOT
BRANCH  10  11
HETATM   11  O1  UNL     1      27.476   6.953  48.798  1.00  0.00    -0.350 OA
BRANCH  11  12
HETATM   12  C16 UNL     1      27.624   7.356  47.477  1.00  0.00     0.178 C 
BRANCH  12  13
HETATM   13  C17 UNL     1      29.067   7.808  47.287  1.00  0.00     0.067 C 
BRANCH  13  14
HETATM   14  C18 UNL     1      29.682   7.852  48.682  1.00  0.00     0.277 C 
HETATM   15  N4  UNL     1      30.587   6.738  48.838  1.00  0.00     0.095 N 
HETATM   16  C19 UNL     1      31.682   7.147  49.697  1.00  0.00     0.296 C 
HETATM   17  H17 UNL     1      30.922   6.364  47.920  1.00  0.00     0.316 HD
HETATM   18  C20 UNL     1      32.474   8.172  48.902  1.00  0.00     0.201 C 
HETATM   19  O2  UNL     1      31.684   9.183  48.381  1.00  0.00    -0.358 OA
HETATM   20  C21 UNL     1      30.377   9.182  48.835  1.00  0.00     0.289 C 
BRANCH  20  21
HETATM   21  O3  UNL     1      30.301   9.677  50.147  1.00  0.00    -0.369 OA
HETATM   22  H23 UNL     1      31.104  10.222  50.288  1.00  0.00     0.212 HD
ENDBRANCH  20  21
ENDBRANCH  13  14
ENDBRANCH  12  13
ENDBRANCH  11  12
ENDBRANCH  10  11
BRANCH   1  23
HETATM   23  C1  UNL     1      26.170   8.954  50.244  1.00  0.00     0.121 C 
HETATM   24  N1  UNL     1      27.207   9.516  50.755  1.00  0.00    -0.311 NA
HETATM   25  H1  UNL     1      27.857   8.904  51.314  1.00  0.00     0.186 HD
ENDBRANCH   1  23
BRANCH   6  26
HETATM   26  C6  UNL     1      23.081   2.465  52.233  1.00  0.00     0.058 A 
HETATM   27  C7  UNL     1      21.772   2.099  52.447  1.00  0.00     0.033 A 
HETATM   28  C8  UNL     1      21.412   0.898  53.021  1.00  0.00     0.026 A 
HETATM   29  C9  UNL     1      22.412   0.023  53.398  1.00  0.00     0.034 A 
HETATM   30 CL1  UNL     1      21.976  -1.502  54.127  1.00  0.00    -0.084 Cl
HETATM   31  C10 UNL     1      23.728   0.361  53.196  1.00  0.00     0.026 A 
HETATM   32  C11 UNL     1      24.039   1.575  52.617  1.00  0.00     0.033 A 
ENDBRANCH   6  26
TORSDOF 7
ENDMDL
MODEL 7
REMARK VINA RESULT:      -7.9      4.484      6.881
REMARK  7 active torsions:
REMARK  status: ('A' for Active; 'I' for Inactive)
REMARK    1  A    between atoms: C1_2  and  C2_3 
REMARK    2  A    between atoms: N3_8  and  C6_9 
REMARK    3  A    between atoms: C15_19  and  O1_20 
REMARK    4  A    between atoms: O1_20  and  C16_21 
REMARK    5  A    between atoms: C16_21  and  C17_22 
REMARK    6  A    between atoms: C17_22  and  C18_23 
REMARK    7  A    between atoms: C21_28  and  O3_29 
ROOT
HETATM    1  C2  UNL     1      28.421   7.850  48.086  1.00  0.00     0.011 C 
HETATM    2  C3  UNL     1      27.126   7.900  48.298  1.00  0.00     0.004 C 
HETATM    3  C4  UNL     1      26.641   6.527  48.189  1.00  0.00     0.086 A 
HETATM    4  C5  UNL     1      25.305   6.236  48.735  1.00  0.00     0.125 A 
HETATM    5  N2  UNL     1      25.003   5.212  49.431  1.00  0.00    -0.183 NA
HETATM    6  N3  UNL     1      25.921   4.217  49.779  1.00  0.00    -0.245 N 
HETATM    7  C12 UNL     1      27.255   4.392  49.320  1.00  0.00     0.127 A 
HETATM    8  C13 UNL     1      27.579   5.474  48.584  1.00  0.00    -0.025 A 
HETATM    9  C14 UNL     1      28.980   5.571  48.285  1.00  0.00     0.047 C 
HETATM   10  C15 UNL     1      29.441   6.816  48.032  1.00  0.00     0.080 C 
ENDROOT
BRANCH  10  11
HETATM   11  O1  UNL     1      30.781   7.019  47.754  1.00  0.00    -0.350 OA
BRANCH  11  12
HETATM   12  C16 UNL     1      31.509   6.480  46.700  1.00  0.00     0.178 C 
BRANCH  12  13
HETATM   13  C17 UNL     1      32.982   6.511  47.087  1.00  0.00     0.067 C 
BRANCH  13  14
HETATM   14  C18 UNL     1      33.216   5.278  47.954  1.00  0.00     0.277 C 
HETATM   15  N4  UNL     1      32.318   4.226  47.537  1.00  0.00     0.095 N 
HETATM   16  C19 UNL     1      32.982   2.950  47.723  1.00  0.00     0.296 C 
HETATM   17  H17 UNL     1      31.979   4.357  46.556  1.00  0.00     0.316 HD
HETATM   18  C20 UNL     1      34.109   2.915  46.704  1.00  0.00     0.201 C 
HETATM   19  O2  UNL     1      34.912   4.043  46.744  1.00  0.00    -0.358 OA
HETATM   20  C21 UNL     1      34.665   4.886  47.813  1.00  0.00     0.289 C 
BRANCH  20  21
HETATM   21  O3  UNL     1      35.194   4.358  49.002  1.00  0.00    -0.369 OA
HETATM   22  H23 UNL     1      35.078   5.047  49.690  1.00  0.00     0.212 HD
ENDBRANCH  20  21
ENDBRANCH  13  14
ENDBRANCH  12  13
ENDBRANCH  11  12
ENDBRANCH  10  11
BRANCH   1  23
HETATM   23  C1  UNL     1      29.064   9.188  48.136  1.00  0.00     0.121 C 
HETATM   24  N1  UNL     1      30.175   9.822  48.001  1.00  0.00    -0.311 NA
HETATM   25  H1  UNL     1      31.025   9.250  47.758  1.00  0.00     0.186 HD
ENDBRANCH   1  23
BRANCH   6  26
HETATM   26  C6  UNL     1      25.471   3.118  50.553  1.00  0.00     0.058 A 
HETATM   27  C7  UNL     1      26.406   2.355  51.213  1.00  0.00     0.033 A 
HETATM   28  C8  UNL     1      26.073   1.266  51.992  1.00  0.00     0.026 A 
HETATM   29  C9  UNL     1      24.740   0.926  52.113  1.00  0.00     0.034 A 
HETATM   30 CL1  UNL     1      24.300  -0.449  53.093  1.00  0.00    -0.084 Cl
HETATM   31  C10 UNL     1      23.784   1.670  51.465  1.00  0.00     0.026 A 
HETATM   32  C11 UNL     1      24.165   2.752  50.698  1.00  0.00     0.033 A 
ENDBRANCH   6  26
TORSDOF 7
ENDMDL
MODEL 8
REMARK VINA RESULT:      -7.8      3.129      4.762
REMARK  7 active torsions:
REMARK  status: ('A' for Active; 'I' for Inactive)
REMARK    1  A    between atoms: C1_2  and  C2_3 
REMARK    2  A    between atoms: N3_8  and  C6_9 
REMARK    3  A    between atoms: C15_19  and  O1_20 
REMARK    4  A    between atoms: O1_20  and  C16_21 
REMARK    5  A    between atoms: C16_21  and  C17_22 
REMARK    6  A    between atoms: C17_22  and  C18_23 
REMARK    7  A    between atoms: C21_28  and  O3_29 
ROOT
HETATM    1  C2  UNL     1      22.581   5.062  50.920  1.00  0.00     0.011 C 
HETATM    2  C3  UNL     1      22.272   4.181  51.845  1.00  0.00     0.004 C 
HETATM    3  C4  UNL     1      23.019   2.970  51.520  1.00  0.00     0.086 A 
HETATM    4  C5  UNL     1      23.148   1.952  52.577  1.00  0.00     0.125 A 
HETATM    5  N2  UNL     1      24.218   1.318  52.857  1.00  0.00    -0.183 NA
HETATM    6  N3  UNL     1      25.431   1.515  52.191  1.00  0.00    -0.245 N 
HETATM    7  C12 UNL     1      25.436   2.486  51.153  1.00  0.00     0.127 A 
HETATM    8  C13 UNL     1      24.309   3.161  50.853  1.00  0.00    -0.025 A 
HETATM    9  C14 UNL     1      24.492   4.182  49.861  1.00  0.00     0.047 C 
HETATM   10  C15 UNL     1      23.598   5.196  49.891  1.00  0.00     0.080 C 
ENDROOT
BRANCH  10  11
HETATM   11  O1  UNL     1      23.701   6.242  48.990  1.00  0.00    -0.350 OA
BRANCH  11  12
HETATM   12  C16 UNL     1      24.864   6.748  48.424  1.00  0.00     0.178 C 
BRANCH  12  13
HETATM   13  C17 UNL     1      25.090   8.144  48.991  1.00  0.00     0.067 C 
BRANCH  13  14
HETATM   14  C18 UNL     1      26.502   8.142  49.566  1.00  0.00     0.277 C 
HETATM   15  N4  UNL     1      27.440   7.795  48.523  1.00  0.00     0.095 N 
HETATM   16  C19 UNL     1      28.681   8.506  48.761  1.00  0.00     0.296 C 
HETATM   17  H17 UNL     1      27.057   7.976  47.567  1.00  0.00     0.316 HD
HETATM   18  C20 UNL     1      28.372   9.975  48.522  1.00  0.00     0.201 C 
HETATM   19  O2  UNL     1      27.261  10.416  49.222  1.00  0.00    -0.358 OA
HETATM   20  C21 UNL     1      26.765   9.510  50.142  1.00  0.00     0.289 C 
BRANCH  20  21
HETATM   21  O3  UNL     1      27.577   9.462  51.287  1.00  0.00    -0.369 OA
HETATM   22  H23 UNL     1      27.034   9.063  52.000  1.00  0.00     0.212 HD
ENDBRANCH  20  21
ENDBRANCH  13  14
ENDBRANCH  12  13
ENDBRANCH  11  12
ENDBRANCH  10  11
BRANCH   1  23
HETATM   23  C1  UNL     1      21.871   6.355  51.097  1.00  0.00     0.121 C 
HETATM   24  N1  UNL     1      21.569   7.469  50.532  1.00  0.00    -0.311 NA
HETATM   25  H1  UNL     1      21.921   7.619  49.550  1.00  0.00     0.186 HD
ENDBRANCH   1  23
BRANCH   6  26
HETATM   26  C6  UNL     1      26.556   0.747  52.585  1.00  0.00     0.058 A 
HETATM   27  C7  UNL     1      27.668   1.408  53.054  1.00  0.00     0.033 A 
HETATM   28  C8  UNL     1      28.812   0.756  53.463  1.00  0.00     0.026 A 
HETATM   29  C9  UNL     1      28.843  -0.624  53.397  1.00  0.00     0.034 A 
HETATM   30 CL1  UNL     1      30.283  -1.466  53.908  1.00  0.00    -0.084 Cl
HETATM   31  C10 UNL     1      27.748  -1.310  52.931  1.00  0.00     0.026 A 
HETATM   32  C11 UNL     1      26.624  -0.613  52.534  1.00  0.00     0.033 A 
ENDBRANCH   6  26
TORSDOF 7
ENDMDL
MODEL 9
REMARK VINA RESULT:      -7.7      4.874      8.984
REMARK  7 active torsions:
REMARK  status: ('A' for Active; 'I' for Inactive)
REMARK    1  A    between atoms: C1_2  and  C2_3 
REMARK    2  A    between atoms: N3_8  and  C6_9 
REMARK    3  A    between atoms: C15_19  and  O1_20 
REMARK    4  A    between atoms: O1_20  and  C16_21 
REMARK    5  A    between atoms: C16_21  and  C17_22 
REMARK    6  A    between atoms: C17_22  and  C18_23 
REMARK    7  A    between atoms: C21_28  and  O3_29 
ROOT
HETATM    1  C2  UNL     1      22.478   2.527  50.044  1.00  0.00     0.011 C 
HETATM    2  C3  UNL     1      22.313   3.522  49.203  1.00  0.00     0.004 C 
HETATM    3  C4  UNL     1      23.318   4.521  49.550  1.00  0.00     0.086 A 
HETATM    4  C5  UNL     1      23.602   5.569  48.555  1.00  0.00     0.125 A 
HETATM    5  N2  UNL     1      24.764   5.986  48.239  1.00  0.00    -0.183 NA
HETATM    6  N3  UNL     1      25.944   5.488  48.803  1.00  0.00    -0.245 N 
HETATM    7  C12 UNL     1      25.800   4.459  49.773  1.00  0.00     0.127 A 
HETATM    8  C13 UNL     1      24.573   4.013  50.109  1.00  0.00    -0.025 A 
HETATM    9  C14 UNL     1      24.590   2.902  51.017  1.00  0.00     0.047 C 
HETATM   10  C15 UNL     1      23.500   2.103  50.987  1.00  0.00     0.080 C 
ENDROOT
BRANCH  10  11
HETATM   11  O1  UNL     1      23.428   0.992  51.809  1.00  0.00    -0.350 OA
BRANCH  11  12
HETATM   12  C16 UNL     1      23.834   0.903  53.135  1.00  0.00     0.178 C 
BRANCH  12  13
HETATM   13  C17 UNL     1      24.257  -0.537  53.397  1.00  0.00     0.067 C 
BRANCH  13  14
HETATM   14  C18 UNL     1      25.783  -0.534  53.396  1.00  0.00     0.277 C 
HETATM   15  N4  UNL     1      26.257   0.189  52.240  1.00  0.00     0.095 N 
HETATM   16  C19 UNL     1      27.494   0.859  52.588  1.00  0.00     0.296 C 
HETATM   17  H17 UNL     1      25.540   0.852  51.862  1.00  0.00     0.316 HD
HETATM   18  C20 UNL     1      27.115   1.942  53.585  1.00  0.00     0.201 C 
HETATM   19  O2  UNL     1      26.350   1.467  54.638  1.00  0.00    -0.358 OA
HETATM   20  C21 UNL     1      26.241   0.088  54.691  1.00  0.00     0.289 C 
BRANCH  20  21
HETATM   21  O3  UNL     1      27.426  -0.491  55.173  1.00  0.00    -0.369 OA
HETATM   22  H23 UNL     1      28.142   0.158  55.009  1.00  0.00     0.212 HD
ENDBRANCH  20  21
ENDBRANCH  13  14
ENDBRANCH  12  13
ENDBRANCH  11  12
ENDBRANCH  10  11
BRANCH   1  23
HETATM   23  C1  UNL     1      21.500   1.429  49.836  1.00  0.00     0.121 C 
HETATM   24  N1  UNL     1      20.760   0.559  50.428  1.00  0.00    -0.311 NA
HETATM   25  H1  UNL     1      20.791   0.541  51.480  1.00  0.00     0.186 HD
ENDBRANCH   1  23
BRANCH   6  26
HETATM   26  C6  UNL     1      27.182   6.032  48.379  1.00  0.00     0.058 A 
HETATM   27  C7  UNL     1      27.202   7.322  47.902  1.00  0.00     0.033 A 
HETATM   28  C8  UNL     1      28.353   7.944  47.466  1.00  0.00     0.026 A 
HETATM   29  C9  UNL     1      29.540   7.238  47.510  1.00  0.00     0.034 A 
HETATM   30 CL1  UNL     1      31.006   8.009  46.961  1.00  0.00    -0.084 Cl
HETATM   31  C10 UNL     1      29.551   5.948  47.982  1.00  0.00     0.026 A 
HETATM   32  C11 UNL     1      28.373   5.368  48.408  1.00  0.00     0.033 A 
ENDBRANCH   6  26
TORSDOF 7
ENDMDL
