MODEL 1
REMARK VINA RESULT:      -7.6      0.000      0.000
REMARK  3 active torsions:
REMARK  status: ('A' for Active; 'I' for Inactive)
REMARK    1  A    between atoms: C2_2  and  C3_3 
REMARK       I    between atoms: C3_3  and  N1_5 
REMARK    2  A    between atoms: N1_5  and  C4_6 
REMARK    3  A    between atoms: C4_6  and  C5_7 
ROOT
HETATM    1  C5  UNL     1      24.781   3.823  50.942  1.00  0.00     0.050 C 
HETATM    2  C6  UNL     1      25.833   4.177  49.977  1.00  0.00     0.001 C 
HETATM    3  C7  UNL     1      26.741   3.366  49.389  1.00  0.00     0.014 C 
HETATM    4  C8  UNL     1      25.919   5.585  49.514  1.00  0.00     0.187 C 
HETATM    5  O2  UNL     1      24.748   6.067  48.914  1.00  0.00    -0.344 OA
HETATM    6  C9  UNL     1      24.691   7.403  48.456  1.00  0.00     0.252 C 
HETATM    7  N2  UNL     1      24.286   8.204  49.364  1.00  0.00    -0.231 NA
HETATM    8  C10 UNL     1      23.922   7.861  50.690  1.00  0.00     0.230 C 
HETATM    9  N3  UNL     1      22.784   7.485  50.259  1.00  0.00    -0.263 NA
HETATM   10  C11 UNL     1      21.787   6.967  51.121  1.00  0.00     0.272 C 
HETATM   11  N4  UNL     1      22.001   5.611  51.577  1.00  0.00    -0.371 N 
HETATM   12  C12 UNL     1      22.244   4.530  50.682  1.00  0.00     0.037 A 
HETATM   13  C13 UNL     1      21.104   4.192  49.986  1.00  0.00     0.056 A 
HETATM   14  C14 UNL     1      20.980   3.193  49.011  1.00  0.00     0.074 A 
HETATM   15 CL1  UNL     1      19.470   2.864  48.197  1.00  0.00    -0.081 Cl
HETATM   16  C15 UNL     1      22.135   2.498  48.752  1.00  0.00     0.138 A 
HETATM   17  F1  UNL     1      22.017   1.535  47.814  1.00  0.00    -0.204 F 
HETATM   18  C16 UNL     1      23.303   2.827  49.453  1.00  0.00     0.054 A 
HETATM   19  C17 UNL     1      23.401   3.815  50.408  1.00  0.00    -0.022 A 
HETATM   20  H16 UNL     1      22.062   4.911  52.330  1.00  0.00     0.161 HD
ENDROOT
BRANCH   1  21
HETATM   21  C4  UNL     1      25.081   2.574  51.732  1.00  0.00     0.133 C 
BRANCH  21  22
HETATM   22  N1  UNL     1      26.329   2.542  52.414  1.00  0.00    -0.357 N 
HETATM   23  C3  UNL     1      27.240   2.271  53.442  1.00  0.00     0.240 C 
HETATM   24  O1  UNL     1      26.772   1.698  54.448  1.00  0.00    -0.269 OA
HETATM   25  H4  UNL     1      27.050   3.010  51.750  1.00  0.00     0.162 HD
BRANCH  23  26
HETATM   26  C2  UNL     1      28.655   2.498  53.642  1.00  0.00     0.064 C 
HETATM   27  C1  UNL     1      28.946   1.217  53.804  1.00  0.00     0.017 C 
ENDBRANCH  23  26
ENDBRANCH  21  22
ENDBRANCH   1  21
TORSDOF 3
ENDMDL
MODEL 2
REMARK VINA RESULT:      -7.6      2.007      2.221
REMARK  3 active torsions:
REMARK  status: ('A' for Active; 'I' for Inactive)
REMARK    1  A    between atoms: C2_2  and  C3_3 
REMARK       I    between atoms: C3_3  and  N1_5 
REMARK    2  A    between atoms: N1_5  and  C4_6 
REMARK    3  A    between atoms: C4_6  and  C5_7 
ROOT
HETATM    1  C5  UNL     1      24.906   2.684  52.577  1.00  0.00     0.050 C 
HETATM    2  C6  UNL     1      25.850   2.473  51.468  1.00  0.00     0.001 C 
HETATM    3  C7  UNL     1      26.579   1.371  51.183  1.00  0.00     0.014 C 
HETATM    4  C8  UNL     1      26.021   3.562  50.473  1.00  0.00     0.187 C 
HETATM    5  O2  UNL     1      24.838   3.945  49.827  1.00  0.00    -0.344 OA
HETATM    6  C9  UNL     1      24.862   4.991  48.877  1.00  0.00     0.252 C 
HETATM    7  N2  UNL     1      24.671   6.132  49.417  1.00  0.00    -0.231 NA
HETATM    8  C10 UNL     1      24.455   6.389  50.794  1.00  0.00     0.230 C 
HETATM    9  N3  UNL     1      23.235   6.052  50.645  1.00  0.00    -0.263 NA
HETATM   10  C11 UNL     1      22.315   6.066  51.721  1.00  0.00     0.272 C 
HETATM   11  N4  UNL     1      22.443   4.977  52.664  1.00  0.00    -0.371 N 
HETATM   12  C12 UNL     1      22.447   3.610  52.262  1.00  0.00     0.037 A 
HETATM   13  C13 UNL     1      21.194   3.205  51.857  1.00  0.00     0.056 A 
HETATM   14  C14 UNL     1      20.834   1.937  51.380  1.00  0.00     0.074 A 
HETATM   15 CL1  UNL     1      19.202   1.551  50.893  1.00  0.00    -0.081 Cl
HETATM   16  C15 UNL     1      21.863   1.031  51.328  1.00  0.00     0.138 A 
HETATM   17  F1  UNL     1      21.518  -0.191  50.869  1.00  0.00    -0.204 F 
HETATM   18  C16 UNL     1      23.143   1.425  51.740  1.00  0.00     0.054 A 
HETATM   19  C17 UNL     1      23.474   2.678  52.205  1.00  0.00    -0.022 A 
HETATM   20  H16 UNL     1      22.531   4.622  53.627  1.00  0.00     0.161 HD
ENDROOT
BRANCH   1  21
HETATM   21  C4  UNL     1      25.177   1.808  53.774  1.00  0.00     0.133 C 
BRANCH  21  22
HETATM   22  N1  UNL     1      26.543   1.552  54.075  1.00  0.00    -0.357 N 
HETATM   23  C3  UNL     1      27.663   0.839  54.518  1.00  0.00     0.240 C 
HETATM   24  O1  UNL     1      27.442  -0.314  54.942  1.00  0.00    -0.269 OA
HETATM   25  H4  UNL     1      27.088   2.449  53.796  1.00  0.00     0.162 HD
BRANCH  23  26
HETATM   26  C2  UNL     1      29.080   1.114  54.613  1.00  0.00     0.064 C 
HETATM   27  C1  UNL     1      29.020   2.230  53.905  1.00  0.00     0.017 C 
ENDBRANCH  23  26
ENDBRANCH  21  22
ENDBRANCH   1  21
TORSDOF 3
ENDMDL
MODEL 3
REMARK VINA RESULT:      -7.5      1.582      2.192
REMARK  3 active torsions:
REMARK  status: ('A' for Active; 'I' for Inactive)
REMARK    1  A    between atoms: C2_2  and  C3_3 
REMARK       I    between atoms: C3_3  and  N1_5 
REMARK    2  A    between atoms: N1_5  and  C4_6 
REMARK    3  A    between atoms: C4_6  and  C5_7 
ROOT
HETATM    1  C5  UNL     1      25.139   4.140  50.560  1.00  0.00     0.050 C 
HETATM    2  C6  UNL     1      26.113   4.753  49.644  1.00  0.00     0.001 C 
HETATM    3  C7  UNL     1      27.132   4.162  48.982  1.00  0.00     0.014 C 
HETATM    4  C8  UNL     1      25.971   6.197  49.330  1.00  0.00     0.187 C 
HETATM    5  O2  UNL     1      24.734   6.548  48.774  1.00  0.00    -0.344 OA
HETATM    6  C9  UNL     1      24.463   7.898  48.457  1.00  0.00     0.252 C 
HETATM    7  N2  UNL     1      23.945   8.527  49.440  1.00  0.00    -0.231 NA
HETATM    8  C10 UNL     1      23.651   7.996  50.720  1.00  0.00     0.230 C 
HETATM    9  N3  UNL     1      22.582   7.491  50.244  1.00  0.00    -0.263 NA
HETATM   10  C11 UNL     1      21.687   6.736  51.040  1.00  0.00     0.272 C 
HETATM   11  N4  UNL     1      22.117   5.391  51.355  1.00  0.00    -0.371 N 
HETATM   12  C12 UNL     1      22.520   4.461  50.354  1.00  0.00     0.037 A 
HETATM   13  C13 UNL     1      21.441   4.021  49.618  1.00  0.00     0.056 A 
HETATM   14  C14 UNL     1      21.468   3.120  48.545  1.00  0.00     0.074 A 
HETATM   15 CL1  UNL     1      20.022   2.643  47.690  1.00  0.00    -0.081 Cl
HETATM   16  C15 UNL     1      22.716   2.647  48.224  1.00  0.00     0.138 A 
HETATM   17  F1  UNL     1      22.744   1.780  47.191  1.00  0.00    -0.204 F 
HETATM   18  C16 UNL     1      23.823   3.082  48.964  1.00  0.00     0.054 A 
HETATM   19  C17 UNL     1      23.773   3.969  50.016  1.00  0.00    -0.022 A 
HETATM   20  H16 UNL     1      22.294   4.635  52.031  1.00  0.00     0.161 HD
ENDROOT
BRANCH   1  21
HETATM   21  C4  UNL     1      25.640   2.879  51.218  1.00  0.00     0.133 C 
BRANCH  21  22
HETATM   22  N1  UNL     1      24.652   2.020  51.774  1.00  0.00    -0.357 N 
HETATM   23  C3  UNL     1      24.126   0.939  52.491  1.00  0.00     0.240 C 
HETATM   24  O1  UNL     1      24.963   0.178  53.021  1.00  0.00    -0.269 OA
HETATM   25  H4  UNL     1      23.691   2.432  51.479  1.00  0.00     0.162 HD
BRANCH  23  26
HETATM   26  C2  UNL     1      22.795   0.457  52.788  1.00  0.00     0.064 C 
HETATM   27  C1  UNL     1      22.268   0.895  51.657  1.00  0.00     0.017 C 
ENDBRANCH  23  26
ENDBRANCH  21  22
ENDBRANCH   1  21
TORSDOF 3
ENDMDL
MODEL 4
REMARK VINA RESULT:      -7.4      3.781      5.301
REMARK  3 active torsions:
REMARK  status: ('A' for Active; 'I' for Inactive)
REMARK    1  A    between atoms: C2_2  and  C3_3 
REMARK       I    between atoms: C3_3  and  N1_5 
REMARK    2  A    between atoms: N1_5  and  C4_6 
REMARK    3  A    between atoms: C4_6  and  C5_7 
ROOT
HETATM    1  C5  UNL     1      23.271   2.724  50.772  1.00  0.00     0.050 C 
HETATM    2  C6  UNL     1      22.432   3.755  51.404  1.00  0.00     0.001 C 
HETATM    3  C7  UNL     1      21.440   3.593  52.307  1.00  0.00     0.014 C 
HETATM    4  C8  UNL     1      22.706   5.179  51.084  1.00  0.00     0.187 C 
HETATM    5  O2  UNL     1      24.013   5.594  51.375  1.00  0.00    -0.344 OA
HETATM    6  C9  UNL     1      24.408   6.921  51.090  1.00  0.00     0.252 C 
HETATM    7  N2  UNL     1      24.876   7.037  49.908  1.00  0.00    -0.231 NA
HETATM    8  C10 UNL     1      25.010   6.004  48.948  1.00  0.00     0.230 C 
HETATM    9  N3  UNL     1      26.079   5.628  49.530  1.00  0.00    -0.263 NA
HETATM   10  C11 UNL     1      26.839   4.527  49.069  1.00  0.00     0.272 C 
HETATM   11  N4  UNL     1      26.287   3.222  49.363  1.00  0.00    -0.371 N 
HETATM   12  C12 UNL     1      25.913   2.827  50.680  1.00  0.00     0.037 A 
HETATM   13  C13 UNL     1      27.021   2.615  51.471  1.00  0.00     0.056 A 
HETATM   14  C14 UNL     1      27.030   2.237  52.820  1.00  0.00     0.074 A 
HETATM   15 CL1  UNL     1      28.512   2.001  53.715  1.00  0.00    -0.081 Cl
HETATM   16  C15 UNL     1      25.787   2.068  53.377  1.00  0.00     0.138 A 
HETATM   17  F1  UNL     1      25.794   1.704  54.677  1.00  0.00    -0.204 F 
HETATM   18  C16 UNL     1      24.650   2.277  52.586  1.00  0.00     0.054 A 
HETATM   19  C17 UNL     1      24.665   2.648  51.260  1.00  0.00    -0.022 A 
HETATM   20  H16 UNL     1      25.993   2.279  49.071  1.00  0.00     0.161 HD
ENDROOT
BRANCH   1  21
HETATM   21  C4  UNL     1      22.621   1.364  50.723  1.00  0.00     0.133 C 
BRANCH  21  22
HETATM   22  N1  UNL     1      22.387   0.730  51.974  1.00  0.00    -0.357 N 
HETATM   23  C3  UNL     1      21.677   0.058  52.977  1.00  0.00     0.240 C 
HETATM   24  O1  UNL     1      20.482  -0.195  52.721  1.00  0.00    -0.269 OA
HETATM   25  H4  UNL     1      23.327   0.772  52.516  1.00  0.00     0.162 HD
BRANCH  23  26
HETATM   26  C2  UNL     1      21.995  -0.441  54.297  1.00  0.00     0.064 C 
HETATM   27  C1  UNL     1      23.252  -0.730  54.002  1.00  0.00     0.017 C 
ENDBRANCH  23  26
ENDBRANCH  21  22
ENDBRANCH   1  21
TORSDOF 3
ENDMDL
MODEL 5
REMARK VINA RESULT:      -7.3      3.445      4.164
REMARK  3 active torsions:
REMARK  status: ('A' for Active; 'I' for Inactive)
REMARK    1  A    between atoms: C2_2  and  C3_3 
REMARK       I    between atoms: C3_3  and  N1_5 
REMARK    2  A    between atoms: N1_5  and  C4_6 
REMARK    3  A    between atoms: C4_6  and  C5_7 
ROOT
HETATM    1  C5  UNL     1      23.599   3.153  52.003  1.00  0.00     0.050 C 
HETATM    2  C6  UNL     1      24.293   2.852  50.742  1.00  0.00     0.001 C 
HETATM    3  C7  UNL     1      25.560   2.418  50.562  1.00  0.00     0.014 C 
HETATM    4  C8  UNL     1      23.531   2.973  49.473  1.00  0.00     0.187 C 
HETATM    5  O2  UNL     1      22.380   2.176  49.413  1.00  0.00    -0.344 OA
HETATM    6  C9  UNL     1      21.552   2.223  48.268  1.00  0.00     0.252 C 
HETATM    7  N2  UNL     1      20.650   3.121  48.366  1.00  0.00    -0.231 NA
HETATM    8  C10 UNL     1      20.449   3.999  49.460  1.00  0.00     0.230 C 
HETATM    9  N3  UNL     1      19.840   3.063  50.074  1.00  0.00    -0.263 NA
HETATM   10  C11 UNL     1      19.301   3.240  51.371  1.00  0.00     0.272 C 
HETATM   11  N4  UNL     1      20.264   3.246  52.450  1.00  0.00    -0.371 N 
HETATM   12  C12 UNL     1      21.213   2.200  52.637  1.00  0.00     0.037 A 
HETATM   13  C13 UNL     1      20.605   1.049  53.090  1.00  0.00     0.056 A 
HETATM   14  C14 UNL     1      21.226  -0.177  53.362  1.00  0.00     0.074 A 
HETATM   15 CL1  UNL     1      20.336  -1.568  53.933  1.00  0.00    -0.081 Cl
HETATM   16  C15 UNL     1      22.581  -0.195  53.145  1.00  0.00     0.138 A 
HETATM   17  F1  UNL     1      23.180  -1.376  53.406  1.00  0.00    -0.204 F 
HETATM   18  C16 UNL     1      23.215   0.967  52.686  1.00  0.00     0.054 A 
HETATM   19  C17 UNL     1      22.585   2.163  52.425  1.00  0.00    -0.022 A 
HETATM   20  H16 UNL     1      20.673   3.673  53.294  1.00  0.00     0.161 HD
ENDROOT
BRANCH   1  21
HETATM   21  C4  UNL     1      24.531   3.515  53.133  1.00  0.00     0.133 C 
BRANCH  21  22
HETATM   22  N1  UNL     1      25.381   2.478  53.608  1.00  0.00    -0.357 N 
HETATM   23  C3  UNL     1      26.564   1.863  54.036  1.00  0.00     0.240 C 
HETATM   24  O1  UNL     1      27.581   2.586  54.046  1.00  0.00    -0.269 OA
HETATM   25  H4  UNL     1      24.753   1.601  53.727  1.00  0.00     0.162 HD
BRANCH  23  26
HETATM   26  C2  UNL     1      26.921   0.537  54.490  1.00  0.00     0.064 C 
HETATM   27  C1  UNL     1      26.664  -0.046  53.331  1.00  0.00     0.017 C 
ENDBRANCH  23  26
ENDBRANCH  21  22
ENDBRANCH   1  21
TORSDOF 3
ENDMDL
MODEL 6
REMARK VINA RESULT:      -7.2      3.302      4.662
REMARK  3 active torsions:
REMARK  status: ('A' for Active; 'I' for Inactive)
REMARK    1  A    between atoms: C2_2  and  C3_3 
REMARK       I    between atoms: C3_3  and  N1_5 
REMARK    2  A    between atoms: N1_5  and  C4_6 
REMARK    3  A    between atoms: C4_6  and  C5_7 
ROOT
HETATM    1  C5  UNL     1      24.814   2.217  51.222  1.00  0.00     0.050 C 
HETATM    2  C6  UNL     1      24.330   2.250  52.611  1.00  0.00     0.001 C 
HETATM    3  C7  UNL     1      24.974   2.691  53.715  1.00  0.00     0.014 C 
HETATM    4  C8  UNL     1      22.941   1.803  52.884  1.00  0.00     0.187 C 
HETATM    5  O2  UNL     1      21.958   2.510  52.178  1.00  0.00    -0.344 OA
HETATM    6  C9  UNL     1      20.597   2.161  52.328  1.00  0.00     0.252 C 
HETATM    7  N2  UNL     1      20.236   1.267  51.489  1.00  0.00    -0.231 NA
HETATM    8  C10 UNL     1      21.050   0.658  50.503  1.00  0.00     0.230 C 
HETATM    9  N3  UNL     1      20.884   1.681  49.762  1.00  0.00    -0.263 NA
HETATM   10  C11 UNL     1      21.472   1.783  48.479  1.00  0.00     0.272 C 
HETATM   11  N4  UNL     1      22.889   2.073  48.464  1.00  0.00    -0.371 N 
HETATM   12  C12 UNL     1      23.453   3.178  49.165  1.00  0.00     0.037 A 
HETATM   13  C13 UNL     1      23.131   4.372  48.559  1.00  0.00     0.056 A 
HETATM   14  C14 UNL     1      23.496   5.656  48.984  1.00  0.00     0.074 A 
HETATM   15 CL1  UNL     1      23.018   7.097  48.121  1.00  0.00    -0.081 Cl
HETATM   16  C15 UNL     1      24.257   5.687  50.126  1.00  0.00     0.138 A 
HETATM   17  F1  UNL     1      24.610   6.923  50.537  1.00  0.00    -0.204 F 
HETATM   18  C16 UNL     1      24.596   4.481  50.754  1.00  0.00     0.054 A 
HETATM   19  C17 UNL     1      24.225   3.230  50.318  1.00  0.00    -0.022 A 
HETATM   20  H16 UNL     1      23.849   1.873  48.148  1.00  0.00     0.161 HD
ENDROOT
BRANCH   1  21
HETATM   21  C4  UNL     1      26.316   2.171  51.107  1.00  0.00     0.133 C 
BRANCH  21  22
HETATM   22  N1  UNL     1      26.981   1.190  51.893  1.00  0.00    -0.357 N 
HETATM   23  C3  UNL     1      27.216  -0.056  52.489  1.00  0.00     0.240 C 
HETATM   24  O1  UNL     1      26.370  -0.942  52.250  1.00  0.00    -0.269 OA
HETATM   25  H4  UNL     1      27.865   1.672  52.298  1.00  0.00     0.162 HD
BRANCH  23  26
HETATM   26  C2  UNL     1      28.241  -0.600  53.353  1.00  0.00     0.064 C 
HETATM   27  C1  UNL     1      27.907   0.142  54.396  1.00  0.00     0.017 C 
ENDBRANCH  23  26
ENDBRANCH  21  22
ENDBRANCH   1  21
TORSDOF 3
ENDMDL
MODEL 7
REMARK VINA RESULT:      -7.1      4.146      6.385
REMARK  3 active torsions:
REMARK  status: ('A' for Active; 'I' for Inactive)
REMARK    1  A    between atoms: C2_2  and  C3_3 
REMARK       I    between atoms: C3_3  and  N1_5 
REMARK    2  A    between atoms: N1_5  and  C4_6 
REMARK    3  A    between atoms: C4_6  and  C5_7 
ROOT
HETATM    1  C5  UNL     1      26.974   8.467  48.480  1.00  0.00     0.050 C 
HETATM    2  C6  UNL     1      26.828   8.562  47.020  1.00  0.00     0.001 C 
HETATM    3  C7  UNL     1      27.773   8.394  46.068  1.00  0.00     0.014 C 
HETATM    4  C8  UNL     1      25.477   8.823  46.463  1.00  0.00     0.187 C 
HETATM    5  O2  UNL     1      24.510   7.876  46.827  1.00  0.00    -0.344 OA
HETATM    6  C9  UNL     1      23.176   8.027  46.384  1.00  0.00     0.252 C 
HETATM    7  N2  UNL     1      22.478   8.720  47.198  1.00  0.00    -0.231 NA
HETATM    8  C10 UNL     1      22.922   9.298  48.412  1.00  0.00     0.230 C 
HETATM    9  N3  UNL     1      22.787   8.165  48.978  1.00  0.00    -0.263 NA
HETATM   10  C11 UNL     1      23.082   7.968  50.348  1.00  0.00     0.272 C 
HETATM   11  N4  UNL     1      24.489   7.904  50.680  1.00  0.00    -0.371 N 
HETATM   12  C12 UNL     1      25.391   7.016  50.027  1.00  0.00     0.037 A 
HETATM   13  C13 UNL     1      25.169   5.710  50.407  1.00  0.00     0.056 A 
HETATM   14  C14 UNL     1      25.853   4.575  49.952  1.00  0.00     0.074 A 
HETATM   15 CL1  UNL     1      25.470   2.966  50.514  1.00  0.00    -0.081 Cl
HETATM   16  C15 UNL     1      26.842   4.830  49.036  1.00  0.00     0.138 A 
HETATM   17  F1  UNL     1      27.502   3.737  48.596  1.00  0.00    -0.204 F 
HETATM   18  C16 UNL     1      27.083   6.152  48.640  1.00  0.00     0.054 A 
HETATM   19  C17 UNL     1      26.397   7.254  49.101  1.00  0.00    -0.022 A 
HETATM   20  H16 UNL     1      25.299   8.202  51.242  1.00  0.00     0.161 HD
ENDROOT
BRANCH   1  21
HETATM   21  C4  UNL     1      28.377   8.729  48.966  1.00  0.00     0.133 C 
BRANCH  21  22
HETATM   22  N1  UNL     1      28.816  10.081  48.930  1.00  0.00    -0.357 N 
HETATM   23  C3  UNL     1      28.720  11.478  48.931  1.00  0.00     0.240 C 
HETATM   24  O1  UNL     1      27.564  11.944  49.003  1.00  0.00    -0.269 OA
HETATM   25  H4  UNL     1      29.900  10.047  48.864  1.00  0.00     0.162 HD
BRANCH  23  26
HETATM   26  C2  UNL     1      29.667  12.569  48.866  1.00  0.00     0.064 C 
HETATM   27  C1  UNL     1      30.717  11.816  49.148  1.00  0.00     0.017 C 
ENDBRANCH  23  26
ENDBRANCH  21  22
ENDBRANCH   1  21
TORSDOF 3
ENDMDL
MODEL 8
REMARK VINA RESULT:      -7.0      3.201      5.261
REMARK  3 active torsions:
REMARK  status: ('A' for Active; 'I' for Inactive)
REMARK    1  A    between atoms: C2_2  and  C3_3 
REMARK       I    between atoms: C3_3  and  N1_5 
REMARK    2  A    between atoms: N1_5  and  C4_6 
REMARK    3  A    between atoms: C4_6  and  C5_7 
ROOT
HETATM    1  C5  UNL     1      24.877   2.702  50.960  1.00  0.00     0.050 C 
HETATM    2  C6  UNL     1      24.620   2.348  52.365  1.00  0.00     0.001 C 
HETATM    3  C7  UNL     1      25.345   2.671  53.459  1.00  0.00     0.014 C 
HETATM    4  C8  UNL     1      23.388   1.583  52.684  1.00  0.00     0.187 C 
HETATM    5  O2  UNL     1      22.200   2.208  52.281  1.00  0.00    -0.344 OA
HETATM    6  C9  UNL     1      20.960   1.568  52.502  1.00  0.00     0.252 C 
HETATM    7  N2  UNL     1      20.629   0.815  51.525  1.00  0.00    -0.231 NA
HETATM    8  C10 UNL     1      21.369   0.600  50.337  1.00  0.00     0.230 C 
HETATM    9  N3  UNL     1      20.916   1.700  49.879  1.00  0.00    -0.263 NA
HETATM   10  C11 UNL     1      21.268   2.183  48.596  1.00  0.00     0.272 C 
HETATM   11  N4  UNL     1      22.595   2.749  48.487  1.00  0.00    -0.371 N 
HETATM   12  C12 UNL     1      23.066   3.774  49.356  1.00  0.00     0.037 A 
HETATM   13  C13 UNL     1      22.452   4.978  49.087  1.00  0.00     0.056 A 
HETATM   14  C14 UNL     1      22.656   6.193  49.755  1.00  0.00     0.074 A 
HETATM   15 CL1  UNL     1      21.809   7.655  49.314  1.00  0.00    -0.081 Cl
HETATM   16  C15 UNL     1      23.570   6.139  50.777  1.00  0.00     0.138 A 
HETATM   17  F1  UNL     1      23.768   7.308  51.421  1.00  0.00    -0.204 F 
HETATM   18  C16 UNL     1      24.205   4.923  51.062  1.00  0.00     0.054 A 
HETATM   19  C17 UNL     1      23.989   3.740  50.392  1.00  0.00    -0.022 A 
HETATM   20  H16 UNL     1      23.512   2.817  48.023  1.00  0.00     0.161 HD
ENDROOT
BRANCH   1  21
HETATM   21  C4  UNL     1      26.328   2.985  50.665  1.00  0.00     0.133 C 
BRANCH  21  22
HETATM   22  N1  UNL     1      26.601   4.140  49.881  1.00  0.00    -0.357 N 
HETATM   23  C3  UNL     1      27.277   4.961  48.970  1.00  0.00     0.240 C 
HETATM   24  O1  UNL     1      28.310   4.478  48.464  1.00  0.00    -0.269 OA
HETATM   25  H4  UNL     1      25.805   4.847  50.096  1.00  0.00     0.162 HD
BRANCH  23  26
HETATM   26  C2  UNL     1      27.069   6.292  48.442  1.00  0.00     0.064 C 
HETATM   27  C1  UNL     1      28.329   6.460  48.076  1.00  0.00     0.017 C 
ENDBRANCH  23  26
ENDBRANCH  21  22
ENDBRANCH   1  21
TORSDOF 3
ENDMDL
MODEL 9
REMARK VINA RESULT:      -7.0      3.556      6.126
REMARK  3 active torsions:
REMARK  status: ('A' for Active; 'I' for Inactive)
REMARK    1  A    between atoms: C2_2  and  C3_3 
REMARK       I    between atoms: C3_3  and  N1_5 
REMARK    2  A    between atoms: N1_5  and  C4_6 
REMARK    3  A    between atoms: C4_6  and  C5_7 
ROOT
HETATM    1  C5  UNL     1      23.267   2.643  50.953  1.00  0.00     0.050 C 
HETATM    2  C6  UNL     1      22.434   3.671  51.595  1.00  0.00     0.001 C 
HETATM    3  C7  UNL     1      21.474   3.509  52.534  1.00  0.00     0.014 C 
HETATM    4  C8  UNL     1      22.673   5.093  51.242  1.00  0.00     0.187 C 
HETATM    5  O2  UNL     1      23.981   5.535  51.482  1.00  0.00    -0.344 OA
HETATM    6  C9  UNL     1      24.345   6.862  51.162  1.00  0.00     0.252 C 
HETATM    7  N2  UNL     1      24.771   6.966  49.962  1.00  0.00    -0.231 NA
HETATM    8  C10 UNL     1      24.890   5.919  49.016  1.00  0.00     0.230 C 
HETATM    9  N3  UNL     1      25.984   5.570  49.568  1.00  0.00    -0.263 NA
HETATM   10  C11 UNL     1      26.747   4.473  49.101  1.00  0.00     0.272 C 
HETATM   11  N4  UNL     1      26.226   3.165  49.435  1.00  0.00    -0.371 N 
HETATM   12  C12 UNL     1      25.903   2.786  50.770  1.00  0.00     0.037 A 
HETATM   13  C13 UNL     1      27.041   2.606  51.527  1.00  0.00     0.056 A 
HETATM   14  C14 UNL     1      27.101   2.253  52.881  1.00  0.00     0.074 A 
HETATM   15 CL1  UNL     1      28.616   2.056  53.729  1.00  0.00    -0.081 Cl
HETATM   16  C15 UNL     1      25.881   2.073  53.482  1.00  0.00     0.138 A 
HETATM   17  F1  UNL     1      25.937   1.732  54.787  1.00  0.00    -0.204 F 
HETATM   18  C16 UNL     1      24.714   2.250  52.726  1.00  0.00     0.054 A 
HETATM   19  C17 UNL     1      24.679   2.598  51.395  1.00  0.00    -0.022 A 
HETATM   20  H16 UNL     1      25.939   2.213  49.169  1.00  0.00     0.161 HD
ENDROOT
BRANCH   1  21
HETATM   21  C4  UNL     1      22.639   1.272  50.948  1.00  0.00     0.133 C 
BRANCH  21  22
HETATM   22  N1  UNL     1      21.276   1.202  50.550  1.00  0.00    -0.357 N 
HETATM   23  C3  UNL     1      20.154   1.356  49.726  1.00  0.00     0.240 C 
HETATM   24  O1  UNL     1      20.366   1.873  48.609  1.00  0.00    -0.269 OA
HETATM   25  H4  UNL     1      20.740   0.749  51.379  1.00  0.00     0.162 HD
BRANCH  23  26
HETATM   26  C2  UNL     1      18.745   1.053  49.848  1.00  0.00     0.064 C 
HETATM   27  C1  UNL     1      18.356   2.314  49.756  1.00  0.00     0.017 C 
ENDBRANCH  23  26
ENDBRANCH  21  22
ENDBRANCH   1  21
TORSDOF 3
ENDMDL
