MODEL 1
REMARK VINA RESULT:      -8.1      0.000      0.000
REMARK  2 active torsions:
REMARK  status: ('A' for Active; 'I' for Inactive)
REMARK    1  A    between atoms: C7_9  and  O1_10 
REMARK    2  A    between atoms: C11_14  and  O2_15 
ROOT
HETATM    1  C1  UNL     1      22.226  -1.268  54.847  1.00  0.00     0.131 C 
HETATM    2  N1  UNL     1      22.536  -0.127  53.995  1.00  0.00    -0.220 NA
HETATM    3  C2  UNL     1      23.719  -0.172  53.462  1.00  0.00     0.054 A 
HETATM    4  C3  UNL     1      25.062  -0.558  53.064  1.00  0.00     0.090 C 
HETATM    5  C4  UNL     1      26.094  -0.051  53.983  1.00  0.00     0.017 C 
HETATM    6  C5  UNL     1      26.802   0.938  53.454  1.00  0.00     0.098 C 
HETATM    7  F1  UNL     1      27.753   1.359  54.366  1.00  0.00    -0.211 F 
HETATM    8  C6  UNL     1      27.080   1.984  52.439  1.00  0.00     0.166 C 
HETATM    9  C7  UNL     1      26.410   2.393  51.354  1.00  0.00     0.055 C 
HETATM   10  C8  UNL     1      25.354   2.515  50.256  1.00  0.00     0.068 C 
HETATM   11  C9  UNL     1      24.602   3.783  50.442  1.00  0.00    -0.063 C 
HETATM   12  C10 UNL     1      25.211   4.961  50.509  1.00  0.00     0.012 C 
HETATM   13  C11 UNL     1      24.428   6.220  50.698  1.00  0.00     0.166 C 
HETATM   14  C13 UNL     1      23.152   6.219  49.981  1.00  0.00     0.006 C 
HETATM   15  C14 UNL     1      22.537   5.016  49.924  1.00  0.00    -0.011 C 
HETATM   16  C15 UNL     1      23.163   3.810  50.562  1.00  0.00     0.038 C 
HETATM   17  C16 UNL     1      22.424   2.619  49.924  1.00  0.00     0.067 C 
HETATM   18  C17 UNL     1      21.044   2.969  50.464  1.00  0.00     0.086 C 
HETATM   19  N2  UNL     1      21.187   3.529  51.619  1.00  0.00    -0.287 NA
HETATM   20  C18 UNL     1      22.604   3.616  51.969  1.00  0.00     0.202 C 
HETATM   21  C19 UNL     1      22.984   2.356  52.464  1.00  0.00    -0.073 C 
HETATM   22  S1  UNL     1      23.309   1.221  52.923  1.00  0.00    -0.031 SA
ENDROOT
BRANCH   9  23
HETATM   23  O1  UNL     1      27.521   3.272  51.296  1.00  0.00    -0.394 OA
HETATM   24  H8  UNL     1      28.260   3.087  50.620  1.00  0.00     0.210 HD
ENDBRANCH   9  23
BRANCH  13  25
HETATM   25  O2  UNL     1      25.199   7.296  50.329  1.00  0.00    -0.383 OA
HETATM   26  C12 UNL     1      26.168   6.953  49.390  1.00  0.00     0.202 C 
ENDBRANCH  13  25
TORSDOF 2
ENDMDL
MODEL 2
REMARK VINA RESULT:      -8.0      3.568      6.904
REMARK  2 active torsions:
REMARK  status: ('A' for Active; 'I' for Inactive)
REMARK    1  A    between atoms: C7_9  and  O1_10 
REMARK    2  A    between atoms: C11_14  and  O2_15 
ROOT
HETATM    1  C1  UNL     1      24.049   7.521  50.945  1.00  0.00     0.131 C 
HETATM    2  N1  UNL     1      23.961   6.130  51.372  1.00  0.00    -0.220 NA
HETATM    3  C2  UNL     1      23.030   5.452  50.772  1.00  0.00     0.054 A 
HETATM    4  C3  UNL     1      21.928   5.035  49.921  1.00  0.00     0.090 C 
HETATM    5  C4  UNL     1      20.616   5.230  50.557  1.00  0.00     0.017 C 
HETATM    6  C5  UNL     1      20.056   4.086  50.926  1.00  0.00     0.098 C 
HETATM    7  F1  UNL     1      18.827   4.343  51.507  1.00  0.00    -0.211 F 
HETATM    8  C6  UNL     1      20.059   2.628  51.199  1.00  0.00     0.166 C 
HETATM    9  C7  UNL     1      21.022   1.698  51.144  1.00  0.00     0.055 C 
HETATM   10  C8  UNL     1      22.372   1.013  50.940  1.00  0.00     0.068 C 
HETATM   11  C9  UNL     1      22.926   0.624  52.263  1.00  0.00    -0.063 C 
HETATM   12  C10 UNL     1      22.247  -0.131  53.117  1.00  0.00     0.012 C 
HETATM   13  C11 UNL     1      22.830  -0.505  54.442  1.00  0.00     0.166 C 
HETATM   14  C13 UNL     1      24.269  -0.768  54.387  1.00  0.00     0.006 C 
HETATM   15  C14 UNL     1      24.951   0.012  53.518  1.00  0.00    -0.011 C 
HETATM   16  C15 UNL     1      24.237   1.048  52.699  1.00  0.00     0.038 C 
HETATM   17  C16 UNL     1      25.229   1.389  51.572  1.00  0.00     0.067 C 
HETATM   18  C17 UNL     1      26.321   1.948  52.475  1.00  0.00     0.086 C 
HETATM   19  N2  UNL     1      25.761   2.512  53.494  1.00  0.00    -0.287 NA
HETATM   20  C18 UNL     1      24.306   2.403  53.397  1.00  0.00     0.202 C 
HETATM   21  C19 UNL     1      23.873   3.414  52.521  1.00  0.00    -0.073 C 
HETATM   22  S1  UNL     1      23.496   4.338  51.742  1.00  0.00    -0.031 SA
ENDROOT
BRANCH   9  23
HETATM   23  O1  UNL     1      19.934   0.893  51.565  1.00  0.00    -0.394 OA
HETATM   24  H8  UNL     1      19.498   0.264  50.893  1.00  0.00     0.210 HD
ENDBRANCH   9  23
BRANCH  13  25
HETATM   25  O2  UNL     1      22.151  -1.587  54.950  1.00  0.00    -0.383 OA
HETATM   26  C12 UNL     1      20.923  -1.779  54.325  1.00  0.00     0.202 C 
ENDBRANCH  13  25
TORSDOF 2
ENDMDL
MODEL 3
REMARK VINA RESULT:      -8.0      1.539      1.856
REMARK  2 active torsions:
REMARK  status: ('A' for Active; 'I' for Inactive)
REMARK    1  A    between atoms: C7_9  and  O1_10 
REMARK    2  A    between atoms: C11_14  and  O2_15 
ROOT
HETATM    1  C1  UNL     1      20.428   0.810  53.458  1.00  0.00     0.131 C 
HETATM    2  N1  UNL     1      21.257   1.690  52.645  1.00  0.00    -0.220 NA
HETATM    3  C2  UNL     1      22.470   1.260  52.469  1.00  0.00     0.054 A 
HETATM    4  C3  UNL     1      23.698   0.483  52.494  1.00  0.00     0.090 C 
HETATM    5  C4  UNL     1      24.570   0.836  53.625  1.00  0.00     0.017 C 
HETATM    6  C5  UNL     1      25.643   1.516  53.243  1.00  0.00     0.098 C 
HETATM    7  F1  UNL     1      26.418   1.807  54.352  1.00  0.00    -0.211 F 
HETATM    8  C6  UNL     1      26.456   2.290  52.273  1.00  0.00     0.166 C 
HETATM    9  C7  UNL     1      26.225   2.692  51.017  1.00  0.00     0.055 C 
HETATM   10  C8  UNL     1      25.557   2.918  49.661  1.00  0.00     0.068 C 
HETATM   11  C9  UNL     1      25.185   4.351  49.534  1.00  0.00    -0.063 C 
HETATM   12  C10 UNL     1      26.073   5.326  49.682  1.00  0.00     0.012 C 
HETATM   13  C11 UNL     1      25.669   6.759  49.550  1.00  0.00     0.166 C 
HETATM   14  C13 UNL     1      24.667   6.982  48.506  1.00  0.00     0.006 C 
HETATM   15  C14 UNL     1      23.764   5.985  48.369  1.00  0.00    -0.011 C 
HETATM   16  C15 UNL     1      23.833   4.768  49.244  1.00  0.00     0.038 C 
HETATM   17  C16 UNL     1      22.962   3.728  48.514  1.00  0.00     0.067 C 
HETATM   18  C17 UNL     1      21.655   4.502  48.618  1.00  0.00     0.086 C 
HETATM   19  N2  UNL     1      21.663   5.173  49.722  1.00  0.00    -0.287 NA
HETATM   20  C18 UNL     1      22.910   4.939  50.448  1.00  0.00     0.202 C 
HETATM   21  C19 UNL     1      22.773   3.713  51.121  1.00  0.00    -0.073 C 
HETATM   22  S1  UNL     1      22.630   2.614  51.735  1.00  0.00    -0.031 SA
ENDROOT
BRANCH   9  23
HETATM   23  O1  UNL     1      27.522   3.232  51.208  1.00  0.00    -0.394 OA
HETATM   24  H8  UNL     1      27.693   4.204  50.954  1.00  0.00     0.210 HD
ENDBRANCH   9  23
BRANCH  13  25
HETATM   25  O2  UNL     1      26.786   7.530  49.333  1.00  0.00    -0.383 OA
HETATM   26  C12 UNL     1      27.637   6.969  48.386  1.00  0.00     0.202 C 
ENDBRANCH  13  25
TORSDOF 2
ENDMDL
MODEL 4
REMARK VINA RESULT:      -7.9      2.638      5.800
REMARK  2 active torsions:
REMARK  status: ('A' for Active; 'I' for Inactive)
REMARK    1  A    between atoms: C7_9  and  O1_10 
REMARK    2  A    between atoms: C11_14  and  O2_15 
ROOT
HETATM    1  C1  UNL     1      19.847   3.441  47.190  1.00  0.00     0.131 C 
HETATM    2  N1  UNL     1      20.474   2.874  48.377  1.00  0.00    -0.220 NA
HETATM    3  C2  UNL     1      21.384   3.633  48.907  1.00  0.00     0.054 A 
HETATM    4  C3  UNL     1      22.305   4.717  49.203  1.00  0.00     0.090 C 
HETATM    5  C4  UNL     1      23.606   4.555  48.535  1.00  0.00     0.017 C 
HETATM    6  C5  UNL     1      24.572   4.223  49.382  1.00  0.00     0.098 C 
HETATM    7  F1  UNL     1      25.763   4.095  48.690  1.00  0.00    -0.211 F 
HETATM    8  C6  UNL     1      25.098   3.762  50.690  1.00  0.00     0.166 C 
HETATM    9  C7  UNL     1      24.495   3.386  51.826  1.00  0.00     0.055 C 
HETATM   10  C8  UNL     1      23.424   3.062  52.867  1.00  0.00     0.068 C 
HETATM   11  C9  UNL     1      23.379   1.592  53.078  1.00  0.00    -0.063 C 
HETATM   12  C10 UNL     1      24.455   0.895  53.419  1.00  0.00     0.012 C 
HETATM   13  C11 UNL     1      24.380  -0.584  53.623  1.00  0.00     0.166 C 
HETATM   14  C13 UNL     1      23.132  -1.016  54.257  1.00  0.00     0.006 C 
HETATM   15  C14 UNL     1      22.041  -0.302  53.897  1.00  0.00    -0.011 C 
HETATM   16  C15 UNL     1      22.159   0.833  52.923  1.00  0.00     0.038 C 
HETATM   17  C16 UNL     1      20.856   1.631  53.113  1.00  0.00     0.067 C 
HETATM   18  C17 UNL     1      19.914   0.520  52.669  1.00  0.00     0.086 C 
HETATM   19  N2  UNL     1      20.509  -0.184  51.765  1.00  0.00    -0.287 NA
HETATM   20  C18 UNL     1      21.848   0.344  51.511  1.00  0.00     0.202 C 
HETATM   21  C19 UNL     1      21.702   1.442  50.647  1.00  0.00    -0.073 C 
HETATM   22  S1  UNL     1      21.557   2.421  49.855  1.00  0.00    -0.031 SA
ENDROOT
BRANCH   9  23
HETATM   23  O1  UNL     1      25.851   3.216  52.205  1.00  0.00    -0.394 OA
HETATM   24  H8  UNL     1      26.088   2.483  52.870  1.00  0.00     0.210 HD
ENDBRANCH   9  23
BRANCH  13  25
HETATM   25  O2  UNL     1      25.470  -1.000  54.349  1.00  0.00    -0.383 OA
HETATM   26  C12 UNL     1      26.307   0.056  54.694  1.00  0.00     0.202 C 
ENDBRANCH  13  25
TORSDOF 2
ENDMDL
MODEL 5
REMARK VINA RESULT:      -7.8      2.705      5.801
REMARK  2 active torsions:
REMARK  status: ('A' for Active; 'I' for Inactive)
REMARK    1  A    between atoms: C7_9  and  O1_10 
REMARK    2  A    between atoms: C11_14  and  O2_15 
ROOT
HETATM    1  C1  UNL     1      22.657   6.305  46.936  1.00  0.00     0.131 C 
HETATM    2  N1  UNL     1      22.497   5.344  48.020  1.00  0.00    -0.220 NA
HETATM    3  C2  UNL     1      23.515   5.282  48.823  1.00  0.00     0.054 A 
HETATM    4  C3  UNL     1      24.796   5.484  49.480  1.00  0.00     0.090 C 
HETATM    5  C4  UNL     1      25.848   4.599  48.958  1.00  0.00     0.017 C 
HETATM    6  C5  UNL     1      26.171   3.637  49.811  1.00  0.00     0.098 C 
HETATM    7  F1  UNL     1      27.168   2.851  49.260  1.00  0.00    -0.211 F 
HETATM    8  C6  UNL     1      25.970   2.809  51.026  1.00  0.00     0.166 C 
HETATM    9  C7  UNL     1      25.007   2.787  51.956  1.00  0.00     0.055 C 
HETATM   10  C8  UNL     1      23.743   3.115  52.751  1.00  0.00     0.068 C 
HETATM   11  C9  UNL     1      22.769   2.004  52.597  1.00  0.00    -0.063 C 
HETATM   12  C10 UNL     1      23.080   0.747  52.890  1.00  0.00     0.012 C 
HETATM   13  C11 UNL     1      22.079  -0.350  52.724  1.00  0.00     0.166 C 
HETATM   14  C13 UNL     1      20.717   0.052  53.079  1.00  0.00     0.006 C 
HETATM   15  C14 UNL     1      20.409   1.333  52.770  1.00  0.00    -0.011 C 
HETATM   16  C15 UNL     1      21.424   2.225  52.118  1.00  0.00     0.038 C 
HETATM   17  C16 UNL     1      20.871   3.646  52.332  1.00  0.00     0.067 C 
HETATM   18  C17 UNL     1      19.595   3.453  51.524  1.00  0.00     0.086 C 
HETATM   19  N2  UNL     1      19.843   2.633  50.557  1.00  0.00    -0.287 NA
HETATM   20  C18 UNL     1      21.240   2.204  50.602  1.00  0.00     0.202 C 
HETATM   21  C19 UNL     1      22.005   3.226  50.014  1.00  0.00    -0.073 C 
HETATM   22  S1  UNL     1      22.681   4.148  49.468  1.00  0.00    -0.031 SA
ENDROOT
BRANCH   9  23
HETATM   23  O1  UNL     1      25.839   1.749  52.446  1.00  0.00    -0.394 OA
HETATM   24  H8  UNL     1      25.478   0.797  52.466  1.00  0.00     0.210 HD
ENDBRANCH   9  23
BRANCH  13  25
HETATM   25  O2  UNL     1      22.476  -1.443  53.457  1.00  0.00    -0.383 OA
HETATM   26  C12 UNL     1      22.264  -1.268  54.821  1.00  0.00     0.202 C 
ENDBRANCH  13  25
TORSDOF 2
ENDMDL
MODEL 6
REMARK VINA RESULT:      -7.7      3.050      5.936
REMARK  2 active torsions:
REMARK  status: ('A' for Active; 'I' for Inactive)
REMARK    1  A    between atoms: C7_9  and  O1_10 
REMARK    2  A    between atoms: C11_14  and  O2_15 
ROOT
HETATM    1  C1  UNL     1      17.413   0.167  50.080  1.00  0.00     0.131 C 
HETATM    2  N1  UNL     1      18.742   0.179  50.678  1.00  0.00    -0.220 NA
HETATM    3  C2  UNL     1      19.434   1.243  50.403  1.00  0.00     0.054 A 
HETATM    4  C3  UNL     1      19.887   2.526  49.895  1.00  0.00     0.090 C 
HETATM    5  C4  UNL     1      20.561   2.416  48.592  1.00  0.00     0.017 C 
HETATM    6  C5  UNL     1      21.871   2.597  48.682  1.00  0.00     0.098 C 
HETATM    7  F1  UNL     1      22.437   2.486  47.424  1.00  0.00    -0.211 F 
HETATM    8  C6  UNL     1      23.152   2.728  49.421  1.00  0.00     0.166 C 
HETATM    9  C7  UNL     1      23.458   2.647  50.722  1.00  0.00     0.055 C 
HETATM   10  C8  UNL     1      23.340   2.486  52.238  1.00  0.00     0.068 C 
HETATM   11  C9  UNL     1      23.966   1.200  52.641  1.00  0.00    -0.063 C 
HETATM   12  C10 UNL     1      25.219   0.897  52.328  1.00  0.00     0.012 C 
HETATM   13  C11 UNL     1      25.821  -0.406  52.747  1.00  0.00     0.166 C 
HETATM   14  C13 UNL     1      25.388  -0.841  54.076  1.00  0.00     0.006 C 
HETATM   15  C14 UNL     1      24.108  -0.532  54.382  1.00  0.00    -0.011 C 
HETATM   16  C15 UNL     1      23.245   0.202  53.397  1.00  0.00     0.038 C 
HETATM   17  C16 UNL     1      22.073   0.734  54.244  1.00  0.00     0.067 C 
HETATM   18  C17 UNL     1      21.534  -0.629  54.657  1.00  0.00     0.086 C 
HETATM   19  N2  UNL     1      21.749  -1.463  53.694  1.00  0.00    -0.287 NA
HETATM   20  C18 UNL     1      22.422  -0.792  52.583  1.00  0.00     0.202 C 
HETATM   21  C19 UNL     1      21.433  -0.109  51.853  1.00  0.00    -0.073 C 
HETATM   22  S1  UNL     1      20.530   0.490  51.197  1.00  0.00    -0.031 SA
ENDROOT
BRANCH   9  23
HETATM   23  O1  UNL     1      24.747   2.897  50.187  1.00  0.00    -0.394 OA
HETATM   24  H8  UNL     1      25.012   3.856  49.970  1.00  0.00     0.210 HD
ENDBRANCH   9  23
BRANCH  13  25
HETATM   25  O2  UNL     1      27.190  -0.318  52.679  1.00  0.00    -0.383 OA
HETATM   26  C12 UNL     1      27.750   0.122  53.875  1.00  0.00     0.202 C 
ENDBRANCH  13  25
TORSDOF 2
ENDMDL
MODEL 7
REMARK VINA RESULT:      -7.4      4.150      6.746
REMARK  2 active torsions:
REMARK  status: ('A' for Active; 'I' for Inactive)
REMARK    1  A    between atoms: C7_9  and  O1_10 
REMARK    2  A    between atoms: C11_14  and  O2_15 
ROOT
HETATM    1  C1  UNL     1      25.029   2.997  49.811  1.00  0.00     0.131 C 
HETATM    2  N1  UNL     1      23.859   2.344  50.383  1.00  0.00    -0.220 NA
HETATM    3  C2  UNL     1      23.995   2.017  51.632  1.00  0.00     0.054 A 
HETATM    4  C3  UNL     1      24.501   1.810  52.979  1.00  0.00     0.090 C 
HETATM    5  C4  UNL     1      25.197   0.523  53.133  1.00  0.00     0.017 C 
HETATM    6  C5  UNL     1      24.494  -0.351  53.841  1.00  0.00     0.098 C 
HETATM    7  F1  UNL     1      25.208  -1.531  53.951  1.00  0.00    -0.211 F 
HETATM    8  C6  UNL     1      23.264  -0.848  54.504  1.00  0.00     0.166 C 
HETATM    9  C7  UNL     1      22.018  -0.361  54.582  1.00  0.00     0.055 C 
HETATM   10  C8  UNL     1      20.795   0.540  54.415  1.00  0.00     0.068 C 
HETATM   11  C9  UNL     1      19.820  -0.124  53.511  1.00  0.00    -0.063 C 
HETATM   12  C10 UNL     1      19.358  -1.345  53.747  1.00  0.00     0.012 C 
HETATM   13  C11 UNL     1      18.378  -1.988  52.819  1.00  0.00     0.166 C 
HETATM   14  C13 UNL     1      17.401  -1.047  52.269  1.00  0.00     0.006 C 
HETATM   15  C14 UNL     1      17.885   0.192  52.026  1.00  0.00    -0.011 C 
HETATM   16  C15 UNL     1      19.320   0.520  52.319  1.00  0.00     0.038 C 
HETATM   17  C16 UNL     1      19.360   2.060  52.333  1.00  0.00     0.067 C 
HETATM   18  C17 UNL     1      18.957   2.250  50.877  1.00  0.00     0.086 C 
HETATM   19  N2  UNL     1      19.428   1.264  50.189  1.00  0.00    -0.287 NA
HETATM   20  C18 UNL     1      20.162   0.345  51.058  1.00  0.00     0.202 C 
HETATM   21  C19 UNL     1      21.440   0.897  51.257  1.00  0.00    -0.073 C 
HETATM   22  S1  UNL     1      22.593   1.398  51.415  1.00  0.00    -0.031 SA
ENDROOT
BRANCH   9  23
HETATM   23  O1  UNL     1      21.858  -1.553  55.333  1.00  0.00    -0.394 OA
HETATM   24  H8  UNL     1      21.784  -1.490  56.346  1.00  0.00     0.210 HD
ENDBRANCH   9  23
BRANCH  13  25
HETATM   25  O2  UNL     1      17.752  -3.027  53.464  1.00  0.00    -0.383 OA
HETATM   26  C12 UNL     1      16.421  -3.160  53.080  1.00  0.00     0.202 C 
ENDBRANCH  13  25
TORSDOF 2
ENDMDL
MODEL 8
REMARK VINA RESULT:      -7.4      3.939      7.099
REMARK  2 active torsions:
REMARK  status: ('A' for Active; 'I' for Inactive)
REMARK    1  A    between atoms: C7_9  and  O1_10 
REMARK    2  A    between atoms: C11_14  and  O2_15 
ROOT
HETATM    1  C1  UNL     1      20.043   7.600  49.707  1.00  0.00     0.131 C 
HETATM    2  N1  UNL     1      20.627   6.345  50.162  1.00  0.00    -0.220 NA
HETATM    3  C2  UNL     1      19.902   5.300  49.901  1.00  0.00     0.054 A 
HETATM    4  C3  UNL     1      18.852   4.400  49.454  1.00  0.00     0.090 C 
HETATM    5  C4  UNL     1      17.810   4.192  50.472  1.00  0.00     0.017 C 
HETATM    6  C5  UNL     1      17.870   2.986  51.019  1.00  0.00     0.098 C 
HETATM    7  F1  UNL     1      16.861   2.858  51.957  1.00  0.00    -0.211 F 
HETATM    8  C6  UNL     1      18.515   1.679  51.300  1.00  0.00     0.166 C 
HETATM    9  C7  UNL     1      19.702   1.164  50.955  1.00  0.00     0.055 C 
HETATM   10  C8  UNL     1      21.091   0.992  50.342  1.00  0.00     0.068 C 
HETATM   11  C9  UNL     1      22.108   1.016  51.425  1.00  0.00    -0.063 C 
HETATM   12  C10 UNL     1      22.052   0.192  52.464  1.00  0.00     0.012 C 
HETATM   13  C11 UNL     1      23.089   0.240  53.539  1.00  0.00     0.166 C 
HETATM   14  C13 UNL     1      24.435   0.511  53.031  1.00  0.00     0.006 C 
HETATM   15  C14 UNL     1      24.480   1.358  51.977  1.00  0.00    -0.011 C 
HETATM   16  C15 UNL     1      23.218   1.941  51.413  1.00  0.00     0.038 C 
HETATM   17  C16 UNL     1      23.630   2.461  50.023  1.00  0.00     0.067 C 
HETATM   18  C17 UNL     1      24.630   3.495  50.522  1.00  0.00     0.086 C 
HETATM   19  N2  UNL     1      24.216   3.952  51.656  1.00  0.00    -0.287 NA
HETATM   20  C18 UNL     1      22.956   3.312  52.031  1.00  0.00     0.202 C 
HETATM   21  C19 UNL     1      21.933   3.967  51.322  1.00  0.00    -0.073 C 
HETATM   22  S1  UNL     1      21.020   4.576  50.690  1.00  0.00    -0.031 SA
ENDROOT
BRANCH   9  23
HETATM   23  O1  UNL     1      19.182   0.085  51.715  1.00  0.00    -0.394 OA
HETATM   24  H8  UNL     1      18.590  -0.603  51.252  1.00  0.00     0.210 HD
ENDBRANCH   9  23
BRANCH  13  25
HETATM   25  O2  UNL     1      23.060  -0.933  54.254  1.00  0.00    -0.383 OA
HETATM   26  C12 UNL     1      21.770  -1.438  54.385  1.00  0.00     0.202 C 
ENDBRANCH  13  25
TORSDOF 2
ENDMDL
MODEL 9
REMARK VINA RESULT:      -7.3      8.773     11.199
REMARK  2 active torsions:
REMARK  status: ('A' for Active; 'I' for Inactive)
REMARK    1  A    between atoms: C7_9  and  O1_10 
REMARK    2  A    between atoms: C11_14  and  O2_15 
ROOT
HETATM    1  C1  UNL     1      34.653   5.866  42.506  1.00  0.00     0.131 C 
HETATM    2  N1  UNL     1      33.994   6.545  43.614  1.00  0.00    -0.220 NA
HETATM    3  C2  UNL     1      33.967   5.855  44.714  1.00  0.00     0.054 A 
HETATM    4  C3  UNL     1      34.124   4.822  45.723  1.00  0.00     0.090 C 
HETATM    5  C4  UNL     1      33.002   3.870  45.742  1.00  0.00     0.017 C 
HETATM    6  C5  UNL     1      32.220   4.031  46.801  1.00  0.00     0.098 C 
HETATM    7  F1  UNL     1      31.194   3.103  46.757  1.00  0.00    -0.211 F 
HETATM    8  C6  UNL     1      31.724   4.760  47.994  1.00  0.00     0.166 C 
HETATM    9  C7  UNL     1      32.050   5.942  48.533  1.00  0.00     0.055 C 
HETATM   10  C8  UNL     1      32.728   7.288  48.786  1.00  0.00     0.068 C 
HETATM   11  C9  UNL     1      31.763   8.381  48.496  1.00  0.00    -0.063 C 
HETATM   12  C10 UNL     1      30.573   8.444  49.080  1.00  0.00     0.012 C 
HETATM   13  C11 UNL     1      29.623   9.555  48.768  1.00  0.00     0.166 C 
HETATM   14  C13 UNL     1      30.288  10.844  48.568  1.00  0.00     0.006 C 
HETATM   15  C14 UNL     1      31.497  10.768  47.966  1.00  0.00    -0.011 C 
HETATM   16  C15 UNL     1      32.063   9.439  47.560  1.00  0.00     0.038 C 
HETATM   17  C16 UNL     1      33.561   9.720  47.337  1.00  0.00     0.067 C 
HETATM   18  C17 UNL     1      33.378  10.701  46.188  1.00  0.00     0.086 C 
HETATM   19  N2  UNL     1      32.335  10.350  45.511  1.00  0.00    -0.287 NA
HETATM   20  C18 UNL     1      31.729   9.156  46.097  1.00  0.00     0.202 C 
HETATM   21  C19 UNL     1      32.471   8.051  45.644  1.00  0.00    -0.073 C 
HETATM   22  S1  UNL     1      33.140   7.064  45.215  1.00  0.00    -0.031 SA
ENDROOT
BRANCH   9  23
HETATM   23  O1  UNL     1      31.040   5.535  49.440  1.00  0.00    -0.394 OA
HETATM   24  H8  UNL     1      30.146   5.217  49.071  1.00  0.00     0.210 HD
ENDBRANCH   9  23
BRANCH  13  25
HETATM   25  O2  UNL     1      28.677   9.638  49.761  1.00  0.00    -0.383 OA
HETATM   26  C12 UNL     1      27.558   8.858  49.489  1.00  0.00     0.202 C 
ENDBRANCH  13  25
TORSDOF 2
ENDMDL
