MODEL 1
REMARK VINA RESULT:      -7.2      0.000      0.000
REMARK  4 active torsions:
REMARK  status: ('A' for Active; 'I' for Inactive)
REMARK    1  A    between atoms: O1_2  and  C2_3 
REMARK    2  A    between atoms: C6_9  and  N3_10 
REMARK    3  A    between atoms: N3_10  and  C8_12 
REMARK    4  A    between atoms: C15_20  and  O2_21 
ROOT
HETATM    1  C2  UNL     1      26.398   0.375  54.246  1.00  0.00     0.103 A 
HETATM    2  C3  UNL     1      25.275  -0.387  53.944  1.00  0.00     0.072 A 
HETATM    3  C4  UNL     1      24.207   0.208  53.302  1.00  0.00     0.075 A 
HETATM    4  N1  UNL     1      23.092  -0.472  52.982  1.00  0.00    -0.241 NA
HETATM    5  C5  UNL     1      22.053   0.144  52.348  1.00  0.00     0.236 A 
HETATM    6  N2  UNL     1      22.173   1.437  52.053  1.00  0.00    -0.223 NA
HETATM    7  C6  UNL     1      23.266   2.167  52.350  1.00  0.00     0.144 A 
HETATM    8  C13 UNL     1      24.294   1.526  52.986  1.00  0.00     0.042 A 
HETATM    9  C14 UNL     1      25.408   2.274  53.288  1.00  0.00     0.057 A 
HETATM   10  C15 UNL     1      26.508   1.725  53.932  1.00  0.00     0.102 A 
ENDROOT
BRANCH   7  11
HETATM   11  N3  UNL     1      23.235   3.538  51.966  1.00  0.00    -0.335 N 
HETATM   12  C7  UNL     1      22.657   4.652  52.736  1.00  0.00     0.158 C 
BRANCH  11  13
HETATM   13  C8  UNL     1      23.814   3.921  50.702  1.00  0.00     0.048 C 
HETATM   14  C9  UNL     1      23.308   3.934  49.484  1.00  0.00     0.005 C 
HETATM   15  C10 UNL     1      23.897   4.789  48.664  1.00  0.00     0.038 C 
HETATM   16  C11 UNL     1      25.238   4.939  49.254  1.00  0.00     0.037 C 
HETATM   17 CL1  UNL     1      26.688   5.650  48.567  1.00  0.00    -0.084 Cl
HETATM   18  C12 UNL     1      25.188   4.414  50.489  1.00  0.00     0.054 C 
ENDBRANCH  11  13
ENDBRANCH   7  11
BRANCH  10  19
HETATM   19  O2  UNL     1      27.668   2.408  54.272  1.00  0.00    -0.353 OA
HETATM   20  C16 UNL     1      28.694   2.607  53.341  1.00  0.00     0.210 C 
ENDBRANCH  10  19
BRANCH   1  21
HETATM   21  O1  UNL     1      27.454  -0.222  54.883  1.00  0.00    -0.353 OA
HETATM   22  C1  UNL     1      28.585  -0.749  54.250  1.00  0.00     0.210 C 
ENDBRANCH   1  21
TORSDOF 4
ENDMDL
MODEL 2
REMARK VINA RESULT:      -7.1      1.368      1.487
REMARK  4 active torsions:
REMARK  status: ('A' for Active; 'I' for Inactive)
REMARK    1  A    between atoms: O1_2  and  C2_3 
REMARK    2  A    between atoms: C6_9  and  N3_10 
REMARK    3  A    between atoms: N3_10  and  C8_12 
REMARK    4  A    between atoms: C15_20  and  O2_21 
ROOT
HETATM    1  C2  UNL     1      26.796  -0.130  53.582  1.00  0.00     0.103 A 
HETATM    2  C3  UNL     1      25.558  -0.709  53.840  1.00  0.00     0.072 A 
HETATM    3  C4  UNL     1      24.407  -0.014  53.525  1.00  0.00     0.075 A 
HETATM    4  N1  UNL     1      23.180  -0.517  53.750  1.00  0.00    -0.241 NA
HETATM    5  C5  UNL     1      22.062   0.194  53.428  1.00  0.00     0.236 A 
HETATM    6  N2  UNL     1      22.218   1.400  52.885  1.00  0.00    -0.223 NA
HETATM    7  C6  UNL     1      23.422   1.953  52.638  1.00  0.00     0.144 A 
HETATM    8  C13 UNL     1      24.527   1.219  52.970  1.00  0.00     0.042 A 
HETATM    9  C14 UNL     1      25.754   1.786  52.717  1.00  0.00     0.057 A 
HETATM   10  C15 UNL     1      26.941   1.131  53.014  1.00  0.00     0.102 A 
ENDROOT
BRANCH   7  11
HETATM   11  N3  UNL     1      23.413   3.251  52.052  1.00  0.00    -0.335 N 
HETATM   12  C7  UNL     1      23.466   4.536  52.767  1.00  0.00     0.158 C 
BRANCH  11  13
HETATM   13  C8  UNL     1      23.346   3.368  50.616  1.00  0.00     0.048 C 
HETATM   14  C9  UNL     1      23.293   2.447  49.673  1.00  0.00     0.005 C 
HETATM   15  C10 UNL     1      22.741   2.862  48.544  1.00  0.00     0.038 C 
HETATM   16  C11 UNL     1      22.955   4.319  48.590  1.00  0.00     0.037 C 
HETATM   17 CL1  UNL     1      22.791   5.514  47.315  1.00  0.00    -0.084 Cl
HETATM   18  C12 UNL     1      23.321   4.625  49.846  1.00  0.00     0.054 C 
ENDBRANCH  11  13
ENDBRANCH   7  11
BRANCH  10  19
HETATM   19  O2  UNL     1      28.218   1.631  52.791  1.00  0.00    -0.353 OA
HETATM   20  C16 UNL     1      28.820   2.516  53.691  1.00  0.00     0.210 C 
ENDBRANCH  10  19
BRANCH   1  21
HETATM   21  O1  UNL     1      27.933  -0.825  53.897  1.00  0.00    -0.353 OA
HETATM   22  C1  UNL     1      28.528  -1.805  53.094  1.00  0.00     0.210 C 
ENDBRANCH   1  21
TORSDOF 4
ENDMDL
MODEL 3
REMARK VINA RESULT:      -7.0      3.016      4.260
REMARK  4 active torsions:
REMARK  status: ('A' for Active; 'I' for Inactive)
REMARK    1  A    between atoms: O1_2  and  C2_3 
REMARK    2  A    between atoms: C6_9  and  N3_10 
REMARK    3  A    between atoms: N3_10  and  C8_12 
REMARK    4  A    between atoms: C15_20  and  O2_21 
ROOT
HETATM    1  C2  UNL     1      26.052  -0.181  52.900  1.00  0.00     0.103 A 
HETATM    2  C3  UNL     1      26.805   0.675  52.103  1.00  0.00     0.072 A 
HETATM    3  C4  UNL     1      26.198   1.778  51.536  1.00  0.00     0.075 A 
HETATM    4  N1  UNL     1      26.869   2.644  50.756  1.00  0.00    -0.241 NA
HETATM    5  C5  UNL     1      26.242   3.724  50.209  1.00  0.00     0.236 A 
HETATM    6  N2  UNL     1      24.948   3.900  50.469  1.00  0.00    -0.223 NA
HETATM    7  C6  UNL     1      24.226   3.065  51.242  1.00  0.00     0.144 A 
HETATM    8  C13 UNL     1      24.879   1.988  51.778  1.00  0.00     0.042 A 
HETATM    9  C14 UNL     1      24.140   1.138  52.568  1.00  0.00     0.057 A 
HETATM   10  C15 UNL     1      24.700   0.015  53.162  1.00  0.00     0.102 A 
ENDROOT
BRANCH   7  11
HETATM   11  N3  UNL     1      22.853   3.396  51.421  1.00  0.00    -0.335 N 
HETATM   12  C7  UNL     1      22.314   4.481  52.255  1.00  0.00     0.158 C 
BRANCH  11  13
HETATM   13  C8  UNL     1      21.853   2.614  50.735  1.00  0.00     0.048 C 
HETATM   14  C9  UNL     1      21.800   2.170  49.495  1.00  0.00     0.005 C 
HETATM   15  C10 UNL     1      21.038   1.100  49.337  1.00  0.00     0.038 C 
HETATM   16  C11 UNL     1      20.098   1.196  50.468  1.00  0.00     0.037 C 
HETATM   17 CL1  UNL     1      18.600   0.329  50.752  1.00  0.00    -0.084 Cl
HETATM   18  C12 UNL     1      20.593   2.114  51.315  1.00  0.00     0.054 C 
ENDBRANCH  11  13
ENDBRANCH   7  11
BRANCH  10  19
HETATM   19  O2  UNL     1      24.027  -0.891  53.970  1.00  0.00    -0.353 OA
HETATM   20  C16 UNL     1      22.632  -0.879  54.072  1.00  0.00     0.210 C 
ENDBRANCH  10  19
BRANCH   1  21
HETATM   21  O1  UNL     1      26.660  -1.274  53.460  1.00  0.00    -0.353 OA
HETATM   22  C1  UNL     1      27.277  -2.307  52.746  1.00  0.00     0.210 C 
ENDBRANCH   1  21
TORSDOF 4
ENDMDL
MODEL 4
REMARK VINA RESULT:      -6.9      1.944      2.599
REMARK  4 active torsions:
REMARK  status: ('A' for Active; 'I' for Inactive)
REMARK    1  A    between atoms: O1_2  and  C2_3 
REMARK    2  A    between atoms: C6_9  and  N3_10 
REMARK    3  A    between atoms: N3_10  and  C8_12 
REMARK    4  A    between atoms: C15_20  and  O2_21 
ROOT
HETATM    1  C2  UNL     1      25.914  -0.346  53.744  1.00  0.00     0.103 A 
HETATM    2  C3  UNL     1      24.872  -0.845  54.520  1.00  0.00     0.072 A 
HETATM    3  C4  UNL     1      23.568  -0.590  54.145  1.00  0.00     0.075 A 
HETATM    4  N1  UNL     1      22.517  -1.043  54.850  1.00  0.00    -0.241 NA
HETATM    5  C5  UNL     1      21.240  -0.774  54.455  1.00  0.00     0.236 A 
HETATM    6  N2  UNL     1      21.062  -0.052  53.350  1.00  0.00    -0.223 NA
HETATM    7  C6  UNL     1      22.077   0.428  52.605  1.00  0.00     0.144 A 
HETATM    8  C13 UNL     1      23.348   0.144  53.024  1.00  0.00     0.042 A 
HETATM    9  C14 UNL     1      24.382   0.634  52.261  1.00  0.00     0.057 A 
HETATM   10  C15 UNL     1      25.711   0.408  52.594  1.00  0.00     0.102 A 
ENDROOT
BRANCH   7  11
HETATM   11  N3  UNL     1      21.715   1.182  51.453  1.00  0.00    -0.335 N 
HETATM   12  C7  UNL     1      21.191   0.649  50.185  1.00  0.00     0.158 C 
BRANCH  11  13
HETATM   13  C8  UNL     1      21.860   2.617  51.485  1.00  0.00     0.048 C 
HETATM   14  C9  UNL     1      21.363   3.520  52.308  1.00  0.00     0.005 C 
HETATM   15  C10 UNL     1      22.071   4.636  52.374  1.00  0.00     0.038 C 
HETATM   16  C11 UNL     1      22.775   4.656  51.080  1.00  0.00     0.037 C 
HETATM   17 CL1  UNL     1      23.644   5.967  50.301  1.00  0.00    -0.084 Cl
HETATM   18  C12 UNL     1      22.648   3.432  50.542  1.00  0.00     0.054 C 
ENDBRANCH  11  13
ENDBRANCH   7  11
BRANCH  10  19
HETATM   19  O2  UNL     1      26.811   0.865  51.880  1.00  0.00    -0.353 OA
HETATM   20  C16 UNL     1      27.111   2.229  51.801  1.00  0.00     0.210 C 
ENDBRANCH  10  19
BRANCH   1  21
HETATM   21  O1  UNL     1      27.205  -0.602  54.122  1.00  0.00    -0.353 OA
HETATM   22  C1  UNL     1      27.993   0.234  54.921  1.00  0.00     0.210 C 
ENDBRANCH   1  21
TORSDOF 4
ENDMDL
MODEL 5
REMARK VINA RESULT:      -6.8      3.471      5.461
REMARK  4 active torsions:
REMARK  status: ('A' for Active; 'I' for Inactive)
REMARK    1  A    between atoms: O1_2  and  C2_3 
REMARK    2  A    between atoms: C6_9  and  N3_10 
REMARK    3  A    between atoms: N3_10  and  C8_12 
REMARK    4  A    between atoms: C15_20  and  O2_21 
ROOT
HETATM    1  C2  UNL     1      20.097  -0.458  52.802  1.00  0.00     0.103 A 
HETATM    2  C3  UNL     1      20.544  -1.012  53.997  1.00  0.00     0.072 A 
HETATM    3  C4  UNL     1      21.892  -0.982  54.293  1.00  0.00     0.075 A 
HETATM    4  N1  UNL     1      22.389  -1.499  55.431  1.00  0.00    -0.241 NA
HETATM    5  C5  UNL     1      23.726  -1.454  55.695  1.00  0.00     0.236 A 
HETATM    6  N2  UNL     1      24.527  -0.884  54.796  1.00  0.00    -0.223 NA
HETATM    7  C6  UNL     1      24.084  -0.350  53.641  1.00  0.00     0.144 A 
HETATM    8  C13 UNL     1      22.739  -0.408  53.400  1.00  0.00     0.042 A 
HETATM    9  C14 UNL     1      22.290   0.138  52.220  1.00  0.00     0.057 A 
HETATM   10  C15 UNL     1      20.945   0.133  51.874  1.00  0.00     0.102 A 
ENDROOT
BRANCH   7  11
HETATM   11  N3  UNL     1      25.071   0.222  52.789  1.00  0.00    -0.335 N 
HETATM   12  C7  UNL     1      26.292  -0.436  52.295  1.00  0.00     0.158 C 
BRANCH  11  13
HETATM   13  C8  UNL     1      24.901   1.582  52.340  1.00  0.00     0.048 C 
HETATM   14  C9  UNL     1      25.151   2.149  51.175  1.00  0.00     0.005 C 
HETATM   15  C10 UNL     1      24.434   3.235  50.939  1.00  0.00     0.038 C 
HETATM   16  C11 UNL     1      24.093   3.705  52.293  1.00  0.00     0.037 C 
HETATM   17 CL1  UNL     1      23.440   5.250  52.808  1.00  0.00    -0.084 Cl
HETATM   18  C12 UNL     1      24.376   2.703  53.142  1.00  0.00     0.054 C 
ENDBRANCH  11  13
ENDBRANCH   7  11
BRANCH  10  19
HETATM   19  O2  UNL     1      20.411   0.662  50.706  1.00  0.00    -0.353 OA
HETATM   20  C16 UNL     1      21.220   0.955  49.603  1.00  0.00     0.210 C 
ENDBRANCH  10  19
BRANCH   1  21
HETATM   21  O1  UNL     1      18.757  -0.492  52.515  1.00  0.00    -0.353 OA
HETATM   22  C1  UNL     1      17.804  -1.253  53.200  1.00  0.00     0.210 C 
ENDBRANCH   1  21
TORSDOF 4
ENDMDL
MODEL 6
REMARK VINA RESULT:      -6.8      1.988      2.851
REMARK  4 active torsions:
REMARK  status: ('A' for Active; 'I' for Inactive)
REMARK    1  A    between atoms: O1_2  and  C2_3 
REMARK    2  A    between atoms: C6_9  and  N3_10 
REMARK    3  A    between atoms: N3_10  and  C8_12 
REMARK    4  A    between atoms: C15_20  and  O2_21 
ROOT
HETATM    1  C2  UNL     1      26.963   1.621  52.510  1.00  0.00     0.103 A 
HETATM    2  C3  UNL     1      26.288   0.722  53.330  1.00  0.00     0.072 A 
HETATM    3  C4  UNL     1      24.939   0.507  53.129  1.00  0.00     0.075 A 
HETATM    4  N1  UNL     1      24.228  -0.348  53.886  1.00  0.00    -0.241 NA
HETATM    5  C5  UNL     1      22.897  -0.539  53.664  1.00  0.00     0.236 A 
HETATM    6  N2  UNL     1      22.319   0.142  52.676  1.00  0.00    -0.223 NA
HETATM    7  C6  UNL     1      22.981   1.011  51.887  1.00  0.00     0.144 A 
HETATM    8  C13 UNL     1      24.316   1.185  52.131  1.00  0.00     0.042 A 
HETATM    9  C14 UNL     1      24.990   2.071  51.324  1.00  0.00     0.057 A 
HETATM   10  C15 UNL     1      26.345   2.325  51.483  1.00  0.00     0.102 A 
ENDROOT
BRANCH   7  11
HETATM   11  N3  UNL     1      22.215   1.658  50.876  1.00  0.00    -0.335 N 
HETATM   12  C7  UNL     1      21.628   1.028  49.682  1.00  0.00     0.158 C 
BRANCH  11  13
HETATM   13  C8  UNL     1      21.965   3.074  50.990  1.00  0.00     0.048 C 
HETATM   14  C9  UNL     1      21.589   3.808  52.019  1.00  0.00     0.005 C 
HETATM   15  C10 UNL     1      21.937   5.081  51.929  1.00  0.00     0.038 C 
HETATM   16  C11 UNL     1      22.066   5.285  50.475  1.00  0.00     0.037 C 
HETATM   17 CL1  UNL     1      22.183   6.778  49.562  1.00  0.00    -0.084 Cl
HETATM   18  C12 UNL     1      22.084   4.068  49.906  1.00  0.00     0.054 C 
ENDBRANCH  11  13
ENDBRANCH   7  11
BRANCH  10  19
HETATM   19  O2  UNL     1      27.098   3.202  50.713  1.00  0.00    -0.353 OA
HETATM   20  C16 UNL     1      26.537   3.882  49.627  1.00  0.00     0.210 C 
ENDBRANCH  10  19
BRANCH   1  21
HETATM   21  O1  UNL     1      28.302   1.830  52.715  1.00  0.00    -0.353 OA
HETATM   22  C1  UNL     1      28.999   1.505  53.883  1.00  0.00     0.210 C 
ENDBRANCH   1  21
TORSDOF 4
ENDMDL
MODEL 7
REMARK VINA RESULT:      -6.7      2.685      3.914
REMARK  4 active torsions:
REMARK  status: ('A' for Active; 'I' for Inactive)
REMARK    1  A    between atoms: O1_2  and  C2_3 
REMARK    2  A    between atoms: C6_9  and  N3_10 
REMARK    3  A    between atoms: N3_10  and  C8_12 
REMARK    4  A    between atoms: C15_20  and  O2_21 
ROOT
HETATM    1  C2  UNL     1      26.386   0.097  52.955  1.00  0.00     0.103 A 
HETATM    2  C3  UNL     1      27.075   1.003  52.156  1.00  0.00     0.072 A 
HETATM    3  C4  UNL     1      26.374   1.992  51.496  1.00  0.00     0.075 A 
HETATM    4  N1  UNL     1      26.980   2.899  50.709  1.00  0.00    -0.241 NA
HETATM    5  C5  UNL     1      26.260   3.865  50.071  1.00  0.00     0.236 A 
HETATM    6  N2  UNL     1      24.940   3.888  50.248  1.00  0.00    -0.223 NA
HETATM    7  C6  UNL     1      24.281   3.005  51.025  1.00  0.00     0.144 A 
HETATM    8  C13 UNL     1      25.026   2.046  51.654  1.00  0.00     0.042 A 
HETATM    9  C14 UNL     1      24.351   1.147  52.445  1.00  0.00     0.057 A 
HETATM   10  C15 UNL     1      25.007   0.133  53.129  1.00  0.00     0.102 A 
ENDROOT
BRANCH   7  11
HETATM   11  N3  UNL     1      22.868   3.168  51.108  1.00  0.00    -0.335 N 
HETATM   12  C7  UNL     1      22.126   3.855  52.178  1.00  0.00     0.158 C 
BRANCH  11  13
HETATM   13  C8  UNL     1      22.040   2.620  50.062  1.00  0.00     0.048 C 
HETATM   14  C9  UNL     1      21.630   1.387  49.836  1.00  0.00     0.005 C 
HETATM   15  C10 UNL     1      20.515   1.310  49.129  1.00  0.00     0.038 C 
HETATM   16  C11 UNL     1      20.511   2.580  48.382  1.00  0.00     0.037 C 
HETATM   17 CL1  UNL     1      19.534   3.066  47.008  1.00  0.00    -0.084 Cl
HETATM   18  C12 UNL     1      21.436   3.374  48.948  1.00  0.00     0.054 C 
ENDBRANCH  11  13
ENDBRANCH   7  11
BRANCH  10  19
HETATM   19  O2  UNL     1      24.402  -0.813  53.947  1.00  0.00    -0.353 OA
HETATM   20  C16 UNL     1      23.023  -0.796  54.180  1.00  0.00     0.210 C 
ENDBRANCH  10  19
BRANCH   1  21
HETATM   21  O1  UNL     1      27.088  -0.883  53.606  1.00  0.00    -0.353 OA
HETATM   22  C1  UNL     1      28.442  -1.173  53.406  1.00  0.00     0.210 C 
ENDBRANCH   1  21
TORSDOF 4
ENDMDL
MODEL 8
REMARK VINA RESULT:      -6.5      2.827      4.069
REMARK  4 active torsions:
REMARK  status: ('A' for Active; 'I' for Inactive)
REMARK    1  A    between atoms: O1_2  and  C2_3 
REMARK    2  A    between atoms: C6_9  and  N3_10 
REMARK    3  A    between atoms: N3_10  and  C8_12 
REMARK    4  A    between atoms: C15_20  and  O2_21 
ROOT
HETATM    1  C2  UNL     1      23.001  -0.230  53.329  1.00  0.00     0.103 A 
HETATM    2  C3  UNL     1      24.375  -0.199  53.114  1.00  0.00     0.072 A 
HETATM    3  C4  UNL     1      24.928   0.868  52.434  1.00  0.00     0.075 A 
HETATM    4  N1  UNL     1      26.248   0.959  52.193  1.00  0.00    -0.241 NA
HETATM    5  C5  UNL     1      26.765   2.026  51.518  1.00  0.00     0.236 A 
HETATM    6  N2  UNL     1      25.928   2.976  51.106  1.00  0.00    -0.223 NA
HETATM    7  C6  UNL     1      24.598   2.937  51.320  1.00  0.00     0.144 A 
HETATM    8  C13 UNL     1      24.105   1.856  51.998  1.00  0.00     0.042 A 
HETATM    9  C14 UNL     1      22.747   1.819  52.215  1.00  0.00     0.057 A 
HETATM   10  C15 UNL     1      22.140   0.770  52.892  1.00  0.00     0.102 A 
ENDROOT
BRANCH   7  11
HETATM   11  N3  UNL     1      23.843   4.033  50.814  1.00  0.00    -0.335 N 
HETATM   12  C7  UNL     1      23.448   5.242  51.554  1.00  0.00     0.158 C 
BRANCH  11  13
HETATM   13  C8  UNL     1      23.398   3.999  49.442  1.00  0.00     0.048 C 
HETATM   14  C9  UNL     1      22.998   2.996  48.685  1.00  0.00     0.005 C 
HETATM   15  C10 UNL     1      22.202   3.355  47.690  1.00  0.00     0.038 C 
HETATM   16  C11 UNL     1      22.565   4.767  47.472  1.00  0.00     0.037 C 
HETATM   17 CL1  UNL     1      22.178   5.825  46.127  1.00  0.00    -0.084 Cl
HETATM   18  C12 UNL     1      23.289   5.157  48.535  1.00  0.00     0.054 C 
ENDBRANCH  11  13
ENDBRANCH   7  11
BRANCH  10  19
HETATM   19  O2  UNL     1      20.781   0.656  53.152  1.00  0.00    -0.353 OA
HETATM   20  C16 UNL     1      19.860   0.427  52.125  1.00  0.00     0.210 C 
ENDBRANCH  10  19
BRANCH   1  21
HETATM   21  O1  UNL     1      22.459  -1.292  54.004  1.00  0.00    -0.353 OA
HETATM   22  C1  UNL     1      22.695  -1.599  55.348  1.00  0.00     0.210 C 
ENDBRANCH   1  21
TORSDOF 4
ENDMDL
MODEL 9
REMARK VINA RESULT:      -6.4      3.292      5.005
REMARK  4 active torsions:
REMARK  status: ('A' for Active; 'I' for Inactive)
REMARK    1  A    between atoms: O1_2  and  C2_3 
REMARK    2  A    between atoms: C6_9  and  N3_10 
REMARK    3  A    between atoms: N3_10  and  C8_12 
REMARK    4  A    between atoms: C15_20  and  O2_21 
ROOT
HETATM    1  C2  UNL     1      19.800   0.447  52.717  1.00  0.00     0.103 A 
HETATM    2  C3  UNL     1      20.793  -0.478  53.023  1.00  0.00     0.072 A 
HETATM    3  C4  UNL     1      22.113  -0.074  53.029  1.00  0.00     0.075 A 
HETATM    4  N1  UNL     1      23.121  -0.918  53.316  1.00  0.00    -0.241 NA
HETATM    5  C5  UNL     1      24.415  -0.489  53.314  1.00  0.00     0.236 A 
HETATM    6  N2  UNL     1      24.655   0.787  53.022  1.00  0.00    -0.223 NA
HETATM    7  C6  UNL     1      23.686   1.676  52.726  1.00  0.00     0.144 A 
HETATM    8  C13 UNL     1      22.396   1.221  52.735  1.00  0.00     0.042 A 
HETATM    9  C14 UNL     1      21.410   2.130  52.434  1.00  0.00     0.057 A 
HETATM   10  C15 UNL     1      20.067   1.777  52.412  1.00  0.00     0.102 A 
ENDROOT
BRANCH   7  11
HETATM   11  N3  UNL     1      24.112   3.004  52.436  1.00  0.00    -0.335 N 
HETATM   12  C7  UNL     1      24.095   4.151  53.357  1.00  0.00     0.158 C 
BRANCH  11  13
HETATM   13  C8  UNL     1      24.619   3.301  51.119  1.00  0.00     0.048 C 
HETATM   14  C9  UNL     1      24.004   3.408  49.957  1.00  0.00     0.005 C 
HETATM   15  C10 UNL     1      24.641   4.165  49.078  1.00  0.00     0.038 C 
HETATM   16  C11 UNL     1      26.041   4.089  49.531  1.00  0.00     0.037 C 
HETATM   17 CL1  UNL     1      27.512   4.563  48.700  1.00  0.00    -0.084 Cl
HETATM   18  C12 UNL     1      26.027   3.567  50.769  1.00  0.00     0.054 C 
ENDBRANCH  11  13
ENDBRANCH   7  11
BRANCH  10  19
HETATM   19  O2  UNL     1      19.012   2.631  52.119  1.00  0.00    -0.353 OA
HETATM   20  C16 UNL     1      19.024   3.437  50.976  1.00  0.00     0.210 C 
ENDBRANCH  10  19
BRANCH   1  21
HETATM   21  O1  UNL     1      18.492   0.039  52.712  1.00  0.00    -0.353 OA
HETATM   22  C1  UNL     1      17.799  -0.434  51.593  1.00  0.00     0.210 C 
ENDBRANCH   1  21
TORSDOF 4
ENDMDL
