MODEL 1
REMARK VINA RESULT:      -9.1      0.000      0.000
REMARK  8 active torsions:
REMARK  status: ('A' for Active; 'I' for Inactive)
REMARK    1  A    between atoms: C2_2  and  C3_3 
REMARK    2  A    between atoms: C3_3  and  C4_5 
REMARK    3  A    between atoms: C4_5  and  C5_6 
REMARK    4  A    between atoms: C5_6  and  C6_7 
REMARK    5  A    between atoms: C6_7  and  C7_8 
REMARK    6  A    between atoms: C9_10  and  C10_11 
REMARK    7  A    between atoms: N2_19  and  C17_20 
REMARK    8  A    between atoms: C18_22  and  O1_23 
ROOT
HETATM    1  C7  UNL     1      25.792   1.772  52.516  1.00  0.00     0.122 C 
HETATM    2  C8  UNL     1      24.426   1.472  51.961  1.00  0.00     0.089 C 
HETATM    3  C9  UNL     1      24.019   0.343  52.869  1.00  0.00     0.067 C 
HETATM    4  N1  UNL     1      25.055  -0.154  53.424  1.00  0.00    -0.174 NA
HETATM    5  N2  UNL     1      26.238   0.512  53.008  1.00  0.00    -0.240 N 
ENDROOT
BRANCH   1   6
HETATM    6  C6  UNL     1      26.690   2.468  51.560  1.00  0.00     0.055 C 
BRANCH   6   7
HETATM    7  C5  UNL     1      26.017   3.165  50.468  1.00  0.00    -0.021 C 
BRANCH   7   8
HETATM    8  C4  UNL     1      26.683   3.449  49.357  1.00  0.00     0.047 C 
BRANCH   8   9
HETATM    9  C3  UNL     1      26.906   4.793  48.876  1.00  0.00     0.157 C 
HETATM   10  F1  UNL     1      26.071   5.832  48.702  1.00  0.00    -0.197 F 
BRANCH   9  11
HETATM   11  C2  UNL     1      28.125   5.167  48.516  1.00  0.00    -0.114 C 
HETATM   12  C1  UNL     1      29.217   5.762  48.083  1.00  0.00     0.100 C 
ENDBRANCH   9  11
ENDBRANCH   8   9
ENDBRANCH   7   8
ENDBRANCH   6   7
ENDBRANCH   1   6
BRANCH   5  13
HETATM   13  C17 UNL     1      27.422  -0.275  53.227  1.00  0.00     0.192 A 
HETATM   14  N3  UNL     1      27.625  -1.441  53.200  1.00  0.00    -0.198 NA
HETATM   15  C18 UNL     1      28.772  -2.046  53.416  1.00  0.00     0.171 A 
HETATM   16  C19 UNL     1      29.860  -1.202  53.709  1.00  0.00     0.111 A 
HETATM   17  S1  UNL     1      29.041   0.487  53.632  1.00  0.00    -0.058 SA
BRANCH  15  18
HETATM   18  O1  UNL     1      28.787  -3.453  53.333  1.00  0.00    -0.344 OA
HETATM   19  H17 UNL     1      28.371  -3.838  52.484  1.00  0.00     0.219 HD
ENDBRANCH  15  18
ENDBRANCH   5  13
BRANCH   3  20
HETATM   20  C10 UNL     1      22.617  -0.044  53.020  1.00  0.00    -0.010 A 
HETATM   21  C11 UNL     1      22.166  -0.925  53.961  1.00  0.00     0.014 A 
HETATM   22  C12 UNL     1      20.853  -1.296  54.114  1.00  0.00     0.007 A 
HETATM   23  C13 UNL     1      19.909  -0.741  53.258  1.00  0.00    -0.062 A 
HETATM   24  C14 UNL     1      18.476  -1.092  53.362  1.00  0.00     0.048 C 
HETATM   25  C15 UNL     1      20.292   0.159  52.283  1.00  0.00     0.007 A 
HETATM   26  C16 UNL     1      21.627   0.467  52.207  1.00  0.00     0.014 A 
ENDBRANCH   3  20
TORSDOF 8
ENDMDL
MODEL 2
REMARK VINA RESULT:      -8.6      2.267      6.299
REMARK  8 active torsions:
REMARK  status: ('A' for Active; 'I' for Inactive)
REMARK    1  A    between atoms: C2_2  and  C3_3 
REMARK    2  A    between atoms: C3_3  and  C4_5 
REMARK    3  A    between atoms: C4_5  and  C5_6 
REMARK    4  A    between atoms: C5_6  and  C6_7 
REMARK    5  A    between atoms: C6_7  and  C7_8 
REMARK    6  A    between atoms: C9_10  and  C10_11 
REMARK    7  A    between atoms: N2_19  and  C17_20 
REMARK    8  A    between atoms: C18_22  and  O1_23 
ROOT
HETATM    1  C7  UNL     1      24.905   0.535  52.418  1.00  0.00     0.122 C 
HETATM    2  C8  UNL     1      24.656   2.003  52.200  1.00  0.00     0.089 C 
HETATM    3  C9  UNL     1      25.822   2.334  51.307  1.00  0.00     0.067 C 
HETATM    4  N1  UNL     1      26.715   1.429  51.417  1.00  0.00    -0.174 NA
HETATM    5  N2  UNL     1      26.322   0.419  52.334  1.00  0.00    -0.240 N 
ENDROOT
BRANCH   1   6
HETATM    6  C6  UNL     1      24.264  -0.007  53.643  1.00  0.00     0.055 C 
BRANCH   6   7
HETATM    7  C5  UNL     1      23.024  -0.746  53.423  1.00  0.00    -0.021 C 
BRANCH   7   8
HETATM    8  C4  UNL     1      21.857  -0.132  53.561  1.00  0.00     0.047 C 
BRANCH   8   9
HETATM    9  C3  UNL     1      20.860  -0.059  52.518  1.00  0.00     0.157 C 
HETATM   10  F1  UNL     1      19.566  -0.424  52.489  1.00  0.00    -0.197 F 
BRANCH   9  11
HETATM   11  C2  UNL     1      21.182   0.444  51.336  1.00  0.00    -0.114 C 
HETATM   12  C1  UNL     1      21.749   0.889  50.233  1.00  0.00     0.100 C 
ENDBRANCH   9  11
ENDBRANCH   8   9
ENDBRANCH   7   8
ENDBRANCH   6   7
ENDBRANCH   1   6
BRANCH   5  13
HETATM   13  C17 UNL     1      27.436  -0.342  52.830  1.00  0.00     0.192 A 
HETATM   14  N3  UNL     1      27.646  -1.507  52.894  1.00  0.00    -0.198 NA
HETATM   15  C18 UNL     1      28.724  -2.087  53.373  1.00  0.00     0.171 A 
HETATM   16  C19 UNL     1      29.721  -1.218  53.856  1.00  0.00     0.111 A 
HETATM   17  S1  UNL     1      28.928   0.455  53.539  1.00  0.00    -0.058 SA
BRANCH  15  18
HETATM   18  O1  UNL     1      28.763  -3.496  53.352  1.00  0.00    -0.344 OA
HETATM   19  H17 UNL     1      28.144  -3.933  52.667  1.00  0.00     0.219 HD
ENDBRANCH  15  18
ENDBRANCH   5  13
BRANCH   3  20
HETATM   20  C10 UNL     1      25.827   3.539  50.478  1.00  0.00    -0.010 A 
HETATM   21  C11 UNL     1      24.830   4.471  50.482  1.00  0.00     0.014 A 
HETATM   22  C12 UNL     1      24.823   5.607  49.711  1.00  0.00     0.007 A 
HETATM   23  C13 UNL     1      25.901   5.832  48.864  1.00  0.00    -0.062 A 
HETATM   24  C14 UNL     1      25.965   7.033  48.002  1.00  0.00     0.048 C 
HETATM   25  C15 UNL     1      26.948   4.933  48.808  1.00  0.00     0.007 A 
HETATM   26  C16 UNL     1      26.865   3.827  49.616  1.00  0.00     0.014 A 
ENDBRANCH   3  20
TORSDOF 8
ENDMDL
MODEL 3
REMARK VINA RESULT:      -8.5      3.342      7.029
REMARK  8 active torsions:
REMARK  status: ('A' for Active; 'I' for Inactive)
REMARK    1  A    between atoms: C2_2  and  C3_3 
REMARK    2  A    between atoms: C3_3  and  C4_5 
REMARK    3  A    between atoms: C4_5  and  C5_6 
REMARK    4  A    between atoms: C5_6  and  C6_7 
REMARK    5  A    between atoms: C6_7  and  C7_8 
REMARK    6  A    between atoms: C9_10  and  C10_11 
REMARK    7  A    between atoms: N2_19  and  C17_20 
REMARK    8  A    between atoms: C18_22  and  O1_23 
ROOT
HETATM    1  C7  UNL     1      25.485   0.808  52.806  1.00  0.00     0.122 C 
HETATM    2  C8  UNL     1      26.132   1.409  51.587  1.00  0.00     0.089 C 
HETATM    3  C9  UNL     1      25.179   2.543  51.321  1.00  0.00     0.067 C 
HETATM    4  N1  UNL     1      24.072   2.321  51.916  1.00  0.00    -0.174 NA
HETATM    5  N2  UNL     1      24.101   1.091  52.625  1.00  0.00    -0.240 N 
ENDROOT
BRANCH   1   6
HETATM    6  C6  UNL     1      25.849  -0.612  53.040  1.00  0.00     0.055 C 
BRANCH   6   7
HETATM    7  C5  UNL     1      27.192  -0.991  52.611  1.00  0.00    -0.021 C 
BRANCH   7   8
HETATM    8  C4  UNL     1      28.150  -1.157  53.512  1.00  0.00     0.047 C 
BRANCH   8   9
HETATM    9  C3  UNL     1      29.331  -0.327  53.590  1.00  0.00     0.157 C 
HETATM   10  F1  UNL     1      30.640  -0.632  53.608  1.00  0.00    -0.197 F 
BRANCH   9  11
HETATM   11  C2  UNL     1      29.204   0.990  53.661  1.00  0.00    -0.114 C 
HETATM   12  C1  UNL     1      28.838   2.244  53.829  1.00  0.00     0.100 C 
ENDBRANCH   9  11
ENDBRANCH   8   9
ENDBRANCH   7   8
ENDBRANCH   6   7
ENDBRANCH   1   6
BRANCH   5  13
HETATM   13  C17 UNL     1      22.786   0.586  52.912  1.00  0.00     0.192 A 
HETATM   14  N3  UNL     1      22.383  -0.196  53.705  1.00  0.00    -0.198 NA
HETATM   15  C18 UNL     1      21.136  -0.576  53.872  1.00  0.00     0.171 A 
HETATM   16  C19 UNL     1      20.196   0.021  53.011  1.00  0.00     0.111 A 
HETATM   17  S1  UNL     1      21.302   1.140  51.986  1.00  0.00    -0.058 SA
BRANCH  15  18
HETATM   18  O1  UNL     1      20.880  -1.526  54.882  1.00  0.00    -0.344 OA
HETATM   19  H17 UNL     1      21.686  -2.089  55.157  1.00  0.00     0.219 HD
ENDBRANCH  15  18
ENDBRANCH   5  13
BRANCH   3  20
HETATM   20  C10 UNL     1      25.566   3.682  50.489  1.00  0.00    -0.010 A 
HETATM   21  C11 UNL     1      24.875   4.859  50.439  1.00  0.00     0.014 A 
HETATM   22  C12 UNL     1      25.228   5.936  49.665  1.00  0.00     0.007 A 
HETATM   23  C13 UNL     1      26.366   5.832  48.873  1.00  0.00    -0.062 A 
HETATM   24  C14 UNL     1      26.809   6.951  48.012  1.00  0.00     0.048 C 
HETATM   25  C15 UNL     1      27.116   4.673  48.874  1.00  0.00     0.007 A 
HETATM   26  C16 UNL     1      26.683   3.650  49.681  1.00  0.00     0.014 A 
ENDBRANCH   3  20
TORSDOF 8
ENDMDL
MODEL 4
REMARK VINA RESULT:      -8.4      1.798      2.138
REMARK  8 active torsions:
REMARK  status: ('A' for Active; 'I' for Inactive)
REMARK    1  A    between atoms: C2_2  and  C3_3 
REMARK    2  A    between atoms: C3_3  and  C4_5 
REMARK    3  A    between atoms: C4_5  and  C5_6 
REMARK    4  A    between atoms: C5_6  and  C6_7 
REMARK    5  A    between atoms: C6_7  and  C7_8 
REMARK    6  A    between atoms: C9_10  and  C10_11 
REMARK    7  A    between atoms: N2_19  and  C17_20 
REMARK    8  A    between atoms: C18_22  and  O1_23 
ROOT
HETATM    1  C7  UNL     1      25.338   2.563  51.614  1.00  0.00     0.122 C 
HETATM    2  C8  UNL     1      24.127   1.800  51.152  1.00  0.00     0.089 C 
HETATM    3  C9  UNL     1      23.744   1.118  52.439  1.00  0.00     0.067 C 
HETATM    4  N1  UNL     1      24.742   1.116  53.234  1.00  0.00    -0.174 NA
HETATM    5  N2  UNL     1      25.872   1.749  52.653  1.00  0.00    -0.240 N 
ENDROOT
BRANCH   1   6
HETATM    6  C6  UNL     1      26.267   2.935  50.517  1.00  0.00     0.055 C 
BRANCH   6   7
HETATM    7  C5  UNL     1      25.691   3.773  49.468  1.00  0.00    -0.021 C 
BRANCH   7   8
HETATM    8  C4  UNL     1      25.801   5.092  49.543  1.00  0.00     0.047 C 
BRANCH   8   9
HETATM    9  C3  UNL     1      26.573   5.887  48.616  1.00  0.00     0.157 C 
HETATM   10  F1  UNL     1      26.219   6.865  47.764  1.00  0.00    -0.197 F 
BRANCH   9  11
HETATM   11  C2  UNL     1      27.879   5.690  48.512  1.00  0.00    -0.114 C 
HETATM   12  C1  UNL     1      29.118   5.402  48.169  1.00  0.00     0.100 C 
ENDBRANCH   9  11
ENDBRANCH   8   9
ENDBRANCH   7   8
ENDBRANCH   6   7
ENDBRANCH   1   6
BRANCH   5  13
HETATM   13  C17 UNL     1      27.105   1.374  53.291  1.00  0.00     0.192 A 
HETATM   14  N3  UNL     1      27.961   2.005  53.814  1.00  0.00    -0.198 NA
HETATM   15  C18 UNL     1      29.054   1.536  54.373  1.00  0.00     0.171 A 
HETATM   16  C19 UNL     1      29.207   0.137  54.335  1.00  0.00     0.111 A 
HETATM   17  S1  UNL     1      27.642  -0.374  53.432  1.00  0.00    -0.058 SA
BRANCH  15  18
HETATM   18  O1  UNL     1      29.942   2.473  54.940  1.00  0.00    -0.344 OA
HETATM   19  H17 UNL     1      30.764   2.068  55.392  1.00  0.00     0.219 HD
ENDBRANCH  15  18
ENDBRANCH   5  13
BRANCH   3  20
HETATM   20  C10 UNL     1      22.402   0.575  52.642  1.00  0.00    -0.010 A 
HETATM   21  C11 UNL     1      21.362   0.771  51.779  1.00  0.00     0.014 A 
HETATM   22  C12 UNL     1      20.097   0.266  51.957  1.00  0.00     0.007 A 
HETATM   23  C13 UNL     1      19.849  -0.499  53.090  1.00  0.00    -0.062 A 
HETATM   24  C14 UNL     1      18.512  -1.077  53.350  1.00  0.00     0.048 C 
HETATM   25  C15 UNL     1      20.853  -0.740  54.006  1.00  0.00     0.007 A 
HETATM   26  C16 UNL     1      22.084  -0.193  53.742  1.00  0.00     0.014 A 
ENDBRANCH   3  20
TORSDOF 8
ENDMDL
MODEL 5
REMARK VINA RESULT:      -8.2      4.401      7.953
REMARK  8 active torsions:
REMARK  status: ('A' for Active; 'I' for Inactive)
REMARK    1  A    between atoms: C2_2  and  C3_3 
REMARK    2  A    between atoms: C3_3  and  C4_5 
REMARK    3  A    between atoms: C4_5  and  C5_6 
REMARK    4  A    between atoms: C5_6  and  C6_7 
REMARK    5  A    between atoms: C6_7  and  C7_8 
REMARK    6  A    between atoms: C9_10  and  C10_11 
REMARK    7  A    between atoms: N2_19  and  C17_20 
REMARK    8  A    between atoms: C18_22  and  O1_23 
ROOT
HETATM    1  C7  UNL     1      23.168   2.043  52.506  1.00  0.00     0.122 C 
HETATM    2  C8  UNL     1      24.118   0.884  52.361  1.00  0.00     0.089 C 
HETATM    3  C9  UNL     1      25.431   1.608  52.487  1.00  0.00     0.067 C 
HETATM    4  N1  UNL     1      25.257   2.853  52.263  1.00  0.00    -0.174 NA
HETATM    5  N2  UNL     1      23.898   3.143  51.971  1.00  0.00    -0.240 N 
ENDROOT
BRANCH   1   6
HETATM    6  C6  UNL     1      21.824   1.793  51.927  1.00  0.00     0.055 C 
BRANCH   6   7
HETATM    7  C5  UNL     1      21.393   0.398  51.931  1.00  0.00    -0.021 C 
BRANCH   7   8
HETATM    8  C4  UNL     1      20.607  -0.047  52.901  1.00  0.00     0.047 C 
BRANCH   8   9
HETATM    9  C3  UNL     1      20.964  -0.015  54.301  1.00  0.00     0.157 C 
HETATM   10  F1  UNL     1      20.497   0.718  55.328  1.00  0.00    -0.197 F 
BRANCH   9  11
HETATM   11  C2  UNL     1      21.915  -0.818  54.755  1.00  0.00    -0.114 C 
HETATM   12  C1  UNL     1      22.956  -1.397  55.317  1.00  0.00     0.100 C 
ENDBRANCH   9  11
ENDBRANCH   8   9
ENDBRANCH   7   8
ENDBRANCH   6   7
ENDBRANCH   1   6
BRANCH   5  13
HETATM   13  C17 UNL     1      23.736   4.393  51.280  1.00  0.00     0.192 A 
HETATM   14  N3  UNL     1      23.891   5.520  51.612  1.00  0.00    -0.198 NA
HETATM   15  C18 UNL     1      23.711   6.591  50.873  1.00  0.00     0.171 A 
HETATM   16  C19 UNL     1      23.288   6.355  49.551  1.00  0.00     0.111 A 
HETATM   17  S1  UNL     1      23.195   4.479  49.529  1.00  0.00    -0.058 SA
BRANCH  15  18
HETATM   18  O1  UNL     1      23.955   7.841  51.476  1.00  0.00    -0.344 OA
HETATM   19  H17 UNL     1      24.436   7.798  52.376  1.00  0.00     0.219 HD
ENDBRANCH  15  18
ENDBRANCH   5  13
BRANCH   3  20
HETATM   20  C10 UNL     1      26.663   0.895  52.821  1.00  0.00    -0.010 A 
HETATM   21  C11 UNL     1      27.800   1.506  53.269  1.00  0.00     0.014 A 
HETATM   22  C12 UNL     1      28.963   0.849  53.587  1.00  0.00     0.007 A 
HETATM   23  C13 UNL     1      28.995  -0.533  53.449  1.00  0.00    -0.062 A 
HETATM   24  C14 UNL     1      30.212  -1.311  53.772  1.00  0.00     0.048 C 
HETATM   25  C15 UNL     1      27.883  -1.219  53.003  1.00  0.00     0.007 A 
HETATM   26  C16 UNL     1      26.767  -0.476  52.709  1.00  0.00     0.014 A 
ENDBRANCH   3  20
TORSDOF 8
ENDMDL
MODEL 6
REMARK VINA RESULT:      -8.1      3.419      5.439
REMARK  8 active torsions:
REMARK  status: ('A' for Active; 'I' for Inactive)
REMARK    1  A    between atoms: C2_2  and  C3_3 
REMARK    2  A    between atoms: C3_3  and  C4_5 
REMARK    3  A    between atoms: C4_5  and  C5_6 
REMARK    4  A    between atoms: C5_6  and  C6_7 
REMARK    5  A    between atoms: C6_7  and  C7_8 
REMARK    6  A    between atoms: C9_10  and  C10_11 
REMARK    7  A    between atoms: N2_19  and  C17_20 
REMARK    8  A    between atoms: C18_22  and  O1_23 
ROOT
HETATM    1  C7  UNL     1      25.898   1.534  52.662  1.00  0.00     0.122 C 
HETATM    2  C8  UNL     1      24.660   1.274  53.477  1.00  0.00     0.089 C 
HETATM    3  C9  UNL     1      23.629   1.250  52.381  1.00  0.00     0.067 C 
HETATM    4  N1  UNL     1      24.096   1.825  51.341  1.00  0.00    -0.174 NA
HETATM    5  N2  UNL     1      25.419   2.293  51.556  1.00  0.00    -0.240 N 
ENDROOT
BRANCH   1   6
HETATM    6  C6  UNL     1      27.016   2.125  53.441  1.00  0.00     0.055 C 
BRANCH   6   7
HETATM    7  C5  UNL     1      28.342   1.599  53.127  1.00  0.00    -0.021 C 
BRANCH   7   8
HETATM    8  C4  UNL     1      28.935   0.762  53.966  1.00  0.00     0.047 C 
BRANCH   8   9
HETATM    9  C3  UNL     1      29.086  -0.653  53.716  1.00  0.00     0.157 C 
HETATM   10  F1  UNL     1      30.129  -1.486  53.884  1.00  0.00    -0.197 F 
BRANCH   9  11
HETATM   11  C2  UNL     1      28.067  -1.347  53.232  1.00  0.00    -0.114 C 
HETATM   12  C1  UNL     1      27.204  -2.057  52.535  1.00  0.00     0.100 C 
ENDBRANCH   9  11
ENDBRANCH   8   9
ENDBRANCH   7   8
ENDBRANCH   6   7
ENDBRANCH   1   6
BRANCH   5  13
HETATM   13  C17 UNL     1      25.803   3.316  50.622  1.00  0.00     0.192 A 
HETATM   14  N3  UNL     1      26.837   3.588  50.111  1.00  0.00    -0.198 NA
HETATM   15  C18 UNL     1      27.061   4.561  49.256  1.00  0.00     0.171 A 
HETATM   16  C19 UNL     1      25.943   5.350  48.924  1.00  0.00     0.111 A 
HETATM   17  S1  UNL     1      24.604   4.537  49.961  1.00  0.00    -0.058 SA
BRANCH  15  18
HETATM   18  O1  UNL     1      28.377   4.705  48.771  1.00  0.00    -0.344 OA
HETATM   19  H17 UNL     1      29.099   4.745  49.493  1.00  0.00     0.219 HD
ENDBRANCH  15  18
ENDBRANCH   5  13
BRANCH   3  20
HETATM   20  C10 UNL     1      22.318   0.634  52.583  1.00  0.00    -0.010 A 
HETATM   21  C11 UNL     1      21.241   0.850  51.772  1.00  0.00     0.014 A 
HETATM   22  C12 UNL     1      20.006   0.277  51.949  1.00  0.00     0.007 A 
HETATM   23  C13 UNL     1      19.830  -0.585  53.025  1.00  0.00    -0.062 A 
HETATM   24  C14 UNL     1      18.528  -1.240  53.281  1.00  0.00     0.048 C 
HETATM   25  C15 UNL     1      20.875  -0.853  53.887  1.00  0.00     0.007 A 
HETATM   26  C16 UNL     1      22.072  -0.232  53.628  1.00  0.00     0.014 A 
ENDBRANCH   3  20
TORSDOF 8
ENDMDL
MODEL 7
REMARK VINA RESULT:      -8.1      2.934      7.388
REMARK  8 active torsions:
REMARK  status: ('A' for Active; 'I' for Inactive)
REMARK    1  A    between atoms: C2_2  and  C3_3 
REMARK    2  A    between atoms: C3_3  and  C4_5 
REMARK    3  A    between atoms: C4_5  and  C5_6 
REMARK    4  A    between atoms: C5_6  and  C6_7 
REMARK    5  A    between atoms: C6_7  and  C7_8 
REMARK    6  A    between atoms: C9_10  and  C10_11 
REMARK    7  A    between atoms: N2_19  and  C17_20 
REMARK    8  A    between atoms: C18_22  and  O1_23 
ROOT
HETATM    1  C7  UNL     1      25.216   1.854  51.146  1.00  0.00     0.122 C 
HETATM    2  C8  UNL     1      24.783   3.219  50.683  1.00  0.00     0.089 C 
HETATM    3  C9  UNL     1      26.117   3.794  50.288  1.00  0.00     0.067 C 
HETATM    4  N1  UNL     1      27.052   3.125  50.841  1.00  0.00    -0.174 NA
HETATM    5  N2  UNL     1      26.535   2.070  51.638  1.00  0.00    -0.240 N 
ENDROOT
BRANCH   1   6
HETATM    6  C6  UNL     1      24.258   1.202  52.074  1.00  0.00     0.055 C 
BRANCH   6   7
HETATM    7  C5  UNL     1      22.851   1.318  51.700  1.00  0.00    -0.021 C 
BRANCH   7   8
HETATM    8  C4  UNL     1      21.917   1.312  52.640  1.00  0.00     0.047 C 
BRANCH   8   9
HETATM    9  C3  UNL     1      21.209   0.125  53.062  1.00  0.00     0.157 C 
HETATM   10  F1  UNL     1      20.048  -0.418  52.655  1.00  0.00    -0.197 F 
BRANCH   9  11
HETATM   11  C2  UNL     1      21.717  -0.635  54.021  1.00  0.00    -0.114 C 
HETATM   12  C1  UNL     1      22.425  -1.223  54.963  1.00  0.00     0.100 C 
ENDBRANCH   9  11
ENDBRANCH   8   9
ENDBRANCH   7   8
ENDBRANCH   6   7
ENDBRANCH   1   6
BRANCH   5  13
HETATM   13  C17 UNL     1      27.480   1.599  52.614  1.00  0.00     0.192 A 
HETATM   14  N3  UNL     1      28.279   2.156  53.290  1.00  0.00    -0.198 NA
HETATM   15  C18 UNL     1      29.094   1.604  54.161  1.00  0.00     0.171 A 
HETATM   16  C19 UNL     1      28.993   0.206  54.290  1.00  0.00     0.111 A 
HETATM   17  S1  UNL     1      27.635  -0.176  53.050  1.00  0.00    -0.058 SA
BRANCH  15  18
HETATM   18  O1  UNL     1      29.969   2.461  54.860  1.00  0.00    -0.344 OA
HETATM   19  H17 UNL     1      30.955   2.366  54.609  1.00  0.00     0.219 HD
ENDBRANCH  15  18
ENDBRANCH   5  13
BRANCH   3  20
HETATM   20  C10 UNL     1      26.213   4.949  49.397  1.00  0.00    -0.010 A 
HETATM   21  C11 UNL     1      25.154   5.744  49.062  1.00  0.00     0.014 A 
HETATM   22  C12 UNL     1      25.230   6.832  48.229  1.00  0.00     0.007 A 
HETATM   23  C13 UNL     1      26.466   7.156  47.682  1.00  0.00    -0.062 A 
HETATM   24  C14 UNL     1      26.627   8.314  46.776  1.00  0.00     0.048 C 
HETATM   25  C15 UNL     1      27.582   6.399  47.977  1.00  0.00     0.007 A 
HETATM   26  C16 UNL     1      27.407   5.330  48.820  1.00  0.00     0.014 A 
ENDBRANCH   3  20
TORSDOF 8
ENDMDL
MODEL 8
REMARK VINA RESULT:      -8.0      4.034      7.844
REMARK  8 active torsions:
REMARK  status: ('A' for Active; 'I' for Inactive)
REMARK    1  A    between atoms: C2_2  and  C3_3 
REMARK    2  A    between atoms: C3_3  and  C4_5 
REMARK    3  A    between atoms: C4_5  and  C5_6 
REMARK    4  A    between atoms: C5_6  and  C6_7 
REMARK    5  A    between atoms: C6_7  and  C7_8 
REMARK    6  A    between atoms: C9_10  and  C10_11 
REMARK    7  A    between atoms: N2_19  and  C17_20 
REMARK    8  A    between atoms: C18_22  and  O1_23 
ROOT
HETATM    1  C7  UNL     1      24.897   2.074  52.359  1.00  0.00     0.122 C 
HETATM    2  C8  UNL     1      25.892   2.410  51.281  1.00  0.00     0.089 C 
HETATM    3  C9  UNL     1      25.219   3.611  50.673  1.00  0.00     0.067 C 
HETATM    4  N1  UNL     1      23.985   3.620  50.997  1.00  0.00    -0.174 NA
HETATM    5  N2  UNL     1      23.654   2.508  51.815  1.00  0.00    -0.240 N 
ENDROOT
BRANCH   1   6
HETATM    6  C6  UNL     1      24.966   0.665  52.821  1.00  0.00     0.055 C 
BRANCH   6   7
HETATM    7  C5  UNL     1      26.097  -0.105  52.311  1.00  0.00    -0.021 C 
BRANCH   7   8
HETATM    8  C4  UNL     1      26.956  -0.654  53.158  1.00  0.00     0.047 C 
BRANCH   8   9
HETATM    9  C3  UNL     1      28.334  -0.239  53.286  1.00  0.00     0.157 C 
HETATM   10  F1  UNL     1      29.484  -0.937  53.273  1.00  0.00    -0.197 F 
BRANCH   9  11
HETATM   11  C2  UNL     1      28.621   1.043  53.450  1.00  0.00    -0.114 C 
HETATM   12  C1  UNL     1      28.650   2.342  53.671  1.00  0.00     0.100 C 
ENDBRANCH   9  11
ENDBRANCH   8   9
ENDBRANCH   7   8
ENDBRANCH   6   7
ENDBRANCH   1   6
BRANCH   5  13
HETATM   13  C17 UNL     1      22.245   2.223  51.820  1.00  0.00     0.192 A 
HETATM   14  N3  UNL     1      21.292   2.896  52.027  1.00  0.00    -0.198 NA
HETATM   15  C18 UNL     1      20.035   2.512  51.996  1.00  0.00     0.171 A 
HETATM   16  C19 UNL     1      19.819   1.157  51.680  1.00  0.00     0.111 A 
HETATM   17  S1  UNL     1      21.583   0.553  51.450  1.00  0.00    -0.058 SA
BRANCH  15  18
HETATM   18  O1  UNL     1      19.055   3.485  52.277  1.00  0.00    -0.344 OA
HETATM   19  H17 UNL     1      18.777   3.545  53.258  1.00  0.00     0.219 HD
ENDBRANCH  15  18
ENDBRANCH   5  13
BRANCH   3  20
HETATM   20  C10 UNL     1      25.963   4.564  49.849  1.00  0.00    -0.010 A 
HETATM   21  C11 UNL     1      27.128   4.265  49.203  1.00  0.00     0.014 A 
HETATM   22  C12 UNL     1      27.836   5.149  48.426  1.00  0.00     0.007 A 
HETATM   23  C13 UNL     1      27.339   6.438  48.280  1.00  0.00    -0.062 A 
HETATM   24  C14 UNL     1      28.045   7.446  47.458  1.00  0.00     0.048 C 
HETATM   25  C15 UNL     1      26.164   6.811  48.902  1.00  0.00     0.007 A 
HETATM   26  C16 UNL     1      25.529   5.859  49.659  1.00  0.00     0.014 A 
ENDBRANCH   3  20
TORSDOF 8
ENDMDL
MODEL 9
REMARK VINA RESULT:      -7.8      4.193      5.913
REMARK  8 active torsions:
REMARK  status: ('A' for Active; 'I' for Inactive)
REMARK    1  A    between atoms: C2_2  and  C3_3 
REMARK    2  A    between atoms: C3_3  and  C4_5 
REMARK    3  A    between atoms: C4_5  and  C5_6 
REMARK    4  A    between atoms: C5_6  and  C6_7 
REMARK    5  A    between atoms: C6_7  and  C7_8 
REMARK    6  A    between atoms: C9_10  and  C10_11 
REMARK    7  A    between atoms: N2_19  and  C17_20 
REMARK    8  A    between atoms: C18_22  and  O1_23 
ROOT
HETATM    1  C7  UNL     1      23.861   1.282  51.882  1.00  0.00     0.122 C 
HETATM    2  C8  UNL     1      22.814   0.597  52.717  1.00  0.00     0.089 C 
HETATM    3  C9  UNL     1      21.571   1.066  52.010  1.00  0.00     0.067 C 
HETATM    4  N1  UNL     1      21.841   2.099  51.311  1.00  0.00    -0.174 NA
HETATM    5  N2  UNL     1      23.208   2.464  51.427  1.00  0.00    -0.240 N 
ENDROOT
BRANCH   1   6
HETATM    6  C6  UNL     1      25.159   1.466  52.580  1.00  0.00     0.055 C 
BRANCH   6   7
HETATM    7  C5  UNL     1      26.323   0.919  51.887  1.00  0.00    -0.021 C 
BRANCH   7   8
HETATM    8  C4  UNL     1      26.918  -0.168  52.357  1.00  0.00     0.047 C 
BRANCH   8   9
HETATM    9  C3  UNL     1      27.540  -0.243  53.659  1.00  0.00     0.157 C 
HETATM   10  F1  UNL     1      27.099   0.095  54.883  1.00  0.00    -0.197 F 
BRANCH   9  11
HETATM   11  C2  UNL     1      28.771  -0.720  53.772  1.00  0.00    -0.114 C 
HETATM   12  C1  UNL     1      30.040  -1.058  53.663  1.00  0.00     0.100 C 
ENDBRANCH   9  11
ENDBRANCH   8   9
ENDBRANCH   7   8
ENDBRANCH   6   7
ENDBRANCH   1   6
BRANCH   5  13
HETATM   13  C17 UNL     1      23.451   3.830  51.054  1.00  0.00     0.192 A 
HETATM   14  N3  UNL     1      23.809   4.778  51.669  1.00  0.00    -0.198 NA
HETATM   15  C18 UNL     1      24.001   5.992  51.203  1.00  0.00     0.171 A 
HETATM   16  C19 UNL     1      23.749   6.165  49.829  1.00  0.00     0.111 A 
HETATM   17  S1  UNL     1      23.228   4.429  49.335  1.00  0.00    -0.058 SA
BRANCH  15  18
HETATM   18  O1  UNL     1      24.430   6.975  52.119  1.00  0.00    -0.344 OA
HETATM   19  H17 UNL     1      24.630   7.888  51.707  1.00  0.00     0.219 HD
ENDBRANCH  15  18
ENDBRANCH   5  13
BRANCH   3  20
HETATM   20  C10 UNL     1      20.295   0.369  52.170  1.00  0.00    -0.010 A 
HETATM   21  C11 UNL     1      19.989  -0.423  53.239  1.00  0.00     0.014 A 
HETATM   22  C12 UNL     1      18.795  -1.081  53.403  1.00  0.00     0.007 A 
HETATM   23  C13 UNL     1      17.825  -0.938  52.418  1.00  0.00    -0.062 A 
HETATM   24  C14 UNL     1      16.515  -1.617  52.524  1.00  0.00     0.048 C 
HETATM   25  C15 UNL     1      18.064  -0.151  51.309  1.00  0.00     0.007 A 
HETATM   26  C16 UNL     1      19.287   0.467  51.234  1.00  0.00     0.014 A 
ENDBRANCH   3  20
TORSDOF 8
ENDMDL
