MODEL 1
REMARK VINA RESULT:      -8.0      0.000      0.000
REMARK  7 active torsions:
REMARK  status: ('A' for Active; 'I' for Inactive)
REMARK    1  A    between atoms: O1_1  and  C1_2 
REMARK    2  A    between atoms: C10_13  and  N1_14 
REMARK    3  A    between atoms: N1_14  and  C11_15 
REMARK    4  A    between atoms: C13_17  and  O2_18 
REMARK    5  A    between atoms: O2_18  and  C14_19 
REMARK    6  A    between atoms: C14_19  and  C15_20 
REMARK    7  A    between atoms: C16_21  and  C17_22 
ROOT
HETATM    1  C1  UNL     1      24.969   5.831  49.443  1.00  0.00     0.233 A 
HETATM    2  F1  UNL     1      24.432   6.507  48.365  1.00  0.00    -0.206 F 
HETATM    3  C2  UNL     1      26.405   5.600  49.169  1.00  0.00     0.047 A 
HETATM    4  C3  UNL     1      27.184   4.537  49.083  1.00  0.00     0.001 A 
HETATM    5  C4  UNL     1      26.500   3.273  49.308  1.00  0.00    -0.003 A 
HETATM    6  C5  UNL     1      25.226   3.389  49.558  1.00  0.00    -0.011 A 
HETATM    7  C6  UNL     1      24.289   4.525  49.670  1.00  0.00     0.049 A 
HETATM    8  C7  UNL     1      23.253   4.338  48.568  1.00  0.00     0.070 C 
HETATM    9  C8  UNL     1      22.667   2.983  48.757  1.00  0.00     0.011 C 
HETATM   10 CL1  UNL     1      22.559   1.818  47.453  1.00  0.00    -0.089 Cl
HETATM   11  C9  UNL     1      22.218   2.669  49.952  1.00  0.00     0.017 C 
HETATM   12  C10 UNL     1      22.337   3.693  51.008  1.00  0.00     0.108 C 
HETATM   13  C19 UNL     1      23.630   4.434  51.030  1.00  0.00     0.049 C 
ENDROOT
BRANCH  12  14
HETATM   14  N1  UNL     1      21.993   3.132  52.292  1.00  0.00    -0.367 N 
HETATM   15  H10 UNL     1      21.354   3.553  52.988  1.00  0.00     0.161 HD
BRANCH  14  16
HETATM   16  C11 UNL     1      22.585   1.875  52.644  1.00  0.00     0.129 A 
HETATM   17  C12 UNL     1      23.937   1.731  52.883  1.00  0.00     0.108 A 
HETATM   18  C13 UNL     1      24.530   0.532  53.222  1.00  0.00     0.169 A 
HETATM   19  N2  UNL     1      23.692  -0.519  53.310  1.00  0.00    -0.218 NA
HETATM   20  C18 UNL     1      22.374  -0.452  53.092  1.00  0.00     0.238 A 
HETATM   21  N3  UNL     1      21.862   0.748  52.765  1.00  0.00    -0.225 NA
BRANCH  18  22
HETATM   22  O2  UNL     1      25.907   0.432  53.456  1.00  0.00    -0.331 OA
BRANCH  22  23
HETATM   23  C14 UNL     1      26.759   0.885  52.405  1.00  0.00     0.204 C 
BRANCH  23  24
HETATM   24  C15 UNL     1      27.481   2.120  52.737  1.00  0.00    -0.002 C 
HETATM   25  C16 UNL     1      28.542   2.203  53.498  1.00  0.00     0.002 C 
BRANCH  25  26
HETATM   26  C17 UNL     1      29.289   1.159  54.205  1.00  0.00     0.249 C 
HETATM   27  F2  UNL     1      28.524   0.598  55.211  1.00  0.00    -0.251 F 
ENDBRANCH  25  26
ENDBRANCH  23  24
ENDBRANCH  22  23
ENDBRANCH  18  22
ENDBRANCH  14  16
ENDBRANCH  12  14
BRANCH   1  28
HETATM   28  O1  UNL     1      24.845   6.622  50.589  1.00  0.00    -0.358 OA
HETATM   29  H1  UNL     1      23.906   6.895  50.739  1.00  0.00     0.213 HD
ENDBRANCH   1  28
TORSDOF 7
ENDMDL
MODEL 2
REMARK VINA RESULT:      -7.8      2.450      3.216
REMARK  7 active torsions:
REMARK  status: ('A' for Active; 'I' for Inactive)
REMARK    1  A    between atoms: O1_1  and  C1_2 
REMARK    2  A    between atoms: C10_13  and  N1_14 
REMARK    3  A    between atoms: N1_14  and  C11_15 
REMARK    4  A    between atoms: C13_17  and  O2_18 
REMARK    5  A    between atoms: O2_18  and  C14_19 
REMARK    6  A    between atoms: C14_19  and  C15_20 
REMARK    7  A    between atoms: C16_21  and  C17_22 
ROOT
HETATM    1  C1  UNL     1      26.355   7.023  49.378  1.00  0.00     0.233 A 
HETATM    2  F1  UNL     1      26.485   8.001  50.344  1.00  0.00    -0.206 F 
HETATM    3  C2  UNL     1      26.116   7.691  48.079  1.00  0.00     0.047 A 
HETATM    4  C3  UNL     1      25.163   7.653  47.166  1.00  0.00     0.001 A 
HETATM    5  C4  UNL     1      24.070   6.745  47.478  1.00  0.00    -0.003 A 
HETATM    6  C5  UNL     1      24.204   6.113  48.611  1.00  0.00    -0.011 A 
HETATM    7  C6  UNL     1      25.225   6.099  49.677  1.00  0.00     0.049 A 
HETATM    8  C7  UNL     1      24.534   6.597  50.941  1.00  0.00     0.070 C 
HETATM    9  C8  UNL     1      23.350   5.721  51.155  1.00  0.00     0.011 C 
HETATM   10 CL1  UNL     1      21.743   6.366  51.419  1.00  0.00    -0.089 Cl
HETATM   11  C9  UNL     1      23.538   4.420  51.143  1.00  0.00     0.017 C 
HETATM   12  C10 UNL     1      24.914   3.939  50.916  1.00  0.00     0.108 C 
HETATM   13  C19 UNL     1      25.672   4.663  49.856  1.00  0.00     0.049 C 
ENDROOT
BRANCH  12  14
HETATM   14  N1  UNL     1      24.922   2.509  50.730  1.00  0.00    -0.367 N 
HETATM   15  H10 UNL     1      24.759   2.011  49.838  1.00  0.00     0.161 HD
BRANCH  14  16
HETATM   16  C11 UNL     1      25.181   1.694  51.880  1.00  0.00     0.129 A 
HETATM   17  C12 UNL     1      26.307   1.849  52.663  1.00  0.00     0.108 A 
HETATM   18  C13 UNL     1      26.579   1.076  53.773  1.00  0.00     0.169 A 
HETATM   19  N2  UNL     1      25.657   0.136  54.058  1.00  0.00    -0.218 NA
HETATM   20  C18 UNL     1      24.545  -0.070  53.345  1.00  0.00     0.238 A 
HETATM   21  N3  UNL     1      24.343   0.720  52.275  1.00  0.00    -0.225 NA
BRANCH  18  22
HETATM   22  O2  UNL     1      27.735   1.268  54.540  1.00  0.00    -0.331 OA
BRANCH  22  23
HETATM   23  C14 UNL     1      28.440   0.088  54.923  1.00  0.00     0.204 C 
BRANCH  23  24
HETATM   24  C15 UNL     1      29.416  -0.355  53.920  1.00  0.00    -0.002 C 
HETATM   25  C16 UNL     1      29.307  -1.417  53.165  1.00  0.00     0.002 C 
BRANCH  25  26
HETATM   26  C17 UNL     1      28.245  -2.426  53.091  1.00  0.00     0.249 C 
HETATM   27  F2  UNL     1      27.205  -1.992  52.291  1.00  0.00    -0.251 F 
ENDBRANCH  25  26
ENDBRANCH  23  24
ENDBRANCH  22  23
ENDBRANCH  18  22
ENDBRANCH  14  16
ENDBRANCH  12  14
BRANCH   1  28
HETATM   28  O1  UNL     1      27.543   6.291  49.302  1.00  0.00    -0.358 OA
HETATM   29  H1  UNL     1      27.561   5.562  49.971  1.00  0.00     0.213 HD
ENDBRANCH   1  28
TORSDOF 7
ENDMDL
MODEL 3
REMARK VINA RESULT:      -7.8      2.496      4.029
REMARK  7 active torsions:
REMARK  status: ('A' for Active; 'I' for Inactive)
REMARK    1  A    between atoms: O1_1  and  C1_2 
REMARK    2  A    between atoms: C10_13  and  N1_14 
REMARK    3  A    between atoms: N1_14  and  C11_15 
REMARK    4  A    between atoms: C13_17  and  O2_18 
REMARK    5  A    between atoms: O2_18  and  C14_19 
REMARK    6  A    between atoms: C14_19  and  C15_20 
REMARK    7  A    between atoms: C16_21  and  C17_22 
ROOT
HETATM    1  C1  UNL     1      23.569   6.888  50.830  1.00  0.00     0.233 A 
HETATM    2  F1  UNL     1      22.268   6.747  51.270  1.00  0.00    -0.206 F 
HETATM    3  C2  UNL     1      23.635   8.093  49.973  1.00  0.00     0.047 A 
HETATM    4  C3  UNL     1      23.989   8.339  48.725  1.00  0.00     0.001 A 
HETATM    5  C4  UNL     1      24.425   7.165  47.984  1.00  0.00    -0.003 A 
HETATM    6  C5  UNL     1      24.397   6.056  48.670  1.00  0.00    -0.011 A 
HETATM    7  C6  UNL     1      24.020   5.700  50.052  1.00  0.00     0.049 A 
HETATM    8  C7  UNL     1      22.843   4.737  49.942  1.00  0.00     0.070 C 
HETATM    9  C8  UNL     1      23.289   3.614  49.073  1.00  0.00     0.011 C 
HETATM   10 CL1  UNL     1      22.359   3.074  47.690  1.00  0.00    -0.089 Cl
HETATM   11  C9  UNL     1      24.422   3.019  49.372  1.00  0.00     0.017 C 
HETATM   12  C10 UNL     1      25.158   3.519  50.548  1.00  0.00     0.108 C 
HETATM   13  C19 UNL     1      25.209   5.003  50.679  1.00  0.00     0.049 C 
ENDROOT
BRANCH  12  14
HETATM   14  N1  UNL     1      26.462   2.907  50.622  1.00  0.00    -0.367 N 
HETATM   15  H10 UNL     1      27.165   2.880  49.865  1.00  0.00     0.161 HD
BRANCH  14  16
HETATM   16  C11 UNL     1      26.827   2.277  51.857  1.00  0.00     0.129 A 
HETATM   17  C12 UNL     1      25.984   1.417  52.532  1.00  0.00     0.108 A 
HETATM   18  C13 UNL     1      26.312   0.801  53.721  1.00  0.00     0.169 A 
HETATM   19  N2  UNL     1      27.537   1.092  54.200  1.00  0.00    -0.218 NA
HETATM   20  C18 UNL     1      28.404   1.915  53.601  1.00  0.00     0.238 A 
HETATM   21  N3  UNL     1      28.019   2.483  52.444  1.00  0.00    -0.225 NA
BRANCH  18  22
HETATM   22  O2  UNL     1      25.424  -0.065  54.371  1.00  0.00    -0.331 OA
BRANCH  22  23
HETATM   23  C14 UNL     1      24.440  -0.692  53.549  1.00  0.00     0.204 C 
BRANCH  23  24
HETATM   24  C15 UNL     1      23.070  -0.504  54.042  1.00  0.00    -0.002 C 
HETATM   25  C16 UNL     1      22.191   0.333  53.554  1.00  0.00     0.002 C 
BRANCH  25  26
HETATM   26  C17 UNL     1      22.296   1.278  52.439  1.00  0.00     0.249 C 
HETATM   27  F2  UNL     1      22.907   2.452  52.840  1.00  0.00    -0.251 F 
ENDBRANCH  25  26
ENDBRANCH  23  24
ENDBRANCH  22  23
ENDBRANCH  18  22
ENDBRANCH  14  16
ENDBRANCH  12  14
BRANCH   1  28
HETATM   28  O1  UNL     1      24.410   7.065  51.932  1.00  0.00    -0.358 OA
HETATM   29  H1  UNL     1      24.084   6.563  52.720  1.00  0.00     0.213 HD
ENDBRANCH   1  28
TORSDOF 7
ENDMDL
MODEL 4
REMARK VINA RESULT:      -7.7      2.705      5.934
REMARK  7 active torsions:
REMARK  status: ('A' for Active; 'I' for Inactive)
REMARK    1  A    between atoms: O1_1  and  C1_2 
REMARK    2  A    between atoms: C10_13  and  N1_14 
REMARK    3  A    between atoms: N1_14  and  C11_15 
REMARK    4  A    between atoms: C13_17  and  O2_18 
REMARK    5  A    between atoms: O2_18  and  C14_19 
REMARK    6  A    between atoms: C14_19  and  C15_20 
REMARK    7  A    between atoms: C16_21  and  C17_22 
ROOT
HETATM    1  C1  UNL     1      27.120   0.785  52.432  1.00  0.00     0.233 A 
HETATM    2  F1  UNL     1      27.006  -0.110  51.385  1.00  0.00    -0.206 F 
HETATM    3  C2  UNL     1      27.929   0.146  53.494  1.00  0.00     0.047 A 
HETATM    4  C3  UNL     1      27.741  -0.151  54.767  1.00  0.00     0.001 A 
HETATM    5  C4  UNL     1      26.434   0.226  55.282  1.00  0.00    -0.003 A 
HETATM    6  C5  UNL     1      25.655   0.797  54.407  1.00  0.00    -0.011 A 
HETATM    7  C6  UNL     1      25.787   1.162  52.982  1.00  0.00     0.049 A 
HETATM    8  C7  UNL     1      24.727   0.363  52.233  1.00  0.00     0.070 C 
HETATM    9  C8  UNL     1      23.421   0.679  52.873  1.00  0.00     0.011 C 
HETATM   10 CL1  UNL     1      22.315  -0.568  53.412  1.00  0.00    -0.089 Cl
HETATM   11  C9  UNL     1      23.104   1.945  53.029  1.00  0.00     0.017 C 
HETATM   12  C10 UNL     1      24.077   2.948  52.554  1.00  0.00     0.108 C 
HETATM   13  C19 UNL     1      25.502   2.645  52.867  1.00  0.00     0.049 C 
ENDROOT
BRANCH  12  14
HETATM   14  N1  UNL     1      23.682   4.269  52.976  1.00  0.00    -0.367 N 
HETATM   15  H10 UNL     1      23.666   4.618  53.949  1.00  0.00     0.161 HD
BRANCH  14  16
HETATM   16  C11 UNL     1      23.274   5.193  51.959  1.00  0.00     0.129 A 
HETATM   17  C12 UNL     1      24.172   5.808  51.109  1.00  0.00     0.108 A 
HETATM   18  C13 UNL     1      23.805   6.702  50.125  1.00  0.00     0.169 A 
HETATM   19  N2  UNL     1      22.483   6.946  50.035  1.00  0.00    -0.218 NA
HETATM   20  C18 UNL     1      21.558   6.388  50.823  1.00  0.00     0.238 A 
HETATM   21  N3  UNL     1      21.986   5.526  51.763  1.00  0.00    -0.225 NA
BRANCH  18  22
HETATM   22  O2  UNL     1      24.750   7.303  49.285  1.00  0.00    -0.331 OA
BRANCH  22  23
HETATM   23  C14 UNL     1      26.118   7.137  49.656  1.00  0.00     0.204 C 
BRANCH  23  24
HETATM   24  C15 UNL     1      26.898   6.379  48.670  1.00  0.00    -0.002 C 
HETATM   25  C16 UNL     1      27.094   5.085  48.682  1.00  0.00     0.002 C 
BRANCH  25  26
HETATM   26  C17 UNL     1      26.626   4.062  49.622  1.00  0.00     0.249 C 
HETATM   27  F2  UNL     1      26.812   2.793  49.106  1.00  0.00    -0.251 F 
ENDBRANCH  25  26
ENDBRANCH  23  24
ENDBRANCH  22  23
ENDBRANCH  18  22
ENDBRANCH  14  16
ENDBRANCH  12  14
BRANCH   1  28
HETATM   28  O1  UNL     1      27.777   1.934  51.984  1.00  0.00    -0.358 OA
HETATM   29  H1  UNL     1      27.828   2.620  52.695  1.00  0.00     0.213 HD
ENDBRANCH   1  28
TORSDOF 7
ENDMDL
MODEL 5
REMARK VINA RESULT:      -7.6      2.514      6.228
REMARK  7 active torsions:
REMARK  status: ('A' for Active; 'I' for Inactive)
REMARK    1  A    between atoms: O1_1  and  C1_2 
REMARK    2  A    between atoms: C10_13  and  N1_14 
REMARK    3  A    between atoms: N1_14  and  C11_15 
REMARK    4  A    between atoms: C13_17  and  O2_18 
REMARK    5  A    between atoms: O2_18  and  C14_19 
REMARK    6  A    between atoms: C14_19  and  C15_20 
REMARK    7  A    between atoms: C16_21  and  C17_22 
ROOT
HETATM    1  C1  UNL     1      25.527   0.958  53.257  1.00  0.00     0.233 A 
HETATM    2  F1  UNL     1      26.387   0.483  52.285  1.00  0.00    -0.206 F 
HETATM    3  C2  UNL     1      25.070  -0.194  54.066  1.00  0.00     0.047 A 
HETATM    4  C3  UNL     1      23.898  -0.726  54.363  1.00  0.00     0.001 A 
HETATM    5  C4  UNL     1      22.761  -0.038  53.770  1.00  0.00    -0.003 A 
HETATM    6  C5  UNL     1      23.079   0.993  53.039  1.00  0.00    -0.011 A 
HETATM    7  C6  UNL     1      24.348   1.646  52.660  1.00  0.00     0.049 A 
HETATM    8  C7  UNL     1      24.455   1.531  51.144  1.00  0.00     0.070 C 
HETATM    9  C8  UNL     1      23.215   2.131  50.581  1.00  0.00     0.011 C 
HETATM   10 CL1  UNL     1      22.217   1.294  49.409  1.00  0.00    -0.089 Cl
HETATM   11  C9  UNL     1      22.874   3.333  50.989  1.00  0.00     0.017 C 
HETATM   12  C10 UNL     1      23.755   3.986  51.976  1.00  0.00     0.108 C 
HETATM   13  C19 UNL     1      24.247   3.100  53.068  1.00  0.00     0.049 C 
ENDROOT
BRANCH  12  14
HETATM   14  N1  UNL     1      23.146   5.196  52.469  1.00  0.00    -0.367 N 
HETATM   15  H10 UNL     1      22.785   5.349  53.427  1.00  0.00     0.161 HD
BRANCH  14  16
HETATM   16  C11 UNL     1      23.026   6.296  51.558  1.00  0.00     0.129 A 
HETATM   17  C12 UNL     1      24.122   6.976  51.065  1.00  0.00     0.108 A 
HETATM   18  C13 UNL     1      24.033   8.038  50.189  1.00  0.00     0.169 A 
HETATM   19  N2  UNL     1      22.781   8.382  49.830  1.00  0.00    -0.218 NA
HETATM   20  C18 UNL     1      21.676   7.769  50.267  1.00  0.00     0.238 A 
HETATM   21  N3  UNL     1      21.836   6.742  51.121  1.00  0.00    -0.225 NA
BRANCH  18  22
HETATM   22  O2  UNL     1      25.172   8.699  49.714  1.00  0.00    -0.331 OA
BRANCH  22  23
HETATM   23  C14 UNL     1      26.429   8.134  50.086  1.00  0.00     0.204 C 
BRANCH  23  24
HETATM   24  C15 UNL     1      27.222   7.680  48.936  1.00  0.00    -0.002 C 
HETATM   25  C16 UNL     1      27.269   6.457  48.475  1.00  0.00     0.002 C 
BRANCH  25  26
HETATM   26  C17 UNL     1      26.588   5.242  48.933  1.00  0.00     0.249 C 
HETATM   27  F2  UNL     1      27.328   4.115  48.626  1.00  0.00    -0.251 F 
ENDBRANCH  25  26
ENDBRANCH  23  24
ENDBRANCH  22  23
ENDBRANCH  18  22
ENDBRANCH  14  16
ENDBRANCH  12  14
BRANCH   1  28
HETATM   28  O1  UNL     1      26.215   1.851  54.082  1.00  0.00    -0.358 OA
HETATM   29  H1  UNL     1      26.591   1.394  54.875  1.00  0.00     0.213 HD
ENDBRANCH   1  28
TORSDOF 7
ENDMDL
MODEL 6
REMARK VINA RESULT:      -7.3      3.373      6.026
REMARK  7 active torsions:
REMARK  status: ('A' for Active; 'I' for Inactive)
REMARK    1  A    between atoms: O1_1  and  C1_2 
REMARK    2  A    between atoms: C10_13  and  N1_14 
REMARK    3  A    between atoms: N1_14  and  C11_15 
REMARK    4  A    between atoms: C13_17  and  O2_18 
REMARK    5  A    between atoms: O2_18  and  C14_19 
REMARK    6  A    between atoms: C14_19  and  C15_20 
REMARK    7  A    between atoms: C16_21  and  C17_22 
ROOT
HETATM    1  C1  UNL     1      20.850   1.548  52.411  1.00  0.00     0.233 A 
HETATM    2  F1  UNL     1      20.964   0.544  53.353  1.00  0.00    -0.206 F 
HETATM    3  C2  UNL     1      20.269   0.960  51.183  1.00  0.00     0.047 A 
HETATM    4  C3  UNL     1      20.646   0.858  49.922  1.00  0.00     0.001 A 
HETATM    5  C4  UNL     1      21.939   1.460  49.633  1.00  0.00    -0.003 A 
HETATM    6  C5  UNL     1      22.521   2.004  50.666  1.00  0.00    -0.011 A 
HETATM    7  C6  UNL     1      22.172   2.158  52.092  1.00  0.00     0.049 A 
HETATM    8  C7  UNL     1      23.237   1.406  52.880  1.00  0.00     0.070 C 
HETATM    9  C8  UNL     1      24.552   1.964  52.462  1.00  0.00     0.011 C 
HETATM   10 CL1  UNL     1      25.879   0.947  51.937  1.00  0.00    -0.089 Cl
HETATM   11  C9  UNL     1      24.704   3.269  52.497  1.00  0.00     0.017 C 
HETATM   12  C10 UNL     1      23.551   4.071  52.948  1.00  0.00     0.108 C 
HETATM   13  C19 UNL     1      22.229   3.636  52.414  1.00  0.00     0.049 C 
ENDROOT
BRANCH  12  14
HETATM   14  N1  UNL     1      23.803   5.476  52.738  1.00  0.00    -0.367 N 
HETATM   15  H10 UNL     1      24.147   6.145  53.448  1.00  0.00     0.161 HD
BRANCH  14  16
HETATM   16  C11 UNL     1      23.560   6.002  51.428  1.00  0.00     0.129 A 
HETATM   17  C12 UNL     1      24.576   6.266  50.531  1.00  0.00     0.108 A 
HETATM   18  C13 UNL     1      24.367   6.775  49.266  1.00  0.00     0.169 A 
HETATM   19  N2  UNL     1      23.079   7.004  48.945  1.00  0.00    -0.218 NA
HETATM   20  C18 UNL     1      22.046   6.772  49.761  1.00  0.00     0.238 A 
HETATM   21  N3  UNL     1      22.321   6.276  50.981  1.00  0.00    -0.225 NA
BRANCH  18  22
HETATM   22  O2  UNL     1      25.429   7.028  48.389  1.00  0.00    -0.331 OA
BRANCH  22  23
HETATM   23  C14 UNL     1      26.734   7.036  48.967  1.00  0.00     0.204 C 
BRANCH  23  24
HETATM   24  C15 UNL     1      27.637   6.044  48.369  1.00  0.00    -0.002 C 
HETATM   25  C16 UNL     1      27.648   4.763  48.635  1.00  0.00     0.002 C 
BRANCH  25  26
HETATM   26  C17 UNL     1      26.817   3.975  49.550  1.00  0.00     0.249 C 
HETATM   27  F2  UNL     1      26.762   2.652  49.154  1.00  0.00    -0.251 F 
ENDBRANCH  25  26
ENDBRANCH  23  24
ENDBRANCH  22  23
ENDBRANCH  18  22
ENDBRANCH  14  16
ENDBRANCH  12  14
BRANCH   1  28
HETATM   28  O1  UNL     1      19.989   2.537  52.895  1.00  0.00    -0.358 OA
HETATM   29  H1  UNL     1      19.506   2.987  52.158  1.00  0.00     0.213 HD
ENDBRANCH   1  28
TORSDOF 7
ENDMDL
MODEL 7
REMARK VINA RESULT:      -7.2      3.040      4.600
REMARK  7 active torsions:
REMARK  status: ('A' for Active; 'I' for Inactive)
REMARK    1  A    between atoms: O1_1  and  C1_2 
REMARK    2  A    between atoms: C10_13  and  N1_14 
REMARK    3  A    between atoms: N1_14  and  C11_15 
REMARK    4  A    between atoms: C13_17  and  O2_18 
REMARK    5  A    between atoms: O2_18  and  C14_19 
REMARK    6  A    between atoms: C14_19  and  C15_20 
REMARK    7  A    between atoms: C16_21  and  C17_22 
ROOT
HETATM    1  C1  UNL     1      26.505   7.165  49.329  1.00  0.00     0.233 A 
HETATM    2  F1  UNL     1      26.682   8.106  50.325  1.00  0.00    -0.206 F 
HETATM    3  C2  UNL     1      26.403   7.879  48.037  1.00  0.00     0.047 A 
HETATM    4  C3  UNL     1      25.500   7.956  47.076  1.00  0.00     0.001 A 
HETATM    5  C4  UNL     1      24.306   7.158  47.311  1.00  0.00    -0.003 A 
HETATM    6  C5  UNL     1      24.316   6.494  48.433  1.00  0.00    -0.011 A 
HETATM    7  C6  UNL     1      25.273   6.355  49.549  1.00  0.00     0.049 A 
HETATM    8  C7  UNL     1      24.570   6.897  50.788  1.00  0.00     0.070 C 
HETATM    9  C8  UNL     1      23.294   6.143  50.920  1.00  0.00     0.011 C 
HETATM   10 CL1  UNL     1      21.748   6.943  51.119  1.00  0.00    -0.089 Cl
HETATM   11  C9  UNL     1      23.350   4.830  50.886  1.00  0.00     0.017 C 
HETATM   12  C10 UNL     1      24.680   4.215  50.717  1.00  0.00     0.108 C 
HETATM   13  C19 UNL     1      25.562   4.878  49.715  1.00  0.00     0.049 C 
ENDROOT
BRANCH  12  14
HETATM   14  N1  UNL     1      24.553   2.796  50.496  1.00  0.00    -0.367 N 
HETATM   15  H10 UNL     1      24.069   2.344  49.701  1.00  0.00     0.161 HD
BRANCH  14  16
HETATM   16  C11 UNL     1      25.152   1.921  51.461  1.00  0.00     0.129 A 
HETATM   17  C12 UNL     1      24.406   1.127  52.309  1.00  0.00     0.108 A 
HETATM   18  C13 UNL     1      24.958   0.279  53.246  1.00  0.00     0.169 A 
HETATM   19  N2  UNL     1      26.305   0.266  53.286  1.00  0.00    -0.218 NA
HETATM   20  C18 UNL     1      27.089   1.007  52.496  1.00  0.00     0.238 A 
HETATM   21  N3  UNL     1      26.484   1.813  51.605  1.00  0.00    -0.225 NA
BRANCH  18  22
HETATM   22  O2  UNL     1      24.162  -0.509  54.087  1.00  0.00    -0.331 OA
BRANCH  22  23
HETATM   23  C14 UNL     1      22.860  -0.832  53.601  1.00  0.00     0.204 C 
BRANCH  23  24
HETATM   24  C15 UNL     1      21.783  -0.395  54.497  1.00  0.00    -0.002 C 
HETATM   25  C16 UNL     1      20.632   0.104  54.124  1.00  0.00     0.002 C 
BRANCH  25  26
HETATM   26  C17 UNL     1      20.100   0.363  52.783  1.00  0.00     0.249 C 
HETATM   27  F2  UNL     1      18.995  -0.429  52.528  1.00  0.00    -0.251 F 
ENDBRANCH  25  26
ENDBRANCH  23  24
ENDBRANCH  22  23
ENDBRANCH  18  22
ENDBRANCH  14  16
ENDBRANCH  12  14
BRANCH   1  28
HETATM   28  O1  UNL     1      27.615   6.317  49.296  1.00  0.00    -0.358 OA
HETATM   29  H1  UNL     1      27.889   6.117  48.367  1.00  0.00     0.213 HD
ENDBRANCH   1  28
TORSDOF 7
ENDMDL
MODEL 8
REMARK VINA RESULT:      -7.0      3.698      6.974
REMARK  7 active torsions:
REMARK  status: ('A' for Active; 'I' for Inactive)
REMARK    1  A    between atoms: O1_1  and  C1_2 
REMARK    2  A    between atoms: C10_13  and  N1_14 
REMARK    3  A    between atoms: N1_14  and  C11_15 
REMARK    4  A    between atoms: C13_17  and  O2_18 
REMARK    5  A    between atoms: O2_18  and  C14_19 
REMARK    6  A    between atoms: C14_19  and  C15_20 
REMARK    7  A    between atoms: C16_21  and  C17_22 
ROOT
HETATM    1  C1  UNL     1      20.778   1.673  52.715  1.00  0.00     0.233 A 
HETATM    2  F1  UNL     1      20.872   0.908  53.861  1.00  0.00    -0.206 F 
HETATM    3  C2  UNL     1      20.049   0.884  51.697  1.00  0.00     0.047 A 
HETATM    4  C3  UNL     1      20.314   0.453  50.477  1.00  0.00     0.001 A 
HETATM    5  C4  UNL     1      21.630   0.826  49.983  1.00  0.00    -0.003 A 
HETATM    6  C5  UNL     1      22.340   1.526  50.822  1.00  0.00    -0.011 A 
HETATM    7  C6  UNL     1      22.122   2.044  52.187  1.00  0.00     0.049 A 
HETATM    8  C7  UNL     1      23.172   1.381  53.072  1.00  0.00     0.070 C 
HETATM    9  C8  UNL     1      24.496   1.680  52.461  1.00  0.00     0.011 C 
HETATM   10 CL1  UNL     1      25.675   0.429  52.121  1.00  0.00    -0.089 Cl
HETATM   11  C9  UNL     1      24.772   2.933  52.175  1.00  0.00     0.017 C 
HETATM   12  C10 UNL     1      23.739   3.939  52.485  1.00  0.00     0.108 C 
HETATM   13  C19 UNL     1      22.344   3.541  52.144  1.00  0.00     0.049 C 
ENDROOT
BRANCH  12  14
HETATM   14  N1  UNL     1      24.104   5.220  51.933  1.00  0.00    -0.367 N 
HETATM   15  H10 UNL     1      24.910   5.801  52.222  1.00  0.00     0.161 HD
BRANCH  14  16
HETATM   16  C11 UNL     1      23.281   5.747  50.884  1.00  0.00     0.129 A 
HETATM   17  C12 UNL     1      23.466   5.416  49.557  1.00  0.00     0.108 A 
HETATM   18  C13 UNL     1      22.689   5.910  48.529  1.00  0.00     0.169 A 
HETATM   19  N2  UNL     1      21.711   6.757  48.906  1.00  0.00    -0.218 NA
HETATM   20  C18 UNL     1      21.475   7.121  50.170  1.00  0.00     0.238 A 
HETATM   21  N3  UNL     1      22.271   6.602  51.122  1.00  0.00    -0.225 NA
BRANCH  18  22
HETATM   22  O2  UNL     1      22.913   5.547  47.196  1.00  0.00    -0.331 OA
BRANCH  22  23
HETATM   23  C14 UNL     1      21.783   5.046  46.481  1.00  0.00     0.204 C 
BRANCH  23  24
HETATM   24  C15 UNL     1      21.570   3.606  46.671  1.00  0.00    -0.002 C 
HETATM   25  C16 UNL     1      20.687   3.063  47.469  1.00  0.00     0.002 C 
BRANCH  25  26
HETATM   26  C17 UNL     1      19.703   3.684  48.360  1.00  0.00     0.249 C 
HETATM   27  F2  UNL     1      20.232   3.881  49.623  1.00  0.00    -0.251 F 
ENDBRANCH  25  26
ENDBRANCH  23  24
ENDBRANCH  22  23
ENDBRANCH  18  22
ENDBRANCH  14  16
ENDBRANCH  12  14
BRANCH   1  28
HETATM   28  O1  UNL     1      20.055   2.835  52.996  1.00  0.00    -0.358 OA
HETATM   29  H1  UNL     1      19.397   2.685  53.719  1.00  0.00     0.213 HD
ENDBRANCH   1  28
TORSDOF 7
ENDMDL
MODEL 9
REMARK VINA RESULT:      -7.0      3.530      6.777
REMARK  7 active torsions:
REMARK  status: ('A' for Active; 'I' for Inactive)
REMARK    1  A    between atoms: O1_1  and  C1_2 
REMARK    2  A    between atoms: C10_13  and  N1_14 
REMARK    3  A    between atoms: N1_14  and  C11_15 
REMARK    4  A    between atoms: C13_17  and  O2_18 
REMARK    5  A    between atoms: O2_18  and  C14_19 
REMARK    6  A    between atoms: C14_19  and  C15_20 
REMARK    7  A    between atoms: C16_21  and  C17_22 
ROOT
HETATM    1  C1  UNL     1      26.749   0.074  52.240  1.00  0.00     0.233 A 
HETATM    2  F1  UNL     1      26.567  -1.114  51.558  1.00  0.00    -0.206 F 
HETATM    3  C2  UNL     1      27.846  -0.121  53.215  1.00  0.00     0.047 A 
HETATM    4  C3  UNL     1      27.968  -0.013  54.525  1.00  0.00     0.001 A 
HETATM    5  C4  UNL     1      26.749   0.395  55.208  1.00  0.00    -0.003 A 
HETATM    6  C5  UNL     1      25.730   0.588  54.418  1.00  0.00    -0.011 A 
HETATM    7  C6  UNL     1      25.513   0.491  52.961  1.00  0.00     0.049 A 
HETATM    8  C7  UNL     1      24.462  -0.594  52.755  1.00  0.00     0.070 C 
HETATM    9  C8  UNL     1      23.279  -0.204  53.570  1.00  0.00     0.011 C 
HETATM   10 CL1  UNL     1      22.514  -1.306  54.697  1.00  0.00    -0.089 Cl
HETATM   11  C9  UNL     1      22.806   1.013  53.423  1.00  0.00     0.017 C 
HETATM   12  C10 UNL     1      23.493   1.893  52.458  1.00  0.00     0.108 C 
HETATM   13  C19 UNL     1      24.982   1.829  52.492  1.00  0.00     0.049 C 
ENDROOT
BRANCH  12  14
HETATM   14  N1  UNL     1      22.990   3.240  52.560  1.00  0.00    -0.367 N 
HETATM   15  H10 UNL     1      23.227   3.924  53.298  1.00  0.00     0.161 HD
BRANCH  14  16
HETATM   16  C11 UNL     1      22.077   3.683  51.548  1.00  0.00     0.129 A 
HETATM   17  C12 UNL     1      20.707   3.641  51.712  1.00  0.00     0.108 A 
HETATM   18  C13 UNL     1      19.808   4.059  50.752  1.00  0.00     0.169 A 
HETATM   19  N2  UNL     1      20.359   4.526  49.615  1.00  0.00    -0.218 NA
HETATM   20  C18 UNL     1      21.674   4.596  49.388  1.00  0.00     0.238 A 
HETATM   21  N3  UNL     1      22.494   4.171  50.366  1.00  0.00    -0.225 NA
BRANCH  18  22
HETATM   22  O2  UNL     1      18.425   3.998  50.962  1.00  0.00    -0.331 OA
BRANCH  22  23
HETATM   23  C14 UNL     1      17.925   2.781  51.515  1.00  0.00     0.204 C 
BRANCH  23  24
HETATM   24  C15 UNL     1      17.914   1.671  50.555  1.00  0.00    -0.002 C 
HETATM   25  C16 UNL     1      18.659   0.597  50.618  1.00  0.00     0.002 C 
BRANCH  25  26
HETATM   26  C17 UNL     1      19.668   0.198  51.604  1.00  0.00     0.249 C 
HETATM   27  F2  UNL     1      20.882  -0.058  50.994  1.00  0.00    -0.251 F 
ENDBRANCH  25  26
ENDBRANCH  23  24
ENDBRANCH  22  23
ENDBRANCH  18  22
ENDBRANCH  14  16
ENDBRANCH  12  14
BRANCH   1  28
HETATM   28  O1  UNL     1      27.115   1.073  51.334  1.00  0.00    -0.358 OA
HETATM   29  H1  UNL     1      27.971   1.497  51.590  1.00  0.00     0.213 HD
ENDBRANCH   1  28
TORSDOF 7
ENDMDL
