MODEL 1
REMARK VINA RESULT:      -9.0      0.000      0.000
REMARK  8 active torsions:
REMARK  status: ('A' for Active; 'I' for Inactive)
REMARK    1  A    between atoms: C5_6  and  C6_7 
REMARK    2  A    between atoms: C6_7  and  O1_8 
REMARK    3  A    between atoms: O1_8  and  C7_9 
REMARK    4  A    between atoms: C10_12  and  N1_13 
REMARK    5  A    between atoms: C11_14  and  C12_16 
REMARK    6  A    between atoms: C12_16  and  C13_17 
REMARK    7  A    between atoms: C13_17  and  C14_18 
REMARK    8  A    between atoms: C14_18  and  C15_19 
ROOT
HETATM    1  N1  UNL     1      25.887   5.349  49.756  1.00  0.00    -0.346 N 
HETATM    2  C11 UNL     1      26.262   6.457  49.053  1.00  0.00     0.112 C 
HETATM    3 CL1  UNL     1      25.750   7.451  50.453  1.00  0.00    -0.064 Cl
HETATM    4  H8  UNL     1      25.142   5.287  49.012  1.00  0.00     0.167 HD
ENDROOT
BRANCH   1   5
HETATM    5  C10 UNL     1      25.491   4.227  50.446  1.00  0.00     0.033 A 
HETATM    6  C9  UNL     1      24.435   3.995  51.256  1.00  0.00     0.032 A 
HETATM    7  C8  UNL     1      24.269   2.803  51.903  1.00  0.00     0.039 A 
HETATM    8  C7  UNL     1      25.271   1.884  51.639  1.00  0.00     0.069 A 
HETATM    9  C23 UNL     1      26.382   2.034  50.848  1.00  0.00     0.039 A 
HETATM   10  C22 UNL     1      26.496   3.234  50.230  1.00  0.00     0.032 A 
BRANCH   8  11
HETATM   11  O1  UNL     1      25.110   0.628  52.277  1.00  0.00    -0.347 OA
BRANCH  11  12
HETATM   12  C6  UNL     1      25.612   0.442  53.592  1.00  0.00     0.214 C 
BRANCH  12  13
HETATM   13  C5  UNL     1      27.024   0.073  53.606  1.00  0.00    -0.031 A 
HETATM   14  C4  UNL     1      27.919   1.030  54.062  1.00  0.00     0.009 A 
HETATM   15  C3  UNL     1      29.285   0.819  54.134  1.00  0.00     0.004 A 
HETATM   16  C2  UNL     1      29.704  -0.421  53.732  1.00  0.00     0.042 A 
HETATM   17  C1  UNL     1      28.857  -1.430  53.268  1.00  0.00     0.117 A 
HETATM   18  F1  UNL     1      29.282  -2.652  52.879  1.00  0.00    -0.206 F 
HETATM   19  C24 UNL     1      27.492  -1.155  53.209  1.00  0.00     0.051 A 
ENDBRANCH  12  13
ENDBRANCH  11  12
ENDBRANCH   8  11
ENDBRANCH   1   5
BRANCH   2  20
HETATM   20  C12 UNL     1      26.814   6.963  47.987  1.00  0.00     0.107 C 
BRANCH  20  21
HETATM   21  C13 UNL     1      28.206   6.611  48.082  1.00  0.00    -0.068 C 
BRANCH  21  22
HETATM   22  C14 UNL     1      29.371   6.326  48.168  1.00  0.00    -0.037 C 
BRANCH  22  23
HETATM   23  C15 UNL     1      30.735   6.002  48.271  1.00  0.00     0.123 C 
HETATM   24  C16 UNL     1      31.696   6.818  48.735  1.00  0.00     0.048 C 
HETATM   25  C17 UNL     1      33.088   6.489  48.837  1.00  0.00     0.031 C 
HETATM   26  C18 UNL     1      33.454   5.278  48.449  1.00  0.00     0.035 C 
HETATM   27  N2  UNL     1      34.688   4.554  48.374  1.00  0.00    -0.391 N 
HETATM   28  C21 UNL     1      32.416   4.259  48.074  1.00  0.00     0.180 C 
HETATM   29  C19 UNL     1      34.459   3.224  47.736  1.00  0.00     0.122 C 
HETATM   30  H12 UNL     1      35.558   4.991  48.738  1.00  0.00     0.159 HD
HETATM   31  C20 UNL     1      33.154   3.559  46.951  1.00  0.00     0.058 C 
HETATM   32  O2  UNL     1      31.161   4.713  47.856  1.00  0.00    -0.331 OA
ENDBRANCH  22  23
ENDBRANCH  21  22
ENDBRANCH  20  21
ENDBRANCH   2  20
TORSDOF 8
ENDMDL
MODEL 2
REMARK VINA RESULT:      -8.7      2.921      7.675
REMARK  8 active torsions:
REMARK  status: ('A' for Active; 'I' for Inactive)
REMARK    1  A    between atoms: C5_6  and  C6_7 
REMARK    2  A    between atoms: C6_7  and  O1_8 
REMARK    3  A    between atoms: O1_8  and  C7_9 
REMARK    4  A    between atoms: C10_12  and  N1_13 
REMARK    5  A    between atoms: C11_14  and  C12_16 
REMARK    6  A    between atoms: C12_16  and  C13_17 
REMARK    7  A    between atoms: C13_17  and  C14_18 
REMARK    8  A    between atoms: C14_18  and  C15_19 
ROOT
HETATM    1  N1  UNL     1      24.954   5.468  50.461  1.00  0.00    -0.346 N 
HETATM    2  C11 UNL     1      23.851   5.118  51.185  1.00  0.00     0.112 C 
HETATM    3 CL1  UNL     1      22.846   5.930  49.944  1.00  0.00    -0.064 Cl
HETATM    4  H8  UNL     1      25.145   6.088  51.292  1.00  0.00     0.167 HD
ENDROOT
BRANCH   1   5
HETATM    5  C10 UNL     1      26.073   5.837  49.750  1.00  0.00     0.033 A 
HETATM    6  C9  UNL     1      26.526   7.043  49.348  1.00  0.00     0.032 A 
HETATM    7  C8  UNL     1      27.648   7.175  48.580  1.00  0.00     0.039 A 
HETATM    8  C7  UNL     1      28.255   5.967  48.275  1.00  0.00     0.069 A 
HETATM    9  C23 UNL     1      27.862   4.700  48.623  1.00  0.00     0.039 A 
HETATM   10  C22 UNL     1      26.745   4.630  49.386  1.00  0.00     0.032 A 
BRANCH   8  11
HETATM   11  O1  UNL     1      29.438   6.075  47.500  1.00  0.00    -0.347 OA
BRANCH  11  12
HETATM   12  C6  UNL     1      30.686   6.263  48.150  1.00  0.00     0.214 C 
BRANCH  12  13
HETATM   13  C5  UNL     1      31.659   5.232  47.804  1.00  0.00    -0.031 A 
HETATM   14  C4  UNL     1      31.213   4.190  47.002  1.00  0.00     0.009 A 
HETATM   15  C3  UNL     1      32.023   3.146  46.593  1.00  0.00     0.004 A 
HETATM   16  C2  UNL     1      33.321   3.212  47.026  1.00  0.00     0.042 A 
HETATM   17  C1  UNL     1      33.835   4.233  47.829  1.00  0.00     0.117 A 
HETATM   18  F1  UNL     1      35.119   4.289  48.246  1.00  0.00    -0.206 F 
HETATM   19  C24 UNL     1      32.968   5.252  48.218  1.00  0.00     0.051 A 
ENDBRANCH  12  13
ENDBRANCH  11  12
ENDBRANCH   8  11
ENDBRANCH   1   5
BRANCH   2  20
HETATM   20  C12 UNL     1      23.346   4.477  52.200  1.00  0.00     0.107 C 
BRANCH  20  21
HETATM   21  C13 UNL     1      24.216   3.347  52.400  1.00  0.00    -0.068 C 
BRANCH  21  22
HETATM   22  C14 UNL     1      24.940   2.405  52.579  1.00  0.00    -0.037 C 
BRANCH  22  23
HETATM   23  C15 UNL     1      25.780   1.297  52.788  1.00  0.00     0.123 C 
HETATM   24  C16 UNL     1      25.391   0.012  52.771  1.00  0.00     0.048 C 
HETATM   25  C17 UNL     1      26.247  -1.119  52.988  1.00  0.00     0.031 C 
HETATM   26  C18 UNL     1      27.527  -0.874  53.215  1.00  0.00     0.035 C 
HETATM   27  N2  UNL     1      28.691  -1.666  53.478  1.00  0.00    -0.391 N 
HETATM   28  C21 UNL     1      28.064   0.523  53.087  1.00  0.00     0.180 C 
HETATM   29  C19 UNL     1      29.858  -0.778  53.756  1.00  0.00     0.122 C 
HETATM   30  H12 UNL     1      28.618  -2.702  53.456  1.00  0.00     0.159 HD
HETATM   31  C20 UNL     1      29.083   0.498  54.208  1.00  0.00     0.058 C 
HETATM   32  O2  UNL     1      27.158   1.526  53.042  1.00  0.00    -0.331 OA
ENDBRANCH  22  23
ENDBRANCH  21  22
ENDBRANCH  20  21
ENDBRANCH   2  20
TORSDOF 8
ENDMDL
MODEL 3
REMARK VINA RESULT:      -8.7      4.457      8.691
REMARK  8 active torsions:
REMARK  status: ('A' for Active; 'I' for Inactive)
REMARK    1  A    between atoms: C5_6  and  C6_7 
REMARK    2  A    between atoms: C6_7  and  O1_8 
REMARK    3  A    between atoms: O1_8  and  C7_9 
REMARK    4  A    between atoms: C10_12  and  N1_13 
REMARK    5  A    between atoms: C11_14  and  C12_16 
REMARK    6  A    between atoms: C12_16  and  C13_17 
REMARK    7  A    between atoms: C13_17  and  C14_18 
REMARK    8  A    between atoms: C14_18  and  C15_19 
ROOT
HETATM    1  N1  UNL     1      22.954   4.284  48.952  1.00  0.00    -0.346 N 
HETATM    2  C11 UNL     1      21.722   4.568  48.438  1.00  0.00     0.112 C 
HETATM    3 CL1  UNL     1      22.536   5.512  47.152  1.00  0.00    -0.064 Cl
HETATM    4  H8  UNL     1      22.621   4.892  49.747  1.00  0.00     0.167 HD
ENDROOT
BRANCH   1   5
HETATM    5  C10 UNL     1      24.190   4.012  49.491  1.00  0.00     0.033 A 
HETATM    6  C9  UNL     1      25.432   4.412  49.143  1.00  0.00     0.032 A 
HETATM    7  C8  UNL     1      26.546   3.958  49.790  1.00  0.00     0.039 A 
HETATM    8  C7  UNL     1      26.267   3.072  50.818  1.00  0.00     0.069 A 
HETATM    9  C23 UNL     1      25.048   2.598  51.232  1.00  0.00     0.039 A 
HETATM   10  C22 UNL     1      23.979   3.083  50.557  1.00  0.00     0.032 A 
BRANCH   8  11
HETATM   11  O1  UNL     1      27.404   2.603  51.525  1.00  0.00    -0.347 OA
BRANCH  11  12
HETATM   12  C6  UNL     1      27.246   2.074  52.833  1.00  0.00     0.214 C 
BRANCH  12  13
HETATM   13  C5  UNL     1      27.815   0.737  52.968  1.00  0.00    -0.031 A 
HETATM   14  C4  UNL     1      29.088   0.649  53.514  1.00  0.00     0.009 A 
HETATM   15  C3  UNL     1      29.751  -0.551  53.705  1.00  0.00     0.004 A 
HETATM   16  C2  UNL     1      29.054  -1.667  53.327  1.00  0.00     0.042 A 
HETATM   17  C1  UNL     1      27.770  -1.649  52.778  1.00  0.00     0.117 A 
HETATM   18  F1  UNL     1      27.090  -2.759  52.413  1.00  0.00    -0.206 F 
HETATM   19  C24 UNL     1      27.157  -0.410  52.599  1.00  0.00     0.051 A 
ENDBRANCH  12  13
ENDBRANCH  11  12
ENDBRANCH   8  11
ENDBRANCH   1   5
BRANCH   2  20
HETATM   20  C12 UNL     1      20.433   4.385  48.477  1.00  0.00     0.107 C 
BRANCH  20  21
HETATM   21  C13 UNL     1      20.232   3.336  49.441  1.00  0.00    -0.068 C 
BRANCH  21  22
HETATM   22  C14 UNL     1      20.073   2.454  50.243  1.00  0.00    -0.037 C 
BRANCH  22  23
HETATM   23  C15 UNL     1      19.897   1.423  51.182  1.00  0.00     0.123 C 
HETATM   24  C16 UNL     1      18.753   0.752  51.395  1.00  0.00     0.048 C 
HETATM   25  C17 UNL     1      18.572  -0.298  52.356  1.00  0.00     0.031 C 
HETATM   26  C18 UNL     1      19.621  -0.638  53.086  1.00  0.00     0.035 C 
HETATM   27  N2  UNL     1      19.883  -1.589  54.125  1.00  0.00    -0.391 N 
HETATM   28  C21 UNL     1      20.970  -0.047  52.792  1.00  0.00     0.180 C 
HETATM   29  C19 UNL     1      21.276  -1.417  54.632  1.00  0.00     0.122 C 
HETATM   30  H12 UNL     1      19.135  -2.253  54.408  1.00  0.00     0.159 HD
HETATM   31  C20 UNL     1      21.503   0.066  54.205  1.00  0.00     0.058 C 
HETATM   32  O2  UNL     1      21.001   1.040  51.987  1.00  0.00    -0.331 OA
ENDBRANCH  22  23
ENDBRANCH  21  22
ENDBRANCH  20  21
ENDBRANCH   2  20
TORSDOF 8
ENDMDL
MODEL 4
REMARK VINA RESULT:      -8.6      5.851      8.700
REMARK  8 active torsions:
REMARK  status: ('A' for Active; 'I' for Inactive)
REMARK    1  A    between atoms: C5_6  and  C6_7 
REMARK    2  A    between atoms: C6_7  and  O1_8 
REMARK    3  A    between atoms: O1_8  and  C7_9 
REMARK    4  A    between atoms: C10_12  and  N1_13 
REMARK    5  A    between atoms: C11_14  and  C12_16 
REMARK    6  A    between atoms: C12_16  and  C13_17 
REMARK    7  A    between atoms: C13_17  and  C14_18 
REMARK    8  A    between atoms: C14_18  and  C15_19 
ROOT
HETATM    1  N1  UNL     1      24.664  -0.213  53.420  1.00  0.00    -0.346 N 
HETATM    2  C11 UNL     1      25.989  -0.053  53.134  1.00  0.00     0.112 C 
HETATM    3 CL1  UNL     1      26.320  -0.104  54.894  1.00  0.00    -0.064 Cl
HETATM    4  H8  UNL     1      24.598   0.773  53.052  1.00  0.00     0.167 HD
ENDROOT
BRANCH   1   5
HETATM    5  C10 UNL     1      23.324  -0.349  53.700  1.00  0.00     0.033 A 
HETATM    6  C9  UNL     1      22.663  -1.136  54.575  1.00  0.00     0.032 A 
HETATM    7  C8  UNL     1      21.299  -1.159  54.641  1.00  0.00     0.039 A 
HETATM    8  C7  UNL     1      20.687  -0.304  53.739  1.00  0.00     0.069 A 
HETATM    9  C23 UNL     1      21.270   0.517  52.808  1.00  0.00     0.039 A 
HETATM   10  C22 UNL     1      22.624   0.500  52.788  1.00  0.00     0.032 A 
BRANCH   8  11
HETATM   11  O1  UNL     1      19.270  -0.286  53.802  1.00  0.00    -0.347 OA
BRANCH  11  12
HETATM   12  C6  UNL     1      18.515  -0.474  52.615  1.00  0.00     0.214 C 
BRANCH  12  13
HETATM   13  C5  UNL     1      17.549  -1.563  52.733  1.00  0.00    -0.031 A 
HETATM   14  C4  UNL     1      16.346  -1.412  52.057  1.00  0.00     0.009 A 
HETATM   15  C3  UNL     1      15.341  -2.363  52.075  1.00  0.00     0.004 A 
HETATM   16  C2  UNL     1      15.616  -3.488  52.805  1.00  0.00     0.042 A 
HETATM   17  C1  UNL     1      16.806  -3.705  53.504  1.00  0.00     0.117 A 
HETATM   18  F1  UNL     1      17.068  -4.822  54.217  1.00  0.00    -0.206 F 
HETATM   19  C24 UNL     1      17.778  -2.707  53.457  1.00  0.00     0.051 A 
ENDBRANCH  12  13
ENDBRANCH  11  12
ENDBRANCH   8  11
ENDBRANCH   1   5
BRANCH   2  20
HETATM   20  C12 UNL     1      26.929   0.029  52.237  1.00  0.00     0.107 C 
BRANCH  20  21
HETATM   21  C13 UNL     1      26.706   1.287  51.574  1.00  0.00    -0.068 C 
BRANCH  21  22
HETATM   22  C14 UNL     1      26.509   2.337  51.022  1.00  0.00    -0.037 C 
BRANCH  22  23
HETATM   23  C15 UNL     1      26.278   3.560  50.369  1.00  0.00     0.123 C 
HETATM   24  C16 UNL     1      27.018   4.057  49.364  1.00  0.00     0.048 C 
HETATM   25  C17 UNL     1      26.786   5.307  48.699  1.00  0.00     0.031 C 
HETATM   26  C18 UNL     1      25.752   6.025  49.105  1.00  0.00     0.035 C 
HETATM   27  N2  UNL     1      25.172   7.284  48.744  1.00  0.00    -0.391 N 
HETATM   28  C21 UNL     1      24.786   5.460  50.108  1.00  0.00     0.180 C 
HETATM   29  C19 UNL     1      24.041   7.606  49.663  1.00  0.00     0.122 C 
HETATM   30  H12 UNL     1      25.567   7.815  47.943  1.00  0.00     0.159 HD
HETATM   31  C20 UNL     1      24.464   6.724  50.878  1.00  0.00     0.058 C 
HETATM   32  O2  UNL     1      25.180   4.358  50.785  1.00  0.00    -0.331 OA
ENDBRANCH  22  23
ENDBRANCH  21  22
ENDBRANCH  20  21
ENDBRANCH   2  20
TORSDOF 8
ENDMDL
MODEL 5
REMARK VINA RESULT:      -8.6      4.972     10.437
REMARK  8 active torsions:
REMARK  status: ('A' for Active; 'I' for Inactive)
REMARK    1  A    between atoms: C5_6  and  C6_7 
REMARK    2  A    between atoms: C6_7  and  O1_8 
REMARK    3  A    between atoms: O1_8  and  C7_9 
REMARK    4  A    between atoms: C10_12  and  N1_13 
REMARK    5  A    between atoms: C11_14  and  C12_16 
REMARK    6  A    between atoms: C12_16  and  C13_17 
REMARK    7  A    between atoms: C13_17  and  C14_18 
REMARK    8  A    between atoms: C14_18  and  C15_19 
ROOT
HETATM    1  N1  UNL     1      23.902  -0.176  53.817  1.00  0.00    -0.346 N 
HETATM    2  C11 UNL     1      23.020  -0.851  54.610  1.00  0.00     0.112 C 
HETATM    3 CL1  UNL     1      24.405  -1.349  55.631  1.00  0.00    -0.064 Cl
HETATM    4  H8  UNL     1      23.635  -0.915  53.113  1.00  0.00     0.167 HD
ENDROOT
BRANCH   1   5
HETATM    5  C10 UNL     1      24.785   0.488  52.997  1.00  0.00     0.033 A 
HETATM    6  C9  UNL     1      25.975   0.124  52.473  1.00  0.00     0.032 A 
HETATM    7  C8  UNL     1      26.729   0.983  51.726  1.00  0.00     0.039 A 
HETATM    8  C7  UNL     1      26.150   2.231  51.563  1.00  0.00     0.069 A 
HETATM    9  C23 UNL     1      24.961   2.694  52.066  1.00  0.00     0.039 A 
HETATM   10  C22 UNL     1      24.255   1.801  52.799  1.00  0.00     0.032 A 
BRANCH   8  11
HETATM   11  O1  UNL     1      26.900   3.136  50.769  1.00  0.00    -0.347 OA
BRANCH  11  12
HETATM   12  C6  UNL     1      26.522   3.360  49.419  1.00  0.00     0.214 C 
BRANCH  12  13
HETATM   13  C5  UNL     1      26.920   4.680  48.938  1.00  0.00    -0.031 A 
HETATM   14  C4  UNL     1      25.946   5.669  48.939  1.00  0.00     0.009 A 
HETATM   15  C3  UNL     1      26.180   6.965  48.514  1.00  0.00     0.004 A 
HETATM   16  C2  UNL     1      27.459   7.219  48.096  1.00  0.00     0.042 A 
HETATM   17  C1  UNL     1      28.486   6.272  48.075  1.00  0.00     0.117 A 
HETATM   18  F1  UNL     1      29.746   6.536  47.664  1.00  0.00    -0.206 F 
HETATM   19  C24 UNL     1      28.187   4.980  48.504  1.00  0.00     0.051 A 
ENDBRANCH  12  13
ENDBRANCH  11  12
ENDBRANCH   8  11
ENDBRANCH   1   5
BRANCH   2  20
HETATM   20  C12 UNL     1      21.785  -1.150  54.894  1.00  0.00     0.107 C 
BRANCH  20  21
HETATM   21  C13 UNL     1      21.011  -0.630  53.798  1.00  0.00    -0.068 C 
BRANCH  21  22
HETATM   22  C14 UNL     1      20.373  -0.196  52.876  1.00  0.00    -0.037 C 
BRANCH  22  23
HETATM   23  C15 UNL     1      19.622   0.304  51.799  1.00  0.00     0.123 C 
HETATM   24  C16 UNL     1      18.430  -0.166  51.396  1.00  0.00     0.048 C 
HETATM   25  C17 UNL     1      17.664   0.342  50.295  1.00  0.00     0.031 C 
HETATM   26  C18 UNL     1      18.171   1.364  49.626  1.00  0.00     0.035 C 
HETATM   27  N2  UNL     1      17.768   2.155  48.501  1.00  0.00    -0.391 N 
HETATM   28  C21 UNL     1      19.416   2.047  50.118  1.00  0.00     0.180 C 
HETATM   29  C19 UNL     1      18.846   3.126  48.151  1.00  0.00     0.122 C 
HETATM   30  H12 UNL     1      16.839   1.987  48.067  1.00  0.00     0.159 HD
HETATM   31  C20 UNL     1      20.058   2.377  48.786  1.00  0.00     0.058 C 
HETATM   32  O2  UNL     1      20.141   1.397  51.056  1.00  0.00    -0.331 OA
ENDBRANCH  22  23
ENDBRANCH  21  22
ENDBRANCH  20  21
ENDBRANCH   2  20
TORSDOF 8
ENDMDL
MODEL 6
REMARK VINA RESULT:      -8.5      5.108      8.233
REMARK  8 active torsions:
REMARK  status: ('A' for Active; 'I' for Inactive)
REMARK    1  A    between atoms: C5_6  and  C6_7 
REMARK    2  A    between atoms: C6_7  and  O1_8 
REMARK    3  A    between atoms: O1_8  and  C7_9 
REMARK    4  A    between atoms: C10_12  and  N1_13 
REMARK    5  A    between atoms: C11_14  and  C12_16 
REMARK    6  A    between atoms: C12_16  and  C13_17 
REMARK    7  A    between atoms: C13_17  and  C14_18 
REMARK    8  A    between atoms: C14_18  and  C15_19 
ROOT
HETATM    1  N1  UNL     1      20.980   0.199  52.596  1.00  0.00    -0.346 N 
HETATM    2  C11 UNL     1      21.038  -0.684  53.635  1.00  0.00     0.112 C 
HETATM    3 CL1  UNL     1      19.269  -0.913  53.467  1.00  0.00    -0.064 Cl
HETATM    4  H8  UNL     1      21.225   0.900  53.346  1.00  0.00     0.167 HD
ENDROOT
BRANCH   1   5
HETATM    5  C10 UNL     1      20.929   1.109  51.565  1.00  0.00     0.033 A 
HETATM    6  C9  UNL     1      20.681   0.961  50.247  1.00  0.00     0.032 A 
HETATM    7  C8  UNL     1      20.747   2.011  49.376  1.00  0.00     0.039 A 
HETATM    8  C7  UNL     1      21.082   3.212  49.981  1.00  0.00     0.069 A 
HETATM    9  C23 UNL     1      21.364   3.455  51.301  1.00  0.00     0.039 A 
HETATM   10  C22 UNL     1      21.281   2.379  52.118  1.00  0.00     0.032 A 
BRANCH   8  11
HETATM   11  O1  UNL     1      21.133   4.326  49.105  1.00  0.00    -0.347 OA
BRANCH  11  12
HETATM   12  C6  UNL     1      22.089   4.348  48.055  1.00  0.00     0.214 C 
BRANCH  12  13
HETATM   13  C5  UNL     1      23.451   4.541  48.542  1.00  0.00    -0.031 A 
HETATM   14  C4  UNL     1      23.947   5.837  48.522  1.00  0.00     0.009 A 
HETATM   15  C3  UNL     1      25.219   6.170  48.956  1.00  0.00     0.004 A 
HETATM   16  C2  UNL     1      25.966   5.123  49.426  1.00  0.00     0.042 A 
HETATM   17  C1  UNL     1      25.526   3.799  49.478  1.00  0.00     0.117 A 
HETATM   18  F1  UNL     1      26.272   2.775  49.949  1.00  0.00    -0.206 F 
HETATM   19  C24 UNL     1      24.240   3.523  49.018  1.00  0.00     0.051 A 
ENDBRANCH  12  13
ENDBRANCH  11  12
ENDBRANCH   8  11
ENDBRANCH   1   5
BRANCH   2  20
HETATM   20  C12 UNL     1      21.763  -1.350  54.488  1.00  0.00     0.107 C 
BRANCH  20  21
HETATM   21  C13 UNL     1      23.104  -0.864  54.301  1.00  0.00    -0.068 C 
BRANCH  21  22
HETATM   22  C14 UNL     1      24.228  -0.460  54.157  1.00  0.00    -0.037 C 
BRANCH  22  23
HETATM   23  C15 UNL     1      25.537   0.021  53.989  1.00  0.00     0.123 C 
HETATM   24  C16 UNL     1      25.872   1.298  53.742  1.00  0.00     0.048 C 
HETATM   25  C17 UNL     1      27.209   1.788  53.567  1.00  0.00     0.031 C 
HETATM   26  C18 UNL     1      28.193   0.911  53.666  1.00  0.00     0.035 C 
HETATM   27  N2  UNL     1      29.621   0.955  53.562  1.00  0.00    -0.391 N 
HETATM   28  C21 UNL     1      27.909  -0.499  54.102  1.00  0.00     0.180 C 
HETATM   29  C19 UNL     1      30.182  -0.423  53.676  1.00  0.00     0.122 C 
HETATM   30  H12 UNL     1      30.093   1.871  53.424  1.00  0.00     0.159 HD
HETATM   31  C20 UNL     1      28.920  -1.230  53.244  1.00  0.00     0.058 C 
HETATM   32  O2  UNL     1      26.616  -0.897  54.082  1.00  0.00    -0.331 OA
ENDBRANCH  22  23
ENDBRANCH  21  22
ENDBRANCH  20  21
ENDBRANCH   2  20
TORSDOF 8
ENDMDL
MODEL 7
REMARK VINA RESULT:      -8.4      5.436     10.920
REMARK  8 active torsions:
REMARK  status: ('A' for Active; 'I' for Inactive)
REMARK    1  A    between atoms: C5_6  and  C6_7 
REMARK    2  A    between atoms: C6_7  and  O1_8 
REMARK    3  A    between atoms: O1_8  and  C7_9 
REMARK    4  A    between atoms: C10_12  and  N1_13 
REMARK    5  A    between atoms: C11_14  and  C12_16 
REMARK    6  A    between atoms: C12_16  and  C13_17 
REMARK    7  A    between atoms: C13_17  and  C14_18 
REMARK    8  A    between atoms: C14_18  and  C15_19 
ROOT
HETATM    1  N1  UNL     1      23.828  -0.389  53.881  1.00  0.00    -0.346 N 
HETATM    2  C11 UNL     1      22.922  -1.063  54.647  1.00  0.00     0.112 C 
HETATM    3 CL1  UNL     1      24.233  -1.373  55.828  1.00  0.00    -0.064 Cl
HETATM    4  H8  UNL     1      23.681  -1.199  53.222  1.00  0.00     0.167 HD
ENDROOT
BRANCH   1   5
HETATM    5  C10 UNL     1      24.739   0.273  53.090  1.00  0.00     0.033 A 
HETATM    6  C9  UNL     1      25.953  -0.087  52.622  1.00  0.00     0.032 A 
HETATM    7  C8  UNL     1      26.731   0.769  51.895  1.00  0.00     0.039 A 
HETATM    8  C7  UNL     1      26.149   2.009  51.692  1.00  0.00     0.069 A 
HETATM    9  C23 UNL     1      24.935   2.468  52.138  1.00  0.00     0.039 A 
HETATM   10  C22 UNL     1      24.206   1.577  52.852  1.00  0.00     0.032 A 
BRANCH   8  11
HETATM   11  O1  UNL     1      26.923   2.910  50.917  1.00  0.00    -0.347 OA
BRANCH  11  12
HETATM   12  C6  UNL     1      26.558   3.165  49.569  1.00  0.00     0.214 C 
BRANCH  12  13
HETATM   13  C5  UNL     1      26.744   4.564  49.193  1.00  0.00    -0.031 A 
HETATM   14  C4  UNL     1      27.935   4.891  48.560  1.00  0.00     0.009 A 
HETATM   15  C3  UNL     1      28.246   6.174  48.145  1.00  0.00     0.004 A 
HETATM   16  C2  UNL     1      27.283   7.116  48.392  1.00  0.00     0.042 A 
HETATM   17  C1  UNL     1      26.063   6.852  49.019  1.00  0.00     0.117 A 
HETATM   18  F1  UNL     1      25.118   7.789  49.253  1.00  0.00    -0.206 F 
HETATM   19  C24 UNL     1      25.810   5.543  49.424  1.00  0.00     0.051 A 
ENDBRANCH  12  13
ENDBRANCH  11  12
ENDBRANCH   8  11
ENDBRANCH   1   5
BRANCH   2  20
HETATM   20  C12 UNL     1      21.688  -1.431  54.843  1.00  0.00     0.107 C 
BRANCH  20  21
HETATM   21  C13 UNL     1      20.947  -0.855  53.752  1.00  0.00    -0.068 C 
BRANCH  21  22
HETATM   22  C14 UNL     1      20.327  -0.364  52.845  1.00  0.00    -0.037 C 
BRANCH  22  23
HETATM   23  C15 UNL     1      19.607   0.218  51.788  1.00  0.00     0.123 C 
HETATM   24  C16 UNL     1      20.034   1.235  51.023  1.00  0.00     0.048 C 
HETATM   25  C17 UNL     1      19.298   1.832  49.946  1.00  0.00     0.031 C 
HETATM   26  C18 UNL     1      18.102   1.333  49.681  1.00  0.00     0.035 C 
HETATM   27  N2  UNL     1      17.061   1.611  48.737  1.00  0.00    -0.391 N 
HETATM   28  C21 UNL     1      17.628   0.093  50.384  1.00  0.00     0.180 C 
HETATM   29  C19 UNL     1      15.879   0.743  49.014  1.00  0.00     0.122 C 
HETATM   30  H12 UNL     1      17.213   2.338  48.010  1.00  0.00     0.159 HD
HETATM   31  C20 UNL     1      16.157   0.433  50.517  1.00  0.00     0.058 C 
HETATM   32  O2  UNL     1      18.317  -0.290  51.482  1.00  0.00    -0.331 OA
ENDBRANCH  22  23
ENDBRANCH  21  22
ENDBRANCH  20  21
ENDBRANCH   2  20
TORSDOF 8
ENDMDL
MODEL 8
REMARK VINA RESULT:      -8.3      8.112     13.254
REMARK  8 active torsions:
REMARK  status: ('A' for Active; 'I' for Inactive)
REMARK    1  A    between atoms: C5_6  and  C6_7 
REMARK    2  A    between atoms: C6_7  and  O1_8 
REMARK    3  A    between atoms: O1_8  and  C7_9 
REMARK    4  A    between atoms: C10_12  and  N1_13 
REMARK    5  A    between atoms: C11_14  and  C12_16 
REMARK    6  A    between atoms: C12_16  and  C13_17 
REMARK    7  A    between atoms: C13_17  and  C14_18 
REMARK    8  A    between atoms: C14_18  and  C15_19 
ROOT
HETATM    1  N1  UNL     1      19.685  -0.195  52.306  1.00  0.00    -0.346 N 
HETATM    2  C11 UNL     1      18.444  -0.093  51.747  1.00  0.00     0.112 C 
HETATM    3 CL1  UNL     1      17.805  -1.047  53.122  1.00  0.00    -0.064 Cl
HETATM    4  H8  UNL     1      19.877  -0.791  51.458  1.00  0.00     0.167 HD
ENDROOT
BRANCH   1   5
HETATM    5  C10 UNL     1      20.943  -0.312  52.850  1.00  0.00     0.033 A 
HETATM    6  C9  UNL     1      21.387  -0.930  53.965  1.00  0.00     0.032 A 
HETATM    7  C8  UNL     1      22.694  -0.862  54.358  1.00  0.00     0.039 A 
HETATM    8  C7  UNL     1      23.490  -0.116  53.506  1.00  0.00     0.069 A 
HETATM    9  C23 UNL     1      23.128   0.557  52.366  1.00  0.00     0.039 A 
HETATM   10  C22 UNL     1      21.822   0.454  52.024  1.00  0.00     0.032 A 
BRANCH   8  11
HETATM   11  O1  UNL     1      24.858  -0.049  53.874  1.00  0.00    -0.347 OA
BRANCH  11  12
HETATM   12  C6  UNL     1      25.820  -0.780  53.129  1.00  0.00     0.214 C 
BRANCH  12  13
HETATM   13  C5  UNL     1      27.181  -0.297  53.345  1.00  0.00    -0.031 A 
HETATM   14  C4  UNL     1      28.202  -1.233  53.250  1.00  0.00     0.009 A 
HETATM   15  C3  UNL     1      29.538  -0.918  53.427  1.00  0.00     0.004 A 
HETATM   16  C2  UNL     1      29.796   0.400  53.694  1.00  0.00     0.042 A 
HETATM   17  C1  UNL     1      28.817   1.391  53.797  1.00  0.00     0.117 A 
HETATM   18  F1  UNL     1      29.084   2.690  54.056  1.00  0.00    -0.206 F 
HETATM   19  C24 UNL     1      27.488   1.012  53.619  1.00  0.00     0.051 A 
ENDBRANCH  12  13
ENDBRANCH  11  12
ENDBRANCH   8  11
ENDBRANCH   1   5
BRANCH   2  20
HETATM   20  C12 UNL     1      17.684   0.404  50.813  1.00  0.00     0.107 C 
BRANCH  20  21
HETATM   21  C13 UNL     1      16.508   0.874  51.497  1.00  0.00    -0.068 C 
BRANCH  21  22
HETATM   22  C14 UNL     1      15.524   1.275  52.061  1.00  0.00    -0.037 C 
BRANCH  22  23
HETATM   23  C15 UNL     1      14.378   1.740  52.728  1.00  0.00     0.123 C 
HETATM   24  C16 UNL     1      13.986   3.022  52.800  1.00  0.00     0.048 C 
HETATM   25  C17 UNL     1      12.818   3.498  53.484  1.00  0.00     0.031 C 
HETATM   26  C18 UNL     1      12.061   2.597  54.086  1.00  0.00     0.035 C 
HETATM   27  N2  UNL     1      10.855   2.622  54.859  1.00  0.00    -0.391 N 
HETATM   28  C21 UNL     1      12.344   1.132  53.911  1.00  0.00     0.180 C 
HETATM   29  C19 UNL     1      10.544   1.251  55.360  1.00  0.00     0.122 C 
HETATM   30  H12 UNL     1      10.354   3.522  54.992  1.00  0.00     0.159 HD
HETATM   31  C20 UNL     1      11.979   0.643  55.298  1.00  0.00     0.058 C 
HETATM   32  O2  UNL     1      13.547   0.798  53.391  1.00  0.00    -0.331 OA
ENDBRANCH  22  23
ENDBRANCH  21  22
ENDBRANCH  20  21
ENDBRANCH   2  20
TORSDOF 8
ENDMDL
MODEL 9
REMARK VINA RESULT:      -8.3      1.601      2.118
REMARK  8 active torsions:
REMARK  status: ('A' for Active; 'I' for Inactive)
REMARK    1  A    between atoms: C5_6  and  C6_7 
REMARK    2  A    between atoms: C6_7  and  O1_8 
REMARK    3  A    between atoms: O1_8  and  C7_9 
REMARK    4  A    between atoms: C10_12  and  N1_13 
REMARK    5  A    between atoms: C11_14  and  C12_16 
REMARK    6  A    between atoms: C12_16  and  C13_17 
REMARK    7  A    between atoms: C13_17  and  C14_18 
REMARK    8  A    between atoms: C14_18  and  C15_19 
ROOT
HETATM    1  N1  UNL     1      24.720   5.554  49.265  1.00  0.00    -0.346 N 
HETATM    2  C11 UNL     1      24.707   6.505  48.286  1.00  0.00     0.112 C 
HETATM    3 CL1  UNL     1      23.060   5.952  47.848  1.00  0.00    -0.064 Cl
HETATM    4  H8  UNL     1      25.465   5.121  48.656  1.00  0.00     0.167 HD
ENDROOT
BRANCH   1   5
HETATM    5  C10 UNL     1      24.753   4.583  50.239  1.00  0.00     0.033 A 
HETATM    6  C9  UNL     1      23.958   4.351  51.305  1.00  0.00     0.032 A 
HETATM    7  C8  UNL     1      24.218   3.350  52.197  1.00  0.00     0.039 A 
HETATM    8  C7  UNL     1      25.353   2.617  51.891  1.00  0.00     0.069 A 
HETATM    9  C23 UNL     1      26.225   2.786  50.846  1.00  0.00     0.039 A 
HETATM   10  C22 UNL     1      25.917   3.792  49.993  1.00  0.00     0.032 A 
BRANCH   8  11
HETATM   11  O1  UNL     1      25.634   1.553  52.787  1.00  0.00    -0.347 OA
BRANCH  11  12
HETATM   12  C6  UNL     1      26.022   0.289  52.271  1.00  0.00     0.214 C 
BRANCH  12  13
HETATM   13  C5  UNL     1      27.318  -0.150  52.781  1.00  0.00    -0.031 A 
HETATM   14  C4  UNL     1      28.187   0.839  53.222  1.00  0.00     0.009 A 
HETATM   15  C3  UNL     1      29.445   0.572  53.733  1.00  0.00     0.004 A 
HETATM   16  C2  UNL     1      29.781  -0.755  53.788  1.00  0.00     0.042 A 
HETATM   17  C1  UNL     1      28.953  -1.798  53.366  1.00  0.00     0.117 A 
HETATM   18  F1  UNL     1      29.294  -3.104  53.430  1.00  0.00    -0.206 F 
HETATM   19  C24 UNL     1      27.702  -1.466  52.851  1.00  0.00     0.051 A 
ENDBRANCH  12  13
ENDBRANCH  11  12
ENDBRANCH   8  11
ENDBRANCH   1   5
BRANCH   2  20
HETATM   20  C12 UNL     1      25.293   7.515  47.710  1.00  0.00     0.107 C 
BRANCH  20  21
HETATM   21  C13 UNL     1      26.702   7.235  47.805  1.00  0.00    -0.068 C 
BRANCH  21  22
HETATM   22  C14 UNL     1      27.877   6.991  47.880  1.00  0.00    -0.037 C 
BRANCH  22  23
HETATM   23  C15 UNL     1      29.252   6.714  47.965  1.00  0.00     0.123 C 
HETATM   24  C16 UNL     1      29.805   5.492  47.908  1.00  0.00     0.048 C 
HETATM   25  C17 UNL     1      31.208   5.208  47.998  1.00  0.00     0.031 C 
HETATM   26  C18 UNL     1      32.026   6.238  48.141  1.00  0.00     0.035 C 
HETATM   27  N2  UNL     1      33.441   6.413  48.271  1.00  0.00    -0.391 N 
HETATM   28  C21 UNL     1      31.497   7.641  48.048  1.00  0.00     0.180 C 
HETATM   29  C19 UNL     1      33.756   7.853  48.508  1.00  0.00     0.122 C 
HETATM   30  H12 UNL     1      34.066   5.586  48.200  1.00  0.00     0.159 HD
HETATM   31  C20 UNL     1      32.379   8.305  49.085  1.00  0.00     0.058 C 
HETATM   32  O2  UNL     1      30.156   7.797  48.126  1.00  0.00    -0.331 OA
ENDBRANCH  22  23
ENDBRANCH  21  22
ENDBRANCH  20  21
ENDBRANCH   2  20
TORSDOF 8
ENDMDL
