MODEL 1
REMARK VINA RESULT:      -7.6      0.000      0.000
REMARK  9 active torsions:
REMARK  status: ('A' for Active; 'I' for Inactive)
REMARK    1  A    between atoms: S1_2  and  C2_3 
REMARK    2  A    between atoms: S1_2  and  C15_20 
REMARK    3  A    between atoms: C2_3  and  N1_4 
REMARK    4  A    between atoms: C3_5  and  C4_6 
REMARK    5  A    between atoms: C5_8  and  C6_9 
REMARK    6  A    between atoms: C13_17  and  C14_18 
REMARK    7  A    between atoms: C14_18  and  N3_19 
REMARK    8  A    between atoms: C15_20  and  O1_21 
REMARK    9  A    between atoms: C15_20  and  O2_22 
ROOT
HETATM    1  C4  UNL     1      23.094  -0.172  53.418  1.00  0.00     0.086 A 
HETATM    2  N2  UNL     1      21.992  -0.039  52.738  1.00  0.00    -0.246 NA
HETATM    3  C5  UNL     1      20.918  -0.649  53.406  1.00  0.00     0.068 A 
HETATM    4  C12 UNL     1      21.288  -1.212  54.569  1.00  0.00     0.047 A 
HETATM    5  C13 UNL     1      22.706  -0.916  54.605  1.00  0.00     0.011 A 
ENDROOT
BRANCH   1   6
HETATM    6  C3  UNL     1      24.417   0.324  53.054  1.00  0.00     0.143 C 
HETATM    7  N1  UNL     1      25.414  -0.434  52.749  1.00  0.00    -0.290 NA
BRANCH   7   8
HETATM    8  C2  UNL     1      26.687   0.124  52.401  1.00  0.00     0.222 C 
BRANCH   8   9
HETATM    9  S1  UNL     1      28.060  -0.662  53.317  1.00  0.00    -0.111 SA
HETATM   10  C1  UNL     1      29.549   0.342  53.653  1.00  0.00     0.091 C 
BRANCH   9  11
HETATM   11  C15 UNL     1      28.283  -2.276  53.223  1.00  0.00     0.165 C 
BRANCH  11  12
HETATM   12  O1  UNL     1      27.332  -2.841  52.379  1.00  0.00    -0.771 OA
HETATM   13  H15 UNL     1      27.517  -3.800  52.101  1.00  0.00     0.168 HD
ENDBRANCH  11  12
BRANCH  11  14
HETATM   14  O2  UNL     1      28.767  -3.564  53.387  1.00  0.00    -0.771 OA
HETATM   15  H16 UNL     1      28.438  -4.080  54.199  1.00  0.00     0.168 HD
ENDBRANCH  11  14
ENDBRANCH   9  11
ENDBRANCH   8   9
ENDBRANCH   7   8
ENDBRANCH   1   6
BRANCH   5  16
HETATM   16  C14 UNL     1      23.474  -1.301  55.607  1.00  0.00     0.094 C 
BRANCH  16  17
HETATM   17  N3  UNL     1      24.824  -1.533  55.876  1.00  0.00    -0.407 N 
HETATM   18  H13 UNL     1      25.242  -2.420  56.284  1.00  0.00     0.155 HD
HETATM   19  H14 UNL     1      25.630  -0.900  55.729  1.00  0.00     0.155 HD
ENDBRANCH  16  17
ENDBRANCH   5  16
BRANCH   3  20
HETATM   20  C6  UNL     1      19.517  -0.699  52.931  1.00  0.00    -0.006 A 
HETATM   21  C7  UNL     1      18.607  -1.505  53.548  1.00  0.00     0.014 A 
HETATM   22  C8  UNL     1      17.302  -1.515  53.062  1.00  0.00     0.002 A 
HETATM   23  C9  UNL     1      16.928  -0.746  52.000  1.00  0.00     0.019 A 
HETATM   24  C10 UNL     1      17.848   0.080  51.365  1.00  0.00     0.011 A 
HETATM   25 BR1  UNL     1      17.306   1.148  49.882  1.00  0.00    -0.051 Br
HETATM   26  C11 UNL     1      19.135   0.079  51.856  1.00  0.00     0.032 A 
ENDBRANCH   3  20
TORSDOF 9
ENDMDL
MODEL 2
REMARK VINA RESULT:      -7.6      2.386      3.012
REMARK  9 active torsions:
REMARK  status: ('A' for Active; 'I' for Inactive)
REMARK    1  A    between atoms: S1_2  and  C2_3 
REMARK    2  A    between atoms: S1_2  and  C15_20 
REMARK    3  A    between atoms: C2_3  and  N1_4 
REMARK    4  A    between atoms: C3_5  and  C4_6 
REMARK    5  A    between atoms: C5_8  and  C6_9 
REMARK    6  A    between atoms: C13_17  and  C14_18 
REMARK    7  A    between atoms: C14_18  and  N3_19 
REMARK    8  A    between atoms: C15_20  and  O1_21 
REMARK    9  A    between atoms: C15_20  and  O2_22 
ROOT
HETATM    1  C4  UNL     1      23.670   0.197  53.213  1.00  0.00     0.086 A 
HETATM    2  N2  UNL     1      22.556  -0.477  53.245  1.00  0.00    -0.246 NA
HETATM    3  C5  UNL     1      21.502   0.279  52.708  1.00  0.00     0.068 A 
HETATM    4  C12 UNL     1      21.897   1.496  52.297  1.00  0.00     0.047 A 
HETATM    5  C13 UNL     1      23.311   1.471  52.614  1.00  0.00     0.011 A 
ENDROOT
BRANCH   1   6
HETATM    6  C3  UNL     1      24.979  -0.248  53.678  1.00  0.00     0.143 C 
HETATM    7  N1  UNL     1      25.725   0.426  54.485  1.00  0.00    -0.290 NA
BRANCH   7   8
HETATM    8  C2  UNL     1      27.003  -0.073  54.902  1.00  0.00     0.222 C 
BRANCH   8   9
HETATM    9  S1  UNL     1      28.341   0.407  53.752  1.00  0.00    -0.111 SA
HETATM   10  C1  UNL     1      29.786  -0.701  53.613  1.00  0.00     0.091 C 
BRANCH   9  11
HETATM   11  C15 UNL     1      28.603   1.983  53.422  1.00  0.00     0.165 C 
BRANCH  11  12
HETATM   12  O1  UNL     1      27.749   2.779  54.177  1.00  0.00    -0.771 OA
HETATM   13  H15 UNL     1      28.208   3.456  54.778  1.00  0.00     0.168 HD
ENDBRANCH  11  12
BRANCH  11  14
HETATM   14  O2  UNL     1      29.095   3.169  52.901  1.00  0.00    -0.771 OA
HETATM   15  H16 UNL     1      29.032   3.994  53.492  1.00  0.00     0.168 HD
ENDBRANCH  11  14
ENDBRANCH   9  11
ENDBRANCH   8   9
ENDBRANCH   7   8
ENDBRANCH   1   6
BRANCH   5  16
HETATM   16  C14 UNL     1      24.100   2.500  52.366  1.00  0.00     0.094 C 
BRANCH  16  17
HETATM   17  N3  UNL     1      25.040   3.294  53.024  1.00  0.00    -0.407 N 
HETATM   18  H13 UNL     1      26.057   3.428  52.746  1.00  0.00     0.155 HD
HETATM   19  H14 UNL     1      24.916   3.875  53.872  1.00  0.00     0.155 HD
ENDBRANCH  16  17
ENDBRANCH   5  16
BRANCH   3  20
HETATM   20  C6  UNL     1      20.094  -0.162  52.583  1.00  0.00    -0.006 A 
HETATM   21  C7  UNL     1      19.536  -0.968  53.531  1.00  0.00     0.014 A 
HETATM   22  C8  UNL     1      18.209  -1.355  53.367  1.00  0.00     0.002 A 
HETATM   23  C9  UNL     1      17.473  -0.948  52.294  1.00  0.00     0.019 A 
HETATM   24  C10 UNL     1      18.032  -0.126  51.322  1.00  0.00     0.011 A 
HETATM   25 BR1  UNL     1      16.987   0.433  49.829  1.00  0.00    -0.051 Br
HETATM   26  C11 UNL     1      19.346   0.248  51.498  1.00  0.00     0.032 A 
ENDBRANCH   3  20
TORSDOF 9
ENDMDL
MODEL 3
REMARK VINA RESULT:      -7.3      6.984      8.758
REMARK  9 active torsions:
REMARK  status: ('A' for Active; 'I' for Inactive)
REMARK    1  A    between atoms: S1_2  and  C2_3 
REMARK    2  A    between atoms: S1_2  and  C15_20 
REMARK    3  A    between atoms: C2_3  and  N1_4 
REMARK    4  A    between atoms: C3_5  and  C4_6 
REMARK    5  A    between atoms: C5_8  and  C6_9 
REMARK    6  A    between atoms: C13_17  and  C14_18 
REMARK    7  A    between atoms: C14_18  and  N3_19 
REMARK    8  A    between atoms: C15_20  and  O1_21 
REMARK    9  A    between atoms: C15_20  and  O2_22 
ROOT
HETATM    1  C4  UNL     1      25.223   4.761  50.270  1.00  0.00     0.086 A 
HETATM    2  N2  UNL     1      24.653   3.912  51.075  1.00  0.00    -0.246 NA
HETATM    3  C5  UNL     1      25.389   2.718  51.141  1.00  0.00     0.068 A 
HETATM    4  C12 UNL     1      26.486   2.745  50.366  1.00  0.00     0.047 A 
HETATM    5  C13 UNL     1      26.405   4.070  49.784  1.00  0.00     0.011 A 
ENDROOT
BRANCH   1   6
HETATM    6  C3  UNL     1      24.762   6.106  49.941  1.00  0.00     0.143 C 
HETATM    7  N1  UNL     1      25.418   7.181  50.216  1.00  0.00    -0.290 NA
BRANCH   7   8
HETATM    8  C2  UNL     1      24.903   8.471  49.863  1.00  0.00     0.222 C 
BRANCH   8   9
HETATM    9  S1  UNL     1      26.214   9.600  49.271  1.00  0.00    -0.111 SA
HETATM   10  C1  UNL     1      26.103  10.213  47.554  1.00  0.00     0.091 C 
BRANCH   9  11
HETATM   11  C15 UNL     1      27.713   9.513  49.912  1.00  0.00     0.165 C 
BRANCH  11  12
HETATM   12  O1  UNL     1      27.636   9.451  51.300  1.00  0.00    -0.771 OA
HETATM   13  H15 UNL     1      27.394  10.324  51.758  1.00  0.00     0.168 HD
ENDBRANCH  11  12
BRANCH  11  14
HETATM   14  O2  UNL     1      29.087   9.452  50.078  1.00  0.00    -0.771 OA
HETATM   15  H16 UNL     1      29.543  10.281  50.450  1.00  0.00     0.168 HD
ENDBRANCH  11  14
ENDBRANCH   9  11
ENDBRANCH   8   9
ENDBRANCH   7   8
ENDBRANCH   1   6
BRANCH   5  16
HETATM   16  C14 UNL     1      27.315   4.518  48.937  1.00  0.00     0.094 C 
BRANCH  16  17
HETATM   17  N3  UNL     1      28.145   5.626  48.766  1.00  0.00    -0.407 N 
HETATM   18  H13 UNL     1      27.843   6.644  48.764  1.00  0.00     0.155 HD
HETATM   19  H14 UNL     1      29.169   5.649  48.616  1.00  0.00     0.155 HD
ENDBRANCH  16  17
ENDBRANCH   5  16
BRANCH   3  20
HETATM   20  C6  UNL     1      25.042   1.529  51.953  1.00  0.00    -0.006 A 
HETATM   21  C7  UNL     1      25.978   0.570  52.207  1.00  0.00     0.014 A 
HETATM   22  C8  UNL     1      25.601  -0.528  52.975  1.00  0.00     0.002 A 
HETATM   23  C9  UNL     1      24.337  -0.656  53.469  1.00  0.00     0.019 A 
HETATM   24  C10 UNL     1      23.377   0.316  53.217  1.00  0.00     0.011 A 
HETATM   25 BR1  UNL     1      21.614   0.121  53.917  1.00  0.00    -0.051 Br
HETATM   26  C11 UNL     1      23.764   1.397  52.454  1.00  0.00     0.032 A 
ENDBRANCH   3  20
TORSDOF 9
ENDMDL
MODEL 4
REMARK VINA RESULT:      -7.1      6.630      8.505
REMARK  9 active torsions:
REMARK  status: ('A' for Active; 'I' for Inactive)
REMARK    1  A    between atoms: S1_2  and  C2_3 
REMARK    2  A    between atoms: S1_2  and  C15_20 
REMARK    3  A    between atoms: C2_3  and  N1_4 
REMARK    4  A    between atoms: C3_5  and  C4_6 
REMARK    5  A    between atoms: C5_8  and  C6_9 
REMARK    6  A    between atoms: C13_17  and  C14_18 
REMARK    7  A    between atoms: C14_18  and  N3_19 
REMARK    8  A    between atoms: C15_20  and  O1_21 
REMARK    9  A    between atoms: C15_20  and  O2_22 
ROOT
HETATM    1  C4  UNL     1      26.008   3.709  49.768  1.00  0.00     0.086 A 
HETATM    2  N2  UNL     1      26.364   2.815  50.646  1.00  0.00    -0.246 NA
HETATM    3  C5  UNL     1      25.239   2.174  51.188  1.00  0.00     0.068 A 
HETATM    4  C12 UNL     1      24.086   2.633  50.674  1.00  0.00     0.047 A 
HETATM    5  C13 UNL     1      24.557   3.638  49.741  1.00  0.00     0.011 A 
ENDROOT
BRANCH   1   6
HETATM    6  C3  UNL     1      26.886   4.578  48.992  1.00  0.00     0.143 C 
HETATM    7  N1  UNL     1      26.793   5.863  48.970  1.00  0.00    -0.290 NA
BRANCH   7   8
HETATM    8  C2  UNL     1      27.692   6.656  48.183  1.00  0.00     0.222 C 
BRANCH   8   9
HETATM    9  S1  UNL     1      27.488   8.446  48.494  1.00  0.00    -0.111 SA
HETATM   10  C1  UNL     1      28.122   9.609  47.236  1.00  0.00     0.091 C 
BRANCH   9  11
HETATM   11  C15 UNL     1      27.421   9.003  50.026  1.00  0.00     0.165 C 
BRANCH  11  12
HETATM   12  O1  UNL     1      26.638   8.160  50.808  1.00  0.00    -0.771 OA
HETATM   13  H15 UNL     1      26.101   7.469  50.293  1.00  0.00     0.168 HD
ENDBRANCH  11  12
BRANCH  11  14
HETATM   14  O2  UNL     1      27.595   9.755  51.177  1.00  0.00    -0.771 OA
HETATM   15  H16 UNL     1      26.949   9.582  51.943  1.00  0.00     0.168 HD
ENDBRANCH  11  14
ENDBRANCH   9  11
ENDBRANCH   8   9
ENDBRANCH   7   8
ENDBRANCH   1   6
BRANCH   5  16
HETATM   16  C14 UNL     1      23.724   4.351  49.005  1.00  0.00     0.094 C 
BRANCH  16  17
HETATM   17  N3  UNL     1      23.694   5.568  48.322  1.00  0.00    -0.407 N 
HETATM   18  H13 UNL     1      23.864   5.712  47.284  1.00  0.00     0.155 HD
HETATM   19  H14 UNL     1      23.506   6.515  48.697  1.00  0.00     0.155 HD
ENDBRANCH  16  17
ENDBRANCH   5  16
BRANCH   3  20
HETATM   20  C6  UNL     1      25.260   1.105  52.213  1.00  0.00    -0.006 A 
HETATM   21  C7  UNL     1      26.442   0.552  52.610  1.00  0.00     0.014 A 
HETATM   22  C8  UNL     1      26.407  -0.448  53.576  1.00  0.00     0.002 A 
HETATM   23  C9  UNL     1      25.233  -0.876  54.122  1.00  0.00     0.019 A 
HETATM   24  C10 UNL     1      24.023  -0.318  53.726  1.00  0.00     0.011 A 
HETATM   25 BR1  UNL     1      22.392  -0.927  54.500  1.00  0.00    -0.051 Br
HETATM   26  C11 UNL     1      24.073   0.672  52.767  1.00  0.00     0.032 A 
ENDBRANCH   3  20
TORSDOF 9
ENDMDL
MODEL 5
REMARK VINA RESULT:      -7.1      6.511      8.596
REMARK  9 active torsions:
REMARK  status: ('A' for Active; 'I' for Inactive)
REMARK    1  A    between atoms: S1_2  and  C2_3 
REMARK    2  A    between atoms: S1_2  and  C15_20 
REMARK    3  A    between atoms: C2_3  and  N1_4 
REMARK    4  A    between atoms: C3_5  and  C4_6 
REMARK    5  A    between atoms: C5_8  and  C6_9 
REMARK    6  A    between atoms: C13_17  and  C14_18 
REMARK    7  A    between atoms: C14_18  and  N3_19 
REMARK    8  A    between atoms: C15_20  and  O1_21 
REMARK    9  A    between atoms: C15_20  and  O2_22 
ROOT
HETATM    1  C4  UNL     1      26.469   4.194  49.507  1.00  0.00     0.086 A 
HETATM    2  N2  UNL     1      26.931   3.270  50.300  1.00  0.00    -0.246 NA
HETATM    3  C5  UNL     1      25.880   2.555  50.896  1.00  0.00     0.068 A 
HETATM    4  C12 UNL     1      24.672   2.993  50.506  1.00  0.00     0.047 A 
HETATM    5  C13 UNL     1      25.024   4.065  49.596  1.00  0.00     0.011 A 
ENDROOT
BRANCH   1   6
HETATM    6  C3  UNL     1      27.246   5.139  48.712  1.00  0.00     0.143 C 
HETATM    7  N1  UNL     1      28.530   5.109  48.607  1.00  0.00    -0.290 NA
BRANCH   7   8
HETATM    8  C2  UNL     1      29.229   6.071  47.807  1.00  0.00     0.222 C 
BRANCH   8   9
HETATM    9  S1  UNL     1      30.578   6.890  48.730  1.00  0.00    -0.111 SA
HETATM   10  C1  UNL     1      30.999   8.610  48.283  1.00  0.00     0.091 C 
BRANCH   9  11
HETATM   11  C15 UNL     1      31.781   5.995  49.375  1.00  0.00     0.165 C 
BRANCH  11  12
HETATM   12  O1  UNL     1      31.333   5.346  50.520  1.00  0.00    -0.771 OA
HETATM   13  H15 UNL     1      31.449   5.867  51.385  1.00  0.00     0.168 HD
ENDBRANCH  11  12
BRANCH  11  14
HETATM   14  O2  UNL     1      32.999   5.380  49.615  1.00  0.00    -0.771 OA
HETATM   15  H16 UNL     1      33.640   5.303  48.829  1.00  0.00     0.168 HD
ENDBRANCH  11  14
ENDBRANCH   9  11
ENDBRANCH   8   9
ENDBRANCH   7   8
ENDBRANCH   1   6
BRANCH   5  16
HETATM   16  C14 UNL     1      24.107   4.782  48.973  1.00  0.00     0.094 C 
BRANCH  16  17
HETATM   17  N3  UNL     1      22.724   4.965  48.979  1.00  0.00    -0.407 N 
HETATM   18  H13 UNL     1      21.990   4.231  48.753  1.00  0.00     0.155 HD
HETATM   19  H14 UNL     1      22.186   5.822  49.199  1.00  0.00     0.155 HD
ENDBRANCH  16  17
ENDBRANCH   5  16
BRANCH   3  20
HETATM   20  C6  UNL     1      26.027   1.434  51.853  1.00  0.00    -0.006 A 
HETATM   21  C7  UNL     1      24.925   0.805  52.353  1.00  0.00     0.014 A 
HETATM   22  C8  UNL     1      25.118  -0.242  53.250  1.00  0.00     0.002 A 
HETATM   23  C9  UNL     1      26.366  -0.640  53.629  1.00  0.00     0.019 A 
HETATM   24  C10 UNL     1      27.495  -0.005  53.124  1.00  0.00     0.011 A 
HETATM   25 BR1  UNL     1      29.232  -0.576  53.664  1.00  0.00    -0.051 Br
HETATM   26  C11 UNL     1      27.289   1.030  52.237  1.00  0.00     0.032 A 
ENDBRANCH   3  20
TORSDOF 9
ENDMDL
MODEL 6
REMARK VINA RESULT:      -7.0      6.982      8.851
REMARK  9 active torsions:
REMARK  status: ('A' for Active; 'I' for Inactive)
REMARK    1  A    between atoms: S1_2  and  C2_3 
REMARK    2  A    between atoms: S1_2  and  C15_20 
REMARK    3  A    between atoms: C2_3  and  N1_4 
REMARK    4  A    between atoms: C3_5  and  C4_6 
REMARK    5  A    between atoms: C5_8  and  C6_9 
REMARK    6  A    between atoms: C13_17  and  C14_18 
REMARK    7  A    between atoms: C14_18  and  N3_19 
REMARK    8  A    between atoms: C15_20  and  O1_21 
REMARK    9  A    between atoms: C15_20  and  O2_22 
ROOT
HETATM    1  C4  UNL     1      25.528   4.264  50.214  1.00  0.00     0.086 A 
HETATM    2  N2  UNL     1      26.044   3.114  50.539  1.00  0.00    -0.246 NA
HETATM    3  C5  UNL     1      25.380   2.567  51.649  1.00  0.00     0.068 A 
HETATM    4  C12 UNL     1      24.388   3.354  52.096  1.00  0.00     0.047 A 
HETATM    5  C13 UNL     1      24.459   4.472  51.176  1.00  0.00     0.011 A 
ENDROOT
BRANCH   1   6
HETATM    6  C3  UNL     1      25.943   5.136  49.120  1.00  0.00     0.143 C 
HETATM    7  N1  UNL     1      27.035   5.820  49.117  1.00  0.00    -0.290 NA
BRANCH   7   8
HETATM    8  C2  UNL     1      27.380   6.657  48.006  1.00  0.00     0.222 C 
BRANCH   8   9
HETATM    9  S1  UNL     1      27.280   8.435  48.422  1.00  0.00    -0.111 SA
HETATM   10  C1  UNL     1      27.841   9.639  47.169  1.00  0.00     0.091 C 
BRANCH   9  11
HETATM   11  C15 UNL     1      27.380   8.912  49.980  1.00  0.00     0.165 C 
BRANCH  11  12
HETATM   12  O1  UNL     1      26.546   8.132  50.774  1.00  0.00    -0.771 OA
HETATM   13  H15 UNL     1      25.627   8.525  50.951  1.00  0.00     0.168 HD
ENDBRANCH  11  12
BRANCH  11  14
HETATM   14  O2  UNL     1      27.720   9.573  51.149  1.00  0.00    -0.771 OA
HETATM   15  H16 UNL     1      27.707   9.028  52.007  1.00  0.00     0.168 HD
ENDBRANCH  11  14
ENDBRANCH   9  11
ENDBRANCH   8   9
ENDBRANCH   7   8
ENDBRANCH   1   6
BRANCH   5  16
HETATM   16  C14 UNL     1      23.636   5.501  51.263  1.00  0.00     0.094 C 
BRANCH  16  17
HETATM   17  N3  UNL     1      23.685   6.877  51.488  1.00  0.00    -0.407 N 
HETATM   18  H13 UNL     1      23.985   7.359  52.385  1.00  0.00     0.155 HD
HETATM   19  H14 UNL     1      23.445   7.647  50.838  1.00  0.00     0.155 HD
ENDBRANCH  16  17
ENDBRANCH   5  16
BRANCH   3  20
HETATM   20  C6  UNL     1      25.696   1.273  52.296  1.00  0.00    -0.006 A 
HETATM   21  C7  UNL     1      24.694   0.425  52.668  1.00  0.00     0.014 A 
HETATM   22  C8  UNL     1      25.044  -0.779  53.273  1.00  0.00     0.002 A 
HETATM   23  C9  UNL     1      26.346  -1.117  53.495  1.00  0.00     0.019 A 
HETATM   24  C10 UNL     1      27.374  -0.260  53.119  1.00  0.00     0.011 A 
HETATM   25 BR1  UNL     1      29.188  -0.749  53.437  1.00  0.00    -0.051 Br
HETATM   26  C11 UNL     1      27.013   0.928  52.522  1.00  0.00     0.032 A 
ENDBRANCH   3  20
TORSDOF 9
ENDMDL
MODEL 7
REMARK VINA RESULT:      -7.0      4.983      8.337
REMARK  9 active torsions:
REMARK  status: ('A' for Active; 'I' for Inactive)
REMARK    1  A    between atoms: S1_2  and  C2_3 
REMARK    2  A    between atoms: S1_2  and  C15_20 
REMARK    3  A    between atoms: C2_3  and  N1_4 
REMARK    4  A    between atoms: C3_5  and  C4_6 
REMARK    5  A    between atoms: C5_8  and  C6_9 
REMARK    6  A    between atoms: C13_17  and  C14_18 
REMARK    7  A    between atoms: C14_18  and  N3_19 
REMARK    8  A    between atoms: C15_20  and  O1_21 
REMARK    9  A    between atoms: C15_20  and  O2_22 
ROOT
HETATM    1  C4  UNL     1      22.474   0.257  52.433  1.00  0.00     0.086 A 
HETATM    2  N2  UNL     1      23.635   0.827  52.281  1.00  0.00    -0.246 NA
HETATM    3  C5  UNL     1      24.573   0.292  53.179  1.00  0.00     0.068 A 
HETATM    4  C12 UNL     1      24.048  -0.664  53.964  1.00  0.00     0.047 A 
HETATM    5  C13 UNL     1      22.676  -0.710  53.499  1.00  0.00     0.011 A 
ENDROOT
BRANCH   1   6
HETATM    6  C3  UNL     1      21.252   0.540  51.688  1.00  0.00     0.143 C 
HETATM    7  N1  UNL     1      20.071   0.511  52.202  1.00  0.00    -0.290 NA
BRANCH   7   8
HETATM    8  C2  UNL     1      18.912   0.801  51.409  1.00  0.00     0.222 C 
BRANCH   8   9
HETATM    9  S1  UNL     1      17.545  -0.370  51.729  1.00  0.00    -0.111 SA
HETATM   10  C1  UNL     1      15.837   0.212  51.442  1.00  0.00     0.091 C 
BRANCH   9  11
HETATM   11  C15 UNL     1      17.729  -1.553  52.838  1.00  0.00     0.165 C 
BRANCH  11  12
HETATM   12  O1  UNL     1      17.511  -1.048  54.115  1.00  0.00    -0.771 OA
HETATM   13  H15 UNL     1      17.499  -1.742  54.857  1.00  0.00     0.168 HD
ENDBRANCH  11  12
BRANCH  11  14
HETATM   14  O2  UNL     1      17.959  -2.770  53.459  1.00  0.00    -0.771 OA
HETATM   15  H16 UNL     1      18.919  -2.978  53.724  1.00  0.00     0.168 HD
ENDBRANCH  11  14
ENDBRANCH   9  11
ENDBRANCH   8   9
ENDBRANCH   7   8
ENDBRANCH   1   6
BRANCH   5  16
HETATM   16  C14 UNL     1      21.790  -1.539  54.019  1.00  0.00     0.094 C 
BRANCH  16  17
HETATM   17  N3  UNL     1      20.541  -1.498  54.639  1.00  0.00    -0.407 N 
HETATM   18  H13 UNL     1      20.231  -2.079  55.472  1.00  0.00     0.155 HD
HETATM   19  H14 UNL     1      19.721  -0.912  54.402  1.00  0.00     0.155 HD
ENDBRANCH  16  17
ENDBRANCH   5  16
BRANCH   3  20
HETATM   20  C6  UNL     1      25.993   0.697  53.294  1.00  0.00    -0.006 A 
HETATM   21  C7  UNL     1      26.331   2.017  53.355  1.00  0.00     0.014 A 
HETATM   22  C8  UNL     1      27.680   2.345  53.462  1.00  0.00     0.002 A 
HETATM   23  C9  UNL     1      28.648   1.386  53.506  1.00  0.00     0.019 A 
HETATM   24  C10 UNL     1      28.314   0.038  53.445  1.00  0.00     0.011 A 
HETATM   25 BR1  UNL     1      29.681  -1.288  53.510  1.00  0.00    -0.051 Br
HETATM   26  C11 UNL     1      26.975  -0.271  53.339  1.00  0.00     0.032 A 
ENDBRANCH   3  20
TORSDOF 9
ENDMDL
MODEL 8
REMARK VINA RESULT:      -6.9      1.987      2.194
REMARK  9 active torsions:
REMARK  status: ('A' for Active; 'I' for Inactive)
REMARK    1  A    between atoms: S1_2  and  C2_3 
REMARK    2  A    between atoms: S1_2  and  C15_20 
REMARK    3  A    between atoms: C2_3  and  N1_4 
REMARK    4  A    between atoms: C3_5  and  C4_6 
REMARK    5  A    between atoms: C5_8  and  C6_9 
REMARK    6  A    between atoms: C13_17  and  C14_18 
REMARK    7  A    between atoms: C14_18  and  N3_19 
REMARK    8  A    between atoms: C15_20  and  O1_21 
REMARK    9  A    between atoms: C15_20  and  O2_22 
ROOT
HETATM    1  C4  UNL     1      23.042   0.170  53.551  1.00  0.00     0.086 A 
HETATM    2  N2  UNL     1      21.911   0.275  52.916  1.00  0.00    -0.246 NA
HETATM    3  C5  UNL     1      20.948  -0.584  53.468  1.00  0.00     0.068 A 
HETATM    4  C12 UNL     1      21.425  -1.294  54.504  1.00  0.00     0.047 A 
HETATM    5  C13 UNL     1      22.793  -0.822  54.583  1.00  0.00     0.011 A 
ENDROOT
BRANCH   1   6
HETATM    6  C3  UNL     1      24.276   0.897  53.275  1.00  0.00     0.143 C 
HETATM    7  N1  UNL     1      24.809   0.996  52.105  1.00  0.00    -0.290 NA
BRANCH   7   8
HETATM    8  C2  UNL     1      26.026   1.728  51.907  1.00  0.00     0.222 C 
BRANCH   8   9
HETATM    9  S1  UNL     1      27.455   0.925  52.716  1.00  0.00    -0.111 SA
HETATM   10  C1  UNL     1      27.347  -0.865  53.063  1.00  0.00     0.091 C 
BRANCH   9  11
HETATM   11  C15 UNL     1      28.428   1.794  53.696  1.00  0.00     0.165 C 
BRANCH  11  12
HETATM   12  O1  UNL     1      28.869   2.939  53.040  1.00  0.00    -0.771 OA
HETATM   13  H15 UNL     1      28.398   3.142  52.163  1.00  0.00     0.168 HD
ENDBRANCH  11  12
BRANCH  11  14
HETATM   14  O2  UNL     1      29.174   2.239  54.776  1.00  0.00    -0.771 OA
HETATM   15  H16 UNL     1      29.907   2.917  54.582  1.00  0.00     0.168 HD
ENDBRANCH  11  14
ENDBRANCH   9  11
ENDBRANCH   8   9
ENDBRANCH   7   8
ENDBRANCH   1   6
BRANCH   5  16
HETATM   16  C14 UNL     1      23.637  -1.277  55.491  1.00  0.00     0.094 C 
BRANCH  16  17
HETATM   17  N3  UNL     1      25.012  -1.333  55.722  1.00  0.00    -0.407 N 
HETATM   18  H13 UNL     1      25.763  -1.556  55.005  1.00  0.00     0.155 HD
HETATM   19  H14 UNL     1      25.526  -1.170  56.606  1.00  0.00     0.155 HD
ENDBRANCH  16  17
ENDBRANCH   5  16
BRANCH   3  20
HETATM   20  C6  UNL     1      19.550  -0.733  53.003  1.00  0.00    -0.006 A 
HETATM   21  C7  UNL     1      18.693  -1.574  53.651  1.00  0.00     0.014 A 
HETATM   22  C8  UNL     1      17.389  -1.678  53.174  1.00  0.00     0.002 A 
HETATM   23  C9  UNL     1      16.965  -0.967  52.091  1.00  0.00     0.019 A 
HETATM   24  C10 UNL     1      17.830  -0.108  51.424  1.00  0.00     0.011 A 
HETATM   25 BR1  UNL     1      17.218   0.879  49.912  1.00  0.00    -0.051 Br
HETATM   26  C11 UNL     1      19.117  -0.015  51.908  1.00  0.00     0.032 A 
ENDBRANCH   3  20
TORSDOF 9
ENDMDL
MODEL 9
REMARK VINA RESULT:      -6.8      5.379      7.953
REMARK  9 active torsions:
REMARK  status: ('A' for Active; 'I' for Inactive)
REMARK    1  A    between atoms: S1_2  and  C2_3 
REMARK    2  A    between atoms: S1_2  and  C15_20 
REMARK    3  A    between atoms: C2_3  and  N1_4 
REMARK    4  A    between atoms: C3_5  and  C4_6 
REMARK    5  A    between atoms: C5_8  and  C6_9 
REMARK    6  A    between atoms: C13_17  and  C14_18 
REMARK    7  A    between atoms: C14_18  and  N3_19 
REMARK    8  A    between atoms: C15_20  and  O1_21 
REMARK    9  A    between atoms: C15_20  and  O2_22 
ROOT
HETATM    1  C4  UNL     1      22.676   1.635  52.709  1.00  0.00     0.086 A 
HETATM    2  N2  UNL     1      23.970   1.564  52.582  1.00  0.00    -0.246 NA
HETATM    3  C5  UNL     1      24.465   0.394  53.179  1.00  0.00     0.068 A 
HETATM    4  C12 UNL     1      23.494  -0.356  53.726  1.00  0.00     0.047 A 
HETATM    5  C13 UNL     1      22.312   0.430  53.434  1.00  0.00     0.011 A 
ENDROOT
BRANCH   1   6
HETATM    6  C3  UNL     1      21.802   2.697  52.222  1.00  0.00     0.143 C 
HETATM    7  N1  UNL     1      22.185   3.643  51.435  1.00  0.00    -0.290 NA
BRANCH   7   8
HETATM    8  C2  UNL     1      21.270   4.655  50.996  1.00  0.00     0.222 C 
BRANCH   8   9
HETATM    9  S1  UNL     1      21.999   6.330  51.079  1.00  0.00    -0.111 SA
HETATM   10  C1  UNL     1      21.205   7.657  50.106  1.00  0.00     0.091 C 
BRANCH   9  11
HETATM   11  C15 UNL     1      23.593   6.509  51.381  1.00  0.00     0.165 C 
BRANCH  11  12
HETATM   12  O1  UNL     1      23.941   5.818  52.537  1.00  0.00    -0.771 OA
HETATM   13  H15 UNL     1      24.243   6.400  53.313  1.00  0.00     0.168 HD
ENDBRANCH  11  12
BRANCH  11  14
HETATM   14  O2  UNL     1      24.927   6.874  51.309  1.00  0.00    -0.771 OA
HETATM   15  H16 UNL     1      25.605   6.222  51.694  1.00  0.00     0.168 HD
ENDBRANCH  11  14
ENDBRANCH   9  11
ENDBRANCH   8   9
ENDBRANCH   7   8
ENDBRANCH   1   6
BRANCH   5  16
HETATM   16  C14 UNL     1      21.106   0.042  53.808  1.00  0.00     0.094 C 
BRANCH  16  17
HETATM   17  N3  UNL     1      20.485  -1.061  54.392  1.00  0.00    -0.407 N 
HETATM   18  H13 UNL     1      19.440  -1.246  54.436  1.00  0.00     0.155 HD
HETATM   19  H14 UNL     1      20.920  -1.870  54.871  1.00  0.00     0.155 HD
ENDBRANCH  16  17
ENDBRANCH   5  16
BRANCH   3  20
HETATM   20  C6  UNL     1      25.886  -0.019  53.230  1.00  0.00    -0.006 A 
HETATM   21  C7  UNL     1      26.259  -1.264  52.817  1.00  0.00     0.014 A 
HETATM   22  C8  UNL     1      27.607  -1.603  52.886  1.00  0.00     0.002 A 
HETATM   23  C9  UNL     1      28.542  -0.727  53.350  1.00  0.00     0.019 A 
HETATM   24  C10 UNL     1      28.173   0.545  53.773  1.00  0.00     0.011 A 
HETATM   25 BR1  UNL     1      29.495   1.758  54.418  1.00  0.00    -0.051 Br
HETATM   26  C11 UNL     1      26.835   0.866  53.699  1.00  0.00     0.032 A 
ENDBRANCH   3  20
TORSDOF 9
ENDMDL
