MODEL 1
REMARK VINA RESULT:      -7.9      0.000      0.000
REMARK  6 active torsions:
REMARK  status: ('A' for Active; 'I' for Inactive)
REMARK    1  A    between atoms: O1_2  and  C2_3 
REMARK    2  A    between atoms: C3_5  and  C4_6 
REMARK    3  A    between atoms: C4_6  and  N2_7 
REMARK    4  A    between atoms: C13_16  and  N3_17 
REMARK    5  A    between atoms: N3_17  and  O2_18 
REMARK    6  A    between atoms: C14_19  and  O3_20 
ROOT
HETATM    1  C2  UNL     1      23.498  -0.289  53.353  1.00  0.00     0.269 A 
HETATM    2  N1  UNL     1      23.284   1.024  53.152  1.00  0.00    -0.209 NA
HETATM    3  C3  UNL     1      24.316   1.917  53.157  1.00  0.00     0.069 A 
HETATM    4  C11 UNL     1      25.623   1.472  53.374  1.00  0.00     0.022 A 
HETATM    5  C12 UNL     1      26.715   2.304  53.396  1.00  0.00     0.050 A 
HETATM    6  C13 UNL     1      27.941   1.709  53.624  1.00  0.00     0.088 A 
HETATM    7  C14 UNL     1      28.133   0.356  53.828  1.00  0.00     0.099 A 
HETATM    8  C16 UNL     1      27.012  -0.460  53.800  1.00  0.00     0.071 A 
HETATM    9  C17 UNL     1      25.770   0.108  53.573  1.00  0.00     0.076 A 
HETATM   10  N4  UNL     1      24.740  -0.754  53.564  1.00  0.00    -0.206 NA
ENDROOT
BRANCH   3  11
HETATM   11  C4  UNL     1      24.084   3.361  52.931  1.00  0.00     0.177 C 
BRANCH  11  12
HETATM   12  N2  UNL     1      23.709   3.694  51.612  1.00  0.00    -0.401 N 
HETATM   13  C5  UNL     1      22.400   4.228  51.416  1.00  0.00     0.145 C 
HETATM   14  C6  UNL     1      21.621   3.216  50.634  1.00  0.00    -0.008 C 
HETATM   15  C7  UNL     1      22.057   2.666  49.495  1.00  0.00    -0.003 C 
HETATM   16  C8  UNL     1      23.334   2.926  48.798  1.00  0.00    -0.003 C 
HETATM   17  C9  UNL     1      24.391   3.535  49.363  1.00  0.00    -0.008 C 
HETATM   18  C10 UNL     1      24.716   4.129  50.711  1.00  0.00     0.145 C 
ENDBRANCH  11  12
ENDBRANCH   3  11
BRANCH   1  19
HETATM   19  O1  UNL     1      22.408  -1.138  53.335  1.00  0.00    -0.324 OA
HETATM   20  C1  UNL     1      21.606  -1.271  54.508  1.00  0.00     0.213 C 
ENDBRANCH   1  19
BRANCH   6  21
HETATM   21  N3  UNL     1      29.108   2.517  53.657  1.00  0.00    -0.267 N 
HETATM   22  H15 UNL     1      29.467   3.125  52.872  1.00  0.00     0.194 HD
BRANCH  21  23
HETATM   23  O2  UNL     1      29.748   2.430  54.851  1.00  0.00    -0.289 OA
HETATM   24  H16 UNL     1      29.096   2.352  55.596  1.00  0.00     0.244 HD
ENDBRANCH  21  23
ENDBRANCH   6  21
BRANCH   7  25
HETATM   25  O3  UNL     1      29.413  -0.161  54.052  1.00  0.00    -0.354 OA
HETATM   26  C15 UNL     1      29.754  -1.361  53.409  1.00  0.00     0.210 C 
ENDBRANCH   7  25
TORSDOF 6
ENDMDL
MODEL 2
REMARK VINA RESULT:      -7.9      1.076      1.692
REMARK  6 active torsions:
REMARK  status: ('A' for Active; 'I' for Inactive)
REMARK    1  A    between atoms: O1_2  and  C2_3 
REMARK    2  A    between atoms: C3_5  and  C4_6 
REMARK    3  A    between atoms: C4_6  and  N2_7 
REMARK    4  A    between atoms: C13_16  and  N3_17 
REMARK    5  A    between atoms: N3_17  and  O2_18 
REMARK    6  A    between atoms: C14_19  and  O3_20 
ROOT
HETATM    1  C2  UNL     1      23.472  -0.053  53.322  1.00  0.00     0.269 A 
HETATM    2  N1  UNL     1      23.331   1.261  53.068  1.00  0.00    -0.209 NA
HETATM    3  C3  UNL     1      24.406   2.101  53.078  1.00  0.00     0.069 A 
HETATM    4  C11 UNL     1      25.681   1.601  53.354  1.00  0.00     0.022 A 
HETATM    5  C12 UNL     1      26.812   2.378  53.385  1.00  0.00     0.050 A 
HETATM    6  C13 UNL     1      27.999   1.732  53.675  1.00  0.00     0.088 A 
HETATM    7  C14 UNL     1      28.115   0.380  53.932  1.00  0.00     0.099 A 
HETATM    8  C16 UNL     1      26.957  -0.380  53.894  1.00  0.00     0.071 A 
HETATM    9  C17 UNL     1      25.753   0.239  53.606  1.00  0.00     0.076 A 
HETATM   10  N4  UNL     1      24.681  -0.571  53.591  1.00  0.00    -0.206 NA
ENDROOT
BRANCH   3  11
HETATM   11  C4  UNL     1      24.255   3.546  52.794  1.00  0.00     0.177 C 
BRANCH  11  12
HETATM   12  N2  UNL     1      24.421   3.897  51.437  1.00  0.00    -0.401 N 
HETATM   13  C5  UNL     1      24.526   2.832  50.493  1.00  0.00     0.145 C 
HETATM   14  C6  UNL     1      25.919   2.862  49.944  1.00  0.00    -0.008 C 
HETATM   15  C7  UNL     1      26.495   3.963  49.446  1.00  0.00    -0.003 C 
HETATM   16  C8  UNL     1      25.910   5.316  49.336  1.00  0.00    -0.003 C 
HETATM   17  C9  UNL     1      24.811   5.719  49.997  1.00  0.00    -0.008 C 
HETATM   18  C10 UNL     1      23.840   5.105  50.974  1.00  0.00     0.145 C 
ENDBRANCH  11  12
ENDBRANCH   3  11
BRANCH   1  19
HETATM   19  O1  UNL     1      22.341  -0.848  53.295  1.00  0.00    -0.324 OA
HETATM   20  C1  UNL     1      21.776  -1.299  54.525  1.00  0.00     0.213 C 
ENDBRANCH   1  19
BRANCH   6  21
HETATM   21  N3  UNL     1      29.203   2.483  53.721  1.00  0.00    -0.267 N 
HETATM   22  H15 UNL     1      29.646   3.000  52.912  1.00  0.00     0.194 HD
BRANCH  21  23
HETATM   23  O2  UNL     1      29.757   2.473  54.959  1.00  0.00    -0.289 OA
HETATM   24  H16 UNL     1      30.691   2.815  54.931  1.00  0.00     0.244 HD
ENDBRANCH  21  23
ENDBRANCH   6  21
BRANCH   7  25
HETATM   25  O3  UNL     1      29.360  -0.191  54.218  1.00  0.00    -0.354 OA
HETATM   26  C15 UNL     1      29.759  -1.301  53.457  1.00  0.00     0.210 C 
ENDBRANCH   7  25
TORSDOF 6
ENDMDL
MODEL 3
REMARK VINA RESULT:      -7.5      2.568      6.708
REMARK  6 active torsions:
REMARK  status: ('A' for Active; 'I' for Inactive)
REMARK    1  A    between atoms: O1_2  and  C2_3 
REMARK    2  A    between atoms: C3_5  and  C4_6 
REMARK    3  A    between atoms: C4_6  and  N2_7 
REMARK    4  A    between atoms: C13_16  and  N3_17 
REMARK    5  A    between atoms: N3_17  and  O2_18 
REMARK    6  A    between atoms: C14_19  and  O3_20 
ROOT
HETATM    1  C2  UNL     1      24.484   2.949  51.519  1.00  0.00     0.269 A 
HETATM    2  N1  UNL     1      25.359   2.327  52.331  1.00  0.00    -0.209 NA
HETATM    3  C3  UNL     1      24.971   1.281  53.118  1.00  0.00     0.069 A 
HETATM    4  C11 UNL     1      23.646   0.838  53.089  1.00  0.00     0.022 A 
HETATM    5  C12 UNL     1      23.176  -0.204  53.849  1.00  0.00     0.050 A 
HETATM    6  C13 UNL     1      21.838  -0.519  53.707  1.00  0.00     0.088 A 
HETATM    7  C14 UNL     1      20.962   0.137  52.865  1.00  0.00     0.099 A 
HETATM    8  C16 UNL     1      21.464   1.186  52.110  1.00  0.00     0.071 A 
HETATM    9  C17 UNL     1      22.800   1.524  52.230  1.00  0.00     0.076 A 
HETATM   10  N4  UNL     1      23.202   2.552  51.464  1.00  0.00    -0.206 NA
ENDROOT
BRANCH   3  11
HETATM   11  C4  UNL     1      25.933   0.592  54.009  1.00  0.00     0.177 C 
BRANCH  11  12
HETATM   12  N2  UNL     1      27.037   0.017  53.344  1.00  0.00    -0.401 N 
HETATM   13  C5  UNL     1      26.770  -0.755  52.174  1.00  0.00     0.145 C 
HETATM   14  C6  UNL     1      27.115  -2.177  52.493  1.00  0.00    -0.008 C 
HETATM   15  C7  UNL     1      28.286  -2.553  53.023  1.00  0.00    -0.003 C 
HETATM   16  C8  UNL     1      29.430  -1.691  53.386  1.00  0.00    -0.003 C 
HETATM   17  C9  UNL     1      29.356  -0.355  53.521  1.00  0.00    -0.008 C 
HETATM   18  C10 UNL     1      28.282   0.696  53.389  1.00  0.00     0.145 C 
ENDBRANCH  11  12
ENDBRANCH   3  11
BRANCH   1  19
HETATM   19  O1  UNL     1      24.943   4.001  50.749  1.00  0.00    -0.324 OA
HETATM   20  C1  UNL     1      24.501   4.121  49.398  1.00  0.00     0.213 C 
ENDBRANCH   1  19
BRANCH   6  21
HETATM   21  N3  UNL     1      21.294  -1.587  54.466  1.00  0.00    -0.267 N 
HETATM   22  H15 UNL     1      20.306  -1.957  54.402  1.00  0.00     0.194 HD
BRANCH  21  23
HETATM   23  O2  UNL     1      22.205  -2.115  55.322  1.00  0.00    -0.289 OA
HETATM   24  H16 UNL     1      22.669  -2.891  54.909  1.00  0.00     0.244 HD
ENDBRANCH  21  23
ENDBRANCH   6  21
BRANCH   7  25
HETATM   25  O3  UNL     1      19.620  -0.250  52.784  1.00  0.00    -0.354 OA
HETATM   26  C15 UNL     1      18.936   0.009  51.586  1.00  0.00     0.210 C 
ENDBRANCH   7  25
TORSDOF 6
ENDMDL
MODEL 4
REMARK VINA RESULT:      -7.4      2.399      5.686
REMARK  6 active torsions:
REMARK  status: ('A' for Active; 'I' for Inactive)
REMARK    1  A    between atoms: O1_2  and  C2_3 
REMARK    2  A    between atoms: C3_5  and  C4_6 
REMARK    3  A    between atoms: C4_6  and  N2_7 
REMARK    4  A    between atoms: C13_16  and  N3_17 
REMARK    5  A    between atoms: N3_17  and  O2_18 
REMARK    6  A    between atoms: C14_19  and  O3_20 
ROOT
HETATM    1  C2  UNL     1      22.885  -0.638  53.318  1.00  0.00     0.269 A 
HETATM    2  N1  UNL     1      24.089  -0.553  53.914  1.00  0.00    -0.209 NA
HETATM    3  C3  UNL     1      24.979   0.423  53.570  1.00  0.00     0.069 A 
HETATM    4  C11 UNL     1      24.647   1.357  52.586  1.00  0.00     0.022 A 
HETATM    5  C12 UNL     1      25.484   2.367  52.182  1.00  0.00     0.050 A 
HETATM    6  C13 UNL     1      25.007   3.208  51.196  1.00  0.00     0.088 A 
HETATM    7  C14 UNL     1      23.766   3.098  50.601  1.00  0.00     0.099 A 
HETATM    8  C16 UNL     1      22.941   2.068  51.028  1.00  0.00     0.071 A 
HETATM    9  C17 UNL     1      23.391   1.210  52.015  1.00  0.00     0.076 A 
HETATM   10  N4  UNL     1      22.530   0.241  52.368  1.00  0.00    -0.206 NA
ENDROOT
BRANCH   3  11
HETATM   11  C4  UNL     1      26.302   0.522  54.227  1.00  0.00     0.177 C 
BRANCH  11  12
HETATM   12  N2  UNL     1      27.361  -0.066  53.503  1.00  0.00    -0.401 N 
HETATM   13  C5  UNL     1      27.018  -0.858  52.366  1.00  0.00     0.145 C 
HETATM   14  C6  UNL     1      27.383  -2.275  52.686  1.00  0.00    -0.008 C 
HETATM   15  C7  UNL     1      28.584  -2.644  53.145  1.00  0.00    -0.003 C 
HETATM   16  C8  UNL     1      29.750  -1.778  53.420  1.00  0.00    -0.003 C 
HETATM   17  C9  UNL     1      29.686  -0.440  53.536  1.00  0.00    -0.008 C 
HETATM   18  C10 UNL     1      28.607   0.610  53.456  1.00  0.00     0.145 C 
ENDBRANCH  11  12
ENDBRANCH   3  11
BRANCH   1  19
HETATM   19  O1  UNL     1      22.032  -1.651  53.713  1.00  0.00    -0.324 OA
HETATM   20  C1  UNL     1      20.724  -1.321  54.179  1.00  0.00     0.213 C 
ENDBRANCH   1  19
BRANCH   6  21
HETATM   21  N3  UNL     1      25.827   4.273  50.737  1.00  0.00    -0.267 N 
HETATM   22  H15 UNL     1      26.068   5.150  51.274  1.00  0.00     0.194 HD
BRANCH  21  23
HETATM   23  O2  UNL     1      26.296   4.046  49.483  1.00  0.00    -0.289 OA
HETATM   24  H16 UNL     1      26.954   4.743  49.221  1.00  0.00     0.244 HD
ENDBRANCH  21  23
ENDBRANCH   6  21
BRANCH   7  25
HETATM   25  O3  UNL     1      23.365   3.996  49.606  1.00  0.00    -0.354 OA
HETATM   26  C15 UNL     1      22.821   3.464  48.426  1.00  0.00     0.210 C 
ENDBRANCH   7  25
TORSDOF 6
ENDMDL
MODEL 5
REMARK VINA RESULT:      -7.4      2.461      4.264
REMARK  6 active torsions:
REMARK  status: ('A' for Active; 'I' for Inactive)
REMARK    1  A    between atoms: O1_2  and  C2_3 
REMARK    2  A    between atoms: C3_5  and  C4_6 
REMARK    3  A    between atoms: C4_6  and  N2_7 
REMARK    4  A    between atoms: C13_16  and  N3_17 
REMARK    5  A    between atoms: N3_17  and  O2_18 
REMARK    6  A    between atoms: C14_19  and  O3_20 
ROOT
HETATM    1  C2  UNL     1      26.266   3.528  50.316  1.00  0.00     0.269 A 
HETATM    2  N1  UNL     1      25.060   3.924  50.764  1.00  0.00    -0.209 NA
HETATM    3  C3  UNL     1      24.371   3.186  51.683  1.00  0.00     0.069 A 
HETATM    4  C11 UNL     1      24.918   1.998  52.177  1.00  0.00     0.022 A 
HETATM    5  C12 UNL     1      24.291   1.199  53.100  1.00  0.00     0.050 A 
HETATM    6  C13 UNL     1      24.963   0.056  53.487  1.00  0.00     0.088 A 
HETATM    7  C14 UNL     1      26.202  -0.326  53.010  1.00  0.00     0.099 A 
HETATM    8  C16 UNL     1      26.812   0.500  52.078  1.00  0.00     0.071 A 
HETATM    9  C17 UNL     1      26.163   1.653  51.672  1.00  0.00     0.076 A 
HETATM   10  N4  UNL     1      26.823   2.393  50.767  1.00  0.00    -0.206 NA
ENDROOT
BRANCH   3  11
HETATM   11  C4  UNL     1      23.047   3.621  52.181  1.00  0.00     0.177 C 
BRANCH  11  12
HETATM   12  N2  UNL     1      21.958   2.880  51.673  1.00  0.00    -0.401 N 
HETATM   13  C5  UNL     1      20.749   2.887  52.431  1.00  0.00     0.145 C 
HETATM   14  C6  UNL     1      20.544   1.497  52.951  1.00  0.00    -0.008 C 
HETATM   15  C7  UNL     1      20.586   0.405  52.179  1.00  0.00    -0.003 C 
HETATM   16  C8  UNL     1      20.828   0.337  50.723  1.00  0.00    -0.003 C 
HETATM   17  C9  UNL     1      21.345   1.344  49.997  1.00  0.00    -0.008 C 
HETATM   18  C10 UNL     1      21.829   2.747  50.267  1.00  0.00     0.145 C 
ENDBRANCH  11  12
ENDBRANCH   3  11
BRANCH   1  19
HETATM   19  O1  UNL     1      26.909   4.322  49.385  1.00  0.00    -0.324 OA
HETATM   20  C1  UNL     1      26.305   5.550  48.979  1.00  0.00     0.213 C 
ENDBRANCH   1  19
BRANCH   6  21
HETATM   21  N3  UNL     1      24.366  -0.811  54.439  1.00  0.00    -0.267 N 
HETATM   22  H15 UNL     1      23.424  -1.280  54.349  1.00  0.00     0.194 HD
BRANCH  21  23
HETATM   23  O2  UNL     1      25.158  -0.987  55.527  1.00  0.00    -0.289 OA
HETATM   24  H16 UNL     1      26.117  -1.012  55.266  1.00  0.00     0.244 HD
ENDBRANCH  21  23
ENDBRANCH   6  21
BRANCH   7  25
HETATM   25  O3  UNL     1      26.810  -1.504  53.458  1.00  0.00    -0.354 OA
HETATM   26  C15 UNL     1      27.265  -2.413  52.489  1.00  0.00     0.210 C 
ENDBRANCH   7  25
TORSDOF 6
ENDMDL
MODEL 6
REMARK VINA RESULT:      -7.4      2.244      3.917
REMARK  6 active torsions:
REMARK  status: ('A' for Active; 'I' for Inactive)
REMARK    1  A    between atoms: O1_2  and  C2_3 
REMARK    2  A    between atoms: C3_5  and  C4_6 
REMARK    3  A    between atoms: C4_6  and  N2_7 
REMARK    4  A    between atoms: C13_16  and  N3_17 
REMARK    5  A    between atoms: N3_17  and  O2_18 
REMARK    6  A    between atoms: C14_19  and  O3_20 
ROOT
HETATM    1  C2  UNL     1      26.104   3.335  50.395  1.00  0.00     0.269 A 
HETATM    2  N1  UNL     1      24.803   2.992  50.446  1.00  0.00    -0.209 NA
HETATM    3  C3  UNL     1      24.364   2.009  51.286  1.00  0.00     0.069 A 
HETATM    4  C11 UNL     1      25.270   1.341  52.113  1.00  0.00     0.022 A 
HETATM    5  C12 UNL     1      24.911   0.343  52.984  1.00  0.00     0.050 A 
HETATM    6  C13 UNL     1      25.926  -0.220  53.733  1.00  0.00     0.088 A 
HETATM    7  C14 UNL     1      27.255   0.152  53.661  1.00  0.00     0.099 A 
HETATM    8  C16 UNL     1      27.589   1.163  52.773  1.00  0.00     0.071 A 
HETATM    9  C17 UNL     1      26.593   1.746  52.010  1.00  0.00     0.076 A 
HETATM   10  N4  UNL     1      27.004   2.715  51.176  1.00  0.00    -0.206 NA
ENDROOT
BRANCH   3  11
HETATM   11  C4  UNL     1      22.934   1.634  51.347  1.00  0.00     0.177 C 
BRANCH  11  12
HETATM   12  N2  UNL     1      22.128   2.232  50.354  1.00  0.00    -0.401 N 
HETATM   13  C5  UNL     1      21.627   1.387  49.319  1.00  0.00     0.145 C 
HETATM   14  C6  UNL     1      22.288   1.809  48.043  1.00  0.00    -0.008 C 
HETATM   15  C7  UNL     1      22.323   3.076  47.612  1.00  0.00    -0.003 C 
HETATM   16  C8  UNL     1      21.746   4.268  48.267  1.00  0.00    -0.003 C 
HETATM   17  C9  UNL     1      21.356   4.307  49.554  1.00  0.00    -0.008 C 
HETATM   18  C10 UNL     1      21.325   3.344  50.714  1.00  0.00     0.145 C 
ENDBRANCH  11  12
ENDBRANCH   3  11
BRANCH   1  19
HETATM   19  O1  UNL     1      26.481   4.338  49.522  1.00  0.00    -0.324 OA
HETATM   20  C1  UNL     1      25.508   5.287  49.088  1.00  0.00     0.213 C 
ENDBRANCH   1  19
BRANCH   6  21
HETATM   21  N3  UNL     1      25.617  -1.257  54.652  1.00  0.00    -0.267 N 
HETATM   22  H15 UNL     1      25.356  -2.251  54.405  1.00  0.00     0.194 HD
BRANCH  21  23
HETATM   23  O2  UNL     1      25.692  -0.832  55.938  1.00  0.00    -0.289 OA
HETATM   24  H16 UNL     1      26.095   0.076  55.987  1.00  0.00     0.244 HD
ENDBRANCH  21  23
ENDBRANCH   6  21
BRANCH   7  25
HETATM   25  O3  UNL     1      28.219  -0.474  54.459  1.00  0.00    -0.354 OA
HETATM   26  C15 UNL     1      29.433  -0.835  53.853  1.00  0.00     0.210 C 
ENDBRANCH   7  25
TORSDOF 6
ENDMDL
MODEL 7
REMARK VINA RESULT:      -6.9      2.570      5.915
REMARK  6 active torsions:
REMARK  status: ('A' for Active; 'I' for Inactive)
REMARK    1  A    between atoms: O1_2  and  C2_3 
REMARK    2  A    between atoms: C3_5  and  C4_6 
REMARK    3  A    between atoms: C4_6  and  N2_7 
REMARK    4  A    between atoms: C13_16  and  N3_17 
REMARK    5  A    between atoms: N3_17  and  O2_18 
REMARK    6  A    between atoms: C14_19  and  O3_20 
ROOT
HETATM    1  C2  UNL     1      22.476   0.609  53.303  1.00  0.00     0.269 A 
HETATM    2  N1  UNL     1      23.705   0.234  52.904  1.00  0.00    -0.209 NA
HETATM    3  C3  UNL     1      24.525   1.098  52.237  1.00  0.00     0.069 A 
HETATM    4  C11 UNL     1      24.092   2.397  51.959  1.00  0.00     0.022 A 
HETATM    5  C12 UNL     1      24.853   3.326  51.293  1.00  0.00     0.050 A 
HETATM    6  C13 UNL     1      24.280   4.567  51.094  1.00  0.00     0.088 A 
HETATM    7  C14 UNL     1      23.014   4.925  51.515  1.00  0.00     0.099 A 
HETATM    8  C16 UNL     1      22.268   3.967  52.184  1.00  0.00     0.071 A 
HETATM    9  C17 UNL     1      22.815   2.715  52.399  1.00  0.00     0.076 A 
HETATM   10  N4  UNL     1      22.025   1.848  53.053  1.00  0.00    -0.206 NA
ENDROOT
BRANCH   3  11
HETATM   11  C4  UNL     1      25.880   0.691  51.802  1.00  0.00     0.177 C 
BRANCH  11  12
HETATM   12  N2  UNL     1      26.810   0.538  52.852  1.00  0.00    -0.401 N 
HETATM   13  C5  UNL     1      26.779   1.503  53.902  1.00  0.00     0.145 C 
HETATM   14  C6  UNL     1      28.056   2.283  53.825  1.00  0.00    -0.008 C 
HETATM   15  C7  UNL     1      29.267   1.716  53.771  1.00  0.00    -0.003 C 
HETATM   16  C8  UNL     1      29.590   0.274  53.776  1.00  0.00    -0.003 C 
HETATM   17  C9  UNL     1      28.695  -0.700  53.532  1.00  0.00    -0.008 C 
HETATM   18  C10 UNL     1      27.225  -0.773  53.202  1.00  0.00     0.145 C 
ENDBRANCH  11  12
ENDBRANCH   3  11
BRANCH   1  19
HETATM   19  O1  UNL     1      21.697  -0.316  53.973  1.00  0.00    -0.324 OA
HETATM   20  C1  UNL     1      22.324  -1.438  54.594  1.00  0.00     0.213 C 
ENDBRANCH   1  19
BRANCH   6  21
HETATM   21  N3  UNL     1      25.018   5.570  50.412  1.00  0.00    -0.267 N 
HETATM   22  H15 UNL     1      24.665   6.530  50.145  1.00  0.00     0.194 HD
BRANCH  21  23
HETATM   23  O2  UNL     1      26.279   5.161  50.123  1.00  0.00    -0.289 OA
HETATM   24  H16 UNL     1      26.949   5.790  50.500  1.00  0.00     0.244 HD
ENDBRANCH  21  23
ENDBRANCH   6  21
BRANCH   7  25
HETATM   25  O3  UNL     1      22.512   6.208  51.269  1.00  0.00    -0.354 OA
HETATM   26  C15 UNL     1      21.367   6.318  50.465  1.00  0.00     0.210 C 
ENDBRANCH   7  25
TORSDOF 6
ENDMDL
MODEL 8
REMARK VINA RESULT:      -6.8      2.638      7.098
REMARK  6 active torsions:
REMARK  status: ('A' for Active; 'I' for Inactive)
REMARK    1  A    between atoms: O1_2  and  C2_3 
REMARK    2  A    between atoms: C3_5  and  C4_6 
REMARK    3  A    between atoms: C4_6  and  N2_7 
REMARK    4  A    between atoms: C13_16  and  N3_17 
REMARK    5  A    between atoms: N3_17  and  O2_18 
REMARK    6  A    between atoms: C14_19  and  O3_20 
ROOT
HETATM    1  C2  UNL     1      26.042   3.082  50.548  1.00  0.00     0.269 A 
HETATM    2  N1  UNL     1      26.055   2.554  51.786  1.00  0.00    -0.209 NA
HETATM    3  C3  UNL     1      24.959   1.918  52.293  1.00  0.00     0.069 A 
HETATM    4  C11 UNL     1      23.798   1.805  51.524  1.00  0.00     0.022 A 
HETATM    5  C12 UNL     1      22.655   1.183  51.959  1.00  0.00     0.050 A 
HETATM    6  C13 UNL     1      21.591   1.156  51.078  1.00  0.00     0.088 A 
HETATM    7  C14 UNL     1      21.605   1.707  49.811  1.00  0.00     0.099 A 
HETATM    8  C16 UNL     1      22.773   2.329  49.398  1.00  0.00     0.071 A 
HETATM    9  C17 UNL     1      23.856   2.371  50.259  1.00  0.00     0.076 A 
HETATM   10  N4  UNL     1      24.946   2.993  49.779  1.00  0.00    -0.206 NA
ENDROOT
BRANCH   3  11
HETATM   11  C4  UNL     1      24.971   1.332  53.653  1.00  0.00     0.177 C 
BRANCH  11  12
HETATM   12  N2  UNL     1      25.874   0.260  53.820  1.00  0.00    -0.401 N 
HETATM   13  C5  UNL     1      26.595   0.195  55.050  1.00  0.00     0.145 C 
HETATM   14  C6  UNL     1      28.038   0.440  54.733  1.00  0.00    -0.008 C 
HETATM   15  C7  UNL     1      28.709  -0.222  53.783  1.00  0.00    -0.003 C 
HETATM   16  C8  UNL     1      28.199  -1.283  52.890  1.00  0.00    -0.003 C 
HETATM   17  C9  UNL     1      26.894  -1.537  52.690  1.00  0.00    -0.008 C 
HETATM   18  C10 UNL     1      25.585  -0.974  53.184  1.00  0.00     0.145 C 
ENDBRANCH  11  12
ENDBRANCH   3  11
BRANCH   1  19
HETATM   19  O1  UNL     1      27.186   3.713  50.096  1.00  0.00    -0.324 OA
HETATM   20  C1  UNL     1      27.103   4.590  48.974  1.00  0.00     0.213 C 
ENDBRANCH   1  19
BRANCH   6  21
HETATM   21  N3  UNL     1      20.381   0.527  51.472  1.00  0.00    -0.267 N 
HETATM   22  H15 UNL     1      20.238  -0.510  51.619  1.00  0.00     0.194 HD
BRANCH  21  23
HETATM   23  O2  UNL     1      19.379   1.424  51.649  1.00  0.00    -0.289 OA
HETATM   24  H16 UNL     1      19.080   1.797  50.777  1.00  0.00     0.244 HD
ENDBRANCH  21  23
ENDBRANCH   6  21
BRANCH   7  25
HETATM   25  O3  UNL     1      20.479   1.634  48.985  1.00  0.00    -0.354 OA
HETATM   26  C15 UNL     1      20.354   2.592  47.966  1.00  0.00     0.210 C 
ENDBRANCH   7  25
TORSDOF 6
ENDMDL
MODEL 9
REMARK VINA RESULT:      -6.6      2.963      5.079
REMARK  6 active torsions:
REMARK  status: ('A' for Active; 'I' for Inactive)
REMARK    1  A    between atoms: O1_2  and  C2_3 
REMARK    2  A    between atoms: C3_5  and  C4_6 
REMARK    3  A    between atoms: C4_6  and  N2_7 
REMARK    4  A    between atoms: C13_16  and  N3_17 
REMARK    5  A    between atoms: N3_17  and  O2_18 
REMARK    6  A    between atoms: C14_19  and  O3_20 
ROOT
HETATM    1  C2  UNL     1      25.520  -0.374  52.974  1.00  0.00     0.269 A 
HETATM    2  N1  UNL     1      24.259  -0.220  53.417  1.00  0.00    -0.209 NA
HETATM    3  C3  UNL     1      23.530   0.890  53.100  1.00  0.00     0.069 A 
HETATM    4  C11 UNL     1      24.090   1.889  52.300  1.00  0.00     0.022 A 
HETATM    5  C12 UNL     1      23.426   3.033  51.936  1.00  0.00     0.050 A 
HETATM    6  C13 UNL     1      24.120   3.926  51.141  1.00  0.00     0.088 A 
HETATM    7  C14 UNL     1      25.415   3.742  50.700  1.00  0.00     0.099 A 
HETATM    8  C16 UNL     1      26.062   2.577  51.083  1.00  0.00     0.071 A 
HETATM    9  C17 UNL     1      25.392   1.663  51.878  1.00  0.00     0.076 A 
HETATM   10  N4  UNL     1      26.093   0.564  52.203  1.00  0.00    -0.206 NA
ENDROOT
BRANCH   3  11
HETATM   11  C4  UNL     1      22.140   1.060  53.582  1.00  0.00     0.177 C 
BRANCH  11  12
HETATM   12  N2  UNL     1      21.203   0.189  52.986  1.00  0.00    -0.401 N 
HETATM   13  C5  UNL     1      21.330  -0.052  51.585  1.00  0.00     0.145 C 
HETATM   14  C6  UNL     1      20.134   0.557  50.920  1.00  0.00    -0.008 C 
HETATM   15  C7  UNL     1      18.874   0.321  51.304  1.00  0.00    -0.003 C 
HETATM   16  C8  UNL     1      18.415  -0.546  52.409  1.00  0.00    -0.003 C 
HETATM   17  C9  UNL     1      19.211  -0.998  53.394  1.00  0.00    -0.008 C 
HETATM   18  C10 UNL     1      20.666  -0.865  53.768  1.00  0.00     0.145 C 
ENDBRANCH  11  12
ENDBRANCH   3  11
BRANCH   1  19
HETATM   19  O1  UNL     1      26.202  -1.521  53.333  1.00  0.00    -0.324 OA
HETATM   20  C1  UNL     1      27.031  -2.172  52.371  1.00  0.00     0.213 C 
ENDBRANCH   1  19
BRANCH   6  21
HETATM   21  N3  UNL     1      23.485   5.128  50.732  1.00  0.00    -0.267 N 
HETATM   22  H15 UNL     1      23.151   5.354  49.755  1.00  0.00     0.194 HD
BRANCH  21  23
HETATM   23  O2  UNL     1      23.341   5.999  51.762  1.00  0.00    -0.289 OA
HETATM   24  H16 UNL     1      24.053   5.862  52.442  1.00  0.00     0.244 HD
ENDBRANCH  21  23
ENDBRANCH   6  21
BRANCH   7  25
HETATM   25  O3  UNL     1      26.042   4.700  49.897  1.00  0.00    -0.354 OA
HETATM   26  C15 UNL     1      27.101   4.275  49.078  1.00  0.00     0.210 C 
ENDBRANCH   7  25
TORSDOF 6
ENDMDL
