MODEL 1
REMARK VINA RESULT:      -8.0      0.000      0.000
REMARK  5 active torsions:
REMARK  status: ('A' for Active; 'I' for Inactive)
REMARK    1  A    between atoms: O1_2  and  C2_3 
REMARK    2  A    between atoms: C6_8  and  O3_9 
REMARK    3  A    between atoms: C9_14  and  C10_15 
REMARK    4  A    between atoms: C12_18  and  N2_19 
REMARK    5  A    between atoms: N2_19  and  C13_20 
ROOT
HETATM    1  C2  UNL     1      22.302   1.836  49.098  1.00  0.00     0.123 A 
HETATM    2  C3  UNL     1      21.407   0.972  49.546  1.00  0.00     0.178 A 
HETATM    3  O2  UNL     1      21.121   0.711  50.875  1.00  0.00    -0.313 OA
HETATM    4  C4  UNL     1      21.823   1.404  51.884  1.00  0.00     0.246 A 
HETATM    5  C5  UNL     1      22.781   2.329  51.317  1.00  0.00     0.088 A 
HETATM    6  C6  UNL     1      23.081   2.605  50.058  1.00  0.00     0.105 A 
HETATM    7  O4  UNL     1      20.846   2.012  52.678  1.00  0.00    -0.231 OA
HETATM    8  N1  UNL     1      19.886   1.075  52.888  1.00  0.00    -0.273 N 
HETATM    9  C8  UNL     1      20.196  -0.138  53.564  1.00  0.00     0.129 C 
HETATM   10  C9  UNL     1      21.479  -0.459  53.495  1.00  0.00     0.032 C 
HETATM   11  C11 UNL     1      22.449   0.373  52.786  1.00  0.00     0.040 C 
HETATM   12  C12 UNL     1      23.758   0.159  52.990  1.00  0.00     0.102 C 
HETATM   13  H9  UNL     1      18.907   1.285  52.529  1.00  0.00     0.193 HD
ENDROOT
BRANCH  10  14
HETATM   14  C10 UNL     1      21.852  -1.671  54.158  1.00  0.00     0.272 C 
HETATM   15  O5  UNL     1      22.157  -1.701  55.360  1.00  0.00    -0.301 OA
ENDBRANCH  10  14
BRANCH  12  16
HETATM   16  N2  UNL     1      24.693  -0.658  53.712  1.00  0.00    -0.365 N 
HETATM   17  H13 UNL     1      24.456  -1.446  54.367  1.00  0.00     0.165 HD
BRANCH  16  18
HETATM   18  C13 UNL     1      26.081  -0.414  53.556  1.00  0.00     0.035 A 
HETATM   19  C14 UNL     1      26.995  -1.126  52.950  1.00  0.00    -0.052 A 
HETATM   20  C15 UNL     1      26.789  -2.420  52.246  1.00  0.00     0.046 C 
HETATM   21  C16 UNL     1      28.310  -0.407  53.083  1.00  0.00     0.082 A 
HETATM   22  C17 UNL     1      27.937   0.807  53.864  1.00  0.00    -0.005 A 
HETATM   23 BR1  UNL     1      29.296   2.092  54.315  1.00  0.00    -0.055 Br
HETATM   24  C18 UNL     1      26.657   0.793  54.130  1.00  0.00     0.044 A 
ENDBRANCH  16  18
ENDBRANCH  12  16
BRANCH   6  25
HETATM   25  O3  UNL     1      24.036   3.529  49.661  1.00  0.00    -0.353 OA
HETATM   26  C7  UNL     1      25.419   3.322  49.833  1.00  0.00     0.210 C 
ENDBRANCH   6  25
BRANCH   1  27
HETATM   27  O1  UNL     1      22.457   1.971  47.745  1.00  0.00    -0.351 OA
HETATM   28  C1  UNL     1      22.021   3.031  46.946  1.00  0.00     0.210 C 
ENDBRANCH   1  27
TORSDOF 5
ENDMDL
MODEL 2
REMARK VINA RESULT:      -7.4      3.364      5.960
REMARK  5 active torsions:
REMARK  status: ('A' for Active; 'I' for Inactive)
REMARK    1  A    between atoms: O1_2  and  C2_3 
REMARK    2  A    between atoms: C6_8  and  O3_9 
REMARK    3  A    between atoms: C9_14  and  C10_15 
REMARK    4  A    between atoms: C12_18  and  N2_19 
REMARK    5  A    between atoms: N2_19  and  C13_20 
ROOT
HETATM    1  C2  UNL     1      23.600   3.883  51.860  1.00  0.00     0.123 A 
HETATM    2  C3  UNL     1      24.162   3.400  52.955  1.00  0.00     0.178 A 
HETATM    3  O2  UNL     1      24.293   2.061  53.282  1.00  0.00    -0.313 OA
HETATM    4  C4  UNL     1      23.796   1.081  52.396  1.00  0.00     0.246 A 
HETATM    5  C5  UNL     1      23.199   1.685  51.225  1.00  0.00     0.088 A 
HETATM    6  C6  UNL     1      23.056   2.955  50.879  1.00  0.00     0.105 A 
HETATM    7  O4  UNL     1      24.877   0.240  52.115  1.00  0.00    -0.231 OA
HETATM    8  N1  UNL     1      25.489  -0.008  53.301  1.00  0.00    -0.273 N 
HETATM    9  C8  UNL     1      24.787  -0.662  54.353  1.00  0.00     0.129 C 
HETATM   10  C9  UNL     1      23.473  -0.533  54.260  1.00  0.00     0.032 C 
HETATM   11  C11 UNL     1      22.842   0.214  53.174  1.00  0.00     0.040 C 
HETATM   12  C12 UNL     1      21.523   0.071  52.970  1.00  0.00     0.102 C 
HETATM   13  H9  UNL     1      26.499   0.305  53.409  1.00  0.00     0.193 HD
ENDROOT
BRANCH  10  14
HETATM   14  C10 UNL     1      22.712  -1.171  55.291  1.00  0.00     0.272 C 
HETATM   15  O5  UNL     1      22.254  -2.317  55.163  1.00  0.00    -0.301 OA
ENDBRANCH  10  14
BRANCH  12  16
HETATM   16  N2  UNL     1      20.349  -0.603  53.450  1.00  0.00    -0.365 N 
HETATM   17  H13 UNL     1      20.274  -1.173  54.332  1.00  0.00     0.165 HD
BRANCH  16  18
HETATM   18  C13 UNL     1      19.152  -0.520  52.694  1.00  0.00     0.035 A 
HETATM   19  C14 UNL     1      18.061  -1.238  52.770  1.00  0.00    -0.052 A 
HETATM   20  C15 UNL     1      17.802  -2.363  53.708  1.00  0.00     0.046 C 
HETATM   21  C16 UNL     1      17.096  -0.729  51.735  1.00  0.00     0.082 A 
HETATM   22  C17 UNL     1      17.861   0.381  51.098  1.00  0.00    -0.005 A 
HETATM   23 BR1  UNL     1      17.052   1.388  49.671  1.00  0.00    -0.055 Br
HETATM   24  C18 UNL     1      19.039   0.491  51.656  1.00  0.00     0.044 A 
ENDBRANCH  16  18
ENDBRANCH  12  16
BRANCH   6  25
HETATM   25  O3  UNL     1      22.454   3.389  49.709  1.00  0.00    -0.353 OA
HETATM   26  C7  UNL     1      22.493   2.651  48.509  1.00  0.00     0.210 C 
ENDBRANCH   6  25
BRANCH   1  27
HETATM   27  O1  UNL     1      23.555   5.240  51.695  1.00  0.00    -0.351 OA
HETATM   28  C1  UNL     1      24.378   6.021  50.879  1.00  0.00     0.210 C 
ENDBRANCH   1  27
TORSDOF 5
ENDMDL
MODEL 3
REMARK VINA RESULT:      -7.4      3.361      7.127
REMARK  5 active torsions:
REMARK  status: ('A' for Active; 'I' for Inactive)
REMARK    1  A    between atoms: O1_2  and  C2_3 
REMARK    2  A    between atoms: C6_8  and  O3_9 
REMARK    3  A    between atoms: C9_14  and  C10_15 
REMARK    4  A    between atoms: C12_18  and  N2_19 
REMARK    5  A    between atoms: N2_19  and  C13_20 
ROOT
HETATM    1  C2  UNL     1      25.747  -0.510  53.046  1.00  0.00     0.123 A 
HETATM    2  C3  UNL     1      26.225   0.284  52.104  1.00  0.00     0.178 A 
HETATM    3  O2  UNL     1      25.627   1.441  51.632  1.00  0.00    -0.313 OA
HETATM    4  C4  UNL     1      24.391   1.852  52.175  1.00  0.00     0.246 A 
HETATM    5  C5  UNL     1      23.936   0.936  53.198  1.00  0.00     0.088 A 
HETATM    6  C6  UNL     1      24.477  -0.174  53.674  1.00  0.00     0.105 A 
HETATM    7  O4  UNL     1      24.593   3.159  52.630  1.00  0.00    -0.231 OA
HETATM    8  N1  UNL     1      25.277   3.805  51.651  1.00  0.00    -0.273 N 
HETATM    9  C8  UNL     1      24.711   3.957  50.355  1.00  0.00     0.129 C 
HETATM   10  C9  UNL     1      23.792   3.045  50.077  1.00  0.00     0.032 C 
HETATM   11  C11 UNL     1      23.424   2.001  51.031  1.00  0.00     0.040 C 
HETATM   12  C12 UNL     1      22.303   1.293  50.817  1.00  0.00     0.102 C 
HETATM   13  H9  UNL     1      26.240   4.183  51.892  1.00  0.00     0.193 HD
ENDROOT
BRANCH  10  14
HETATM   14  C10 UNL     1      23.185   3.148  48.786  1.00  0.00     0.272 C 
HETATM   15  O5  UNL     1      22.168   3.829  48.584  1.00  0.00    -0.301 OA
ENDBRANCH  10  14
BRANCH  12  16
HETATM   16  N2  UNL     1      21.194   1.136  49.919  1.00  0.00    -0.365 N 
HETATM   17  H13 UNL     1      21.226   1.213  48.869  1.00  0.00     0.165 HD
BRANCH  16  18
HETATM   18  C13 UNL     1      19.913   0.848  50.454  1.00  0.00     0.035 A 
HETATM   19  C14 UNL     1      18.739   1.316  50.117  1.00  0.00    -0.052 A 
HETATM   20  C15 UNL     1      18.453   2.305  49.043  1.00  0.00     0.046 C 
HETATM   21  C16 UNL     1      17.709   0.677  51.008  1.00  0.00     0.082 A 
HETATM   22  C17 UNL     1      18.538  -0.209  51.875  1.00  0.00    -0.005 A 
HETATM   23 BR1  UNL     1      17.679  -1.278  53.226  1.00  0.00    -0.055 Br
HETATM   24  C18 UNL     1      19.800  -0.102  51.549  1.00  0.00     0.044 A 
ENDBRANCH  16  18
ENDBRANCH  12  16
BRANCH   6  25
HETATM   25  O3  UNL     1      23.916  -0.959  54.669  1.00  0.00    -0.353 OA
HETATM   26  C7  UNL     1      22.525  -1.087  54.850  1.00  0.00     0.210 C 
ENDBRANCH   6  25
BRANCH   1  27
HETATM   27  O1  UNL     1      26.471  -1.617  53.394  1.00  0.00    -0.351 OA
HETATM   28  C1  UNL     1      27.298  -2.381  52.566  1.00  0.00     0.210 C 
ENDBRANCH   1  27
TORSDOF 5
ENDMDL
MODEL 4
REMARK VINA RESULT:      -7.3      3.391      5.966
REMARK  5 active torsions:
REMARK  status: ('A' for Active; 'I' for Inactive)
REMARK    1  A    between atoms: O1_2  and  C2_3 
REMARK    2  A    between atoms: C6_8  and  O3_9 
REMARK    3  A    between atoms: C9_14  and  C10_15 
REMARK    4  A    between atoms: C12_18  and  N2_19 
REMARK    5  A    between atoms: N2_19  and  C13_20 
ROOT
HETATM    1  C2  UNL     1      26.392   4.200  49.648  1.00  0.00     0.123 A 
HETATM    2  C3  UNL     1      25.465   5.084  49.323  1.00  0.00     0.178 A 
HETATM    3  O2  UNL     1      24.249   5.263  49.962  1.00  0.00    -0.313 OA
HETATM    4  C4  UNL     1      23.922   4.449  51.067  1.00  0.00     0.246 A 
HETATM    5  C5  UNL     1      24.983   3.510  51.361  1.00  0.00     0.088 A 
HETATM    6  C6  UNL     1      26.153   3.311  50.776  1.00  0.00     0.105 A 
HETATM    7  O4  UNL     1      23.633   5.329  52.115  1.00  0.00    -0.231 OA
HETATM    8  N1  UNL     1      22.845   6.303  51.591  1.00  0.00    -0.273 N 
HETATM    9  C8  UNL     1      21.576   5.981  51.031  1.00  0.00     0.129 C 
HETATM   10  C9  UNL     1      21.489   4.722  50.629  1.00  0.00     0.032 C 
HETATM   11  C11 UNL     1      22.604   3.787  50.763  1.00  0.00     0.040 C 
HETATM   12  C12 UNL     1      22.370   2.474  50.610  1.00  0.00     0.102 C 
HETATM   13  H9  UNL     1      23.211   7.300  51.617  1.00  0.00     0.193 HD
ENDROOT
BRANCH  10  14
HETATM   14  C10 UNL     1      20.235   4.339  50.058  1.00  0.00     0.272 C 
HETATM   15  O5  UNL     1      19.254   4.035  50.754  1.00  0.00    -0.301 OA
ENDBRANCH  10  14
BRANCH  12  16
HETATM   16  N2  UNL     1      21.340   1.511  50.336  1.00  0.00    -0.365 N 
HETATM   17  H13 UNL     1      20.882   1.336  49.405  1.00  0.00     0.165 HD
BRANCH  16  18
HETATM   18  C13 UNL     1      20.863   0.696  51.394  1.00  0.00     0.035 A 
HETATM   19  C14 UNL     1      19.646   0.303  51.667  1.00  0.00    -0.052 A 
HETATM   20  C15 UNL     1      18.415   0.631  50.899  1.00  0.00     0.046 C 
HETATM   21  C16 UNL     1      19.698  -0.550  52.905  1.00  0.00     0.082 A 
HETATM   22  C17 UNL     1      21.150  -0.541  53.242  1.00  0.00    -0.005 A 
HETATM   23 BR1  UNL     1      21.766  -1.512  54.786  1.00  0.00    -0.055 Br
HETATM   24  C18 UNL     1      21.809   0.176  52.369  1.00  0.00     0.044 A 
ENDBRANCH  16  18
ENDBRANCH  12  16
BRANCH   6  25
HETATM   25  O3  UNL     1      27.080   2.360  51.175  1.00  0.00    -0.353 OA
HETATM   26  C7  UNL     1      27.300   2.024  52.525  1.00  0.00     0.210 C 
ENDBRANCH   6  25
BRANCH   1  27
HETATM   27  O1  UNL     1      27.541   4.158  48.908  1.00  0.00    -0.351 OA
HETATM   28  C1  UNL     1      28.276   5.245  48.425  1.00  0.00     0.210 C 
ENDBRANCH   1  27
TORSDOF 5
ENDMDL
MODEL 5
REMARK VINA RESULT:      -7.3      3.561      6.909
REMARK  5 active torsions:
REMARK  status: ('A' for Active; 'I' for Inactive)
REMARK    1  A    between atoms: O1_2  and  C2_3 
REMARK    2  A    between atoms: C6_8  and  O3_9 
REMARK    3  A    between atoms: C9_14  and  C10_15 
REMARK    4  A    between atoms: C12_18  and  N2_19 
REMARK    5  A    between atoms: N2_19  and  C13_20 
ROOT
HETATM    1  C2  UNL     1      26.665  -0.560  53.097  1.00  0.00     0.123 A 
HETATM    2  C3  UNL     1      26.788   0.282  52.086  1.00  0.00     0.178 A 
HETATM    3  O2  UNL     1      25.918   1.314  51.774  1.00  0.00    -0.313 OA
HETATM    4  C4  UNL     1      24.780   1.526  52.580  1.00  0.00     0.246 A 
HETATM    5  C5  UNL     1      24.716   0.569  53.663  1.00  0.00     0.088 A 
HETATM    6  C6  UNL     1      25.524  -0.426  53.992  1.00  0.00     0.105 A 
HETATM    7  O4  UNL     1      24.856   2.858  53.001  1.00  0.00    -0.231 OA
HETATM    8  N1  UNL     1      25.195   3.587  51.906  1.00  0.00    -0.273 N 
HETATM    9  C8  UNL     1      24.343   3.617  50.767  1.00  0.00     0.129 C 
HETATM   10  C9  UNL     1      23.550   2.560  50.681  1.00  0.00     0.032 C 
HETATM   11  C11 UNL     1      23.576   1.489  51.676  1.00  0.00     0.040 C 
HETATM   12  C12 UNL     1      22.569   0.602  51.700  1.00  0.00     0.102 C 
HETATM   13  H9  UNL     1      26.111   4.124  51.937  1.00  0.00     0.193 HD
ENDROOT
BRANCH  10  14
HETATM   14  C10 UNL     1      22.668   2.534  49.555  1.00  0.00     0.272 C 
HETATM   15  O5  UNL     1      21.557   3.084  49.571  1.00  0.00    -0.301 OA
ENDBRANCH  10  14
BRANCH  12  16
HETATM   16  N2  UNL     1      21.333   0.245  51.062  1.00  0.00    -0.365 N 
HETATM   17  H13 UNL     1      21.146   0.236  50.026  1.00  0.00     0.165 HD
BRANCH  16  18
HETATM   18  C13 UNL     1      20.231  -0.139  51.868  1.00  0.00     0.035 A 
HETATM   19  C14 UNL     1      20.210  -0.739  53.029  1.00  0.00    -0.052 A 
HETATM   20  C15 UNL     1      21.390  -1.183  53.820  1.00  0.00     0.046 C 
HETATM   21  C16 UNL     1      18.773  -0.909  53.440  1.00  0.00     0.082 A 
HETATM   22  C17 UNL     1      18.036  -0.297  52.298  1.00  0.00    -0.005 A 
HETATM   23 BR1  UNL     1      16.112  -0.257  52.330  1.00  0.00    -0.055 Br
HETATM   24  C18 UNL     1      18.882   0.141  51.402  1.00  0.00     0.044 A 
ENDBRANCH  16  18
ENDBRANCH  12  16
BRANCH   6  25
HETATM   25  O3  UNL     1      25.331  -1.272  55.072  1.00  0.00    -0.353 OA
HETATM   26  C7  UNL     1      24.162  -1.254  55.859  1.00  0.00     0.210 C 
ENDBRANCH   6  25
BRANCH   1  27
HETATM   27  O1  UNL     1      27.621  -1.526  53.261  1.00  0.00    -0.351 OA
HETATM   28  C1  UNL     1      28.997  -1.337  53.412  1.00  0.00     0.210 C 
ENDBRANCH   1  27
TORSDOF 5
ENDMDL
MODEL 6
REMARK VINA RESULT:      -7.1      3.580      5.790
REMARK  5 active torsions:
REMARK  status: ('A' for Active; 'I' for Inactive)
REMARK    1  A    between atoms: O1_2  and  C2_3 
REMARK    2  A    between atoms: C6_8  and  O3_9 
REMARK    3  A    between atoms: C9_14  and  C10_15 
REMARK    4  A    between atoms: C12_18  and  N2_19 
REMARK    5  A    between atoms: N2_19  and  C13_20 
ROOT
HETATM    1  C2  UNL     1      22.571   5.730  50.738  1.00  0.00     0.123 A 
HETATM    2  C3  UNL     1      23.678   5.632  51.455  1.00  0.00     0.178 A 
HETATM    3  O2  UNL     1      24.583   4.584  51.418  1.00  0.00    -0.313 OA
HETATM    4  C4  UNL     1      24.346   3.496  50.552  1.00  0.00     0.246 A 
HETATM    5  C5  UNL     1      23.122   3.676  49.803  1.00  0.00     0.088 A 
HETATM    6  C6  UNL     1      22.236   4.659  49.810  1.00  0.00     0.105 A 
HETATM    7  O4  UNL     1      25.491   3.389  49.755  1.00  0.00    -0.231 OA
HETATM    8  N1  UNL     1      26.553   3.515  50.591  1.00  0.00    -0.273 N 
HETATM    9  C8  UNL     1      26.758   2.579  51.644  1.00  0.00     0.129 C 
HETATM   10  C9  UNL     1      25.646   1.964  52.018  1.00  0.00     0.032 C 
HETATM   11  C11 UNL     1      24.357   2.244  51.389  1.00  0.00     0.040 C 
HETATM   12  C12 UNL     1      23.336   1.400  51.601  1.00  0.00     0.102 C 
HETATM   13  H9  UNL     1      27.214   4.331  50.429  1.00  0.00     0.193 HD
ENDROOT
BRANCH  10  14
HETATM   14  C10 UNL     1      25.790   1.009  53.073  1.00  0.00     0.272 C 
HETATM   15  O5  UNL     1      26.073  -0.179  52.858  1.00  0.00    -0.301 OA
ENDBRANCH  10  14
BRANCH  12  16
HETATM   16  N2  UNL     1      22.963   0.190  52.279  1.00  0.00    -0.365 N 
HETATM   17  H13 UNL     1      23.617  -0.566  52.610  1.00  0.00     0.165 HD
BRANCH  16  18
HETATM   18  C13 UNL     1      21.592  -0.052  52.549  1.00  0.00     0.035 A 
HETATM   19  C14 UNL     1      21.028  -0.618  53.584  1.00  0.00    -0.052 A 
HETATM   20  C15 UNL     1      21.720  -1.168  54.781  1.00  0.00     0.046 C 
HETATM   21  C16 UNL     1      19.540  -0.620  53.362  1.00  0.00     0.082 A 
HETATM   22  C17 UNL     1      19.412   0.042  52.031  1.00  0.00    -0.005 A 
HETATM   23 BR1  UNL     1      17.663   0.292  51.267  1.00  0.00    -0.055 Br
HETATM   24  C18 UNL     1      20.595   0.363  51.575  1.00  0.00     0.044 A 
ENDBRANCH  16  18
ENDBRANCH  12  16
BRANCH   6  25
HETATM   25  O3  UNL     1      21.093   4.694  49.026  1.00  0.00    -0.353 OA
HETATM   26  C7  UNL     1      20.625   3.578  48.305  1.00  0.00     0.210 C 
ENDBRANCH   6  25
BRANCH   1  27
HETATM   27  O1  UNL     1      21.787   6.839  50.898  1.00  0.00    -0.351 OA
HETATM   28  C1  UNL     1      21.779   7.991  50.107  1.00  0.00     0.210 C 
ENDBRANCH   1  27
TORSDOF 5
ENDMDL
MODEL 7
REMARK VINA RESULT:      -7.0      3.236      5.228
REMARK  5 active torsions:
REMARK  status: ('A' for Active; 'I' for Inactive)
REMARK    1  A    between atoms: O1_2  and  C2_3 
REMARK    2  A    between atoms: C6_8  and  O3_9 
REMARK    3  A    between atoms: C9_14  and  C10_15 
REMARK    4  A    between atoms: C12_18  and  N2_19 
REMARK    5  A    between atoms: N2_19  and  C13_20 
ROOT
HETATM    1  C2  UNL     1      19.700   1.174  50.922  1.00  0.00     0.123 A 
HETATM    2  C3  UNL     1      20.642   0.248  50.889  1.00  0.00     0.178 A 
HETATM    3  O2  UNL     1      21.728   0.160  51.745  1.00  0.00    -0.313 OA
HETATM    4  C4  UNL     1      21.887   1.125  52.763  1.00  0.00     0.246 A 
HETATM    5  C5  UNL     1      20.819   2.100  52.734  1.00  0.00     0.088 A 
HETATM    6  C6  UNL     1      19.770   2.216  51.935  1.00  0.00     0.105 A 
HETATM    7  O4  UNL     1      21.969   0.405  53.959  1.00  0.00    -0.231 OA
HETATM    8  N1  UNL     1      22.807  -0.637  53.723  1.00  0.00    -0.273 N 
HETATM    9  C8  UNL     1      24.160  -0.405  53.348  1.00  0.00     0.129 C 
HETATM   10  C9  UNL     1      24.350   0.782  52.792  1.00  0.00     0.032 C 
HETATM   11  C11 UNL     1      23.255   1.731  52.598  1.00  0.00     0.040 C 
HETATM   12  C12 UNL     1      23.549   3.007  52.302  1.00  0.00     0.102 C 
HETATM   13  H9  UNL     1      22.413  -1.618  53.827  1.00  0.00     0.193 HD
ENDROOT
BRANCH  10  14
HETATM   14  C10 UNL     1      25.693   1.073  52.394  1.00  0.00     0.272 C 
HETATM   15  O5  UNL     1      26.463   0.198  51.972  1.00  0.00    -0.301 OA
ENDBRANCH  10  14
BRANCH  12  16
HETATM   16  N2  UNL     1      24.637   3.916  52.074  1.00  0.00    -0.365 N 
HETATM   17  H13 UNL     1      25.449   4.091  52.721  1.00  0.00     0.165 HD
BRANCH  16  18
HETATM   18  C13 UNL     1      24.661   4.671  50.874  1.00  0.00     0.035 A 
HETATM   19  C14 UNL     1      25.368   4.497  49.787  1.00  0.00    -0.052 A 
HETATM   20  C15 UNL     1      26.361   3.417  49.538  1.00  0.00     0.046 C 
HETATM   21  C16 UNL     1      25.005   5.586  48.816  1.00  0.00     0.082 A 
HETATM   22  C17 UNL     1      23.985   6.367  49.573  1.00  0.00    -0.005 A 
HETATM   23 BR1  UNL     1      23.180   7.911  48.753  1.00  0.00    -0.055 Br
HETATM   24  C18 UNL     1      23.796   5.833  50.751  1.00  0.00     0.044 A 
ENDBRANCH  16  18
ENDBRANCH  12  16
BRANCH   6  25
HETATM   25  O3  UNL     1      18.817   3.219  52.029  1.00  0.00    -0.353 OA
HETATM   26  C7  UNL     1      18.651   4.212  51.044  1.00  0.00     0.210 C 
ENDBRANCH   6  25
BRANCH   1  27
HETATM   27  O1  UNL     1      18.693   1.111  49.997  1.00  0.00    -0.351 OA
HETATM   28  C1  UNL     1      17.449   0.492  50.141  1.00  0.00     0.210 C 
ENDBRANCH   1  27
TORSDOF 5
ENDMDL
MODEL 8
REMARK VINA RESULT:      -6.9      2.403      4.746
REMARK  5 active torsions:
REMARK  status: ('A' for Active; 'I' for Inactive)
REMARK    1  A    between atoms: O1_2  and  C2_3 
REMARK    2  A    between atoms: C6_8  and  O3_9 
REMARK    3  A    between atoms: C9_14  and  C10_15 
REMARK    4  A    between atoms: C12_18  and  N2_19 
REMARK    5  A    between atoms: N2_19  and  C13_20 
ROOT
HETATM    1  C2  UNL     1      18.631   1.801  51.008  1.00  0.00     0.123 A 
HETATM    2  C3  UNL     1      19.165   2.692  50.190  1.00  0.00     0.178 A 
HETATM    3  O2  UNL     1      20.410   2.602  49.589  1.00  0.00    -0.313 OA
HETATM    4  C4  UNL     1      21.220   1.476  49.840  1.00  0.00     0.246 A 
HETATM    5  C5  UNL     1      20.568   0.549  50.740  1.00  0.00     0.088 A 
HETATM    6  C6  UNL     1      19.386   0.599  51.332  1.00  0.00     0.105 A 
HETATM    7  O4  UNL     1      21.521   0.936  48.586  1.00  0.00    -0.231 OA
HETATM    8  N1  UNL     1      21.852   1.983  47.787  1.00  0.00    -0.273 N 
HETATM    9  C8  UNL     1      22.969   2.806  48.102  1.00  0.00     0.129 C 
HETATM   10  C9  UNL     1      23.288   2.782  49.388  1.00  0.00     0.032 C 
HETATM   11  C11 UNL     1      22.543   1.979  50.355  1.00  0.00     0.040 C 
HETATM   12  C12 UNL     1      23.076   1.768  51.569  1.00  0.00     0.102 C 
HETATM   13  H9  UNL     1      21.248   2.159  46.931  1.00  0.00     0.193 HD
ENDROOT
BRANCH  10  14
HETATM   14  C10 UNL     1      24.406   3.591  49.765  1.00  0.00     0.272 C 
HETATM   15  O5  UNL     1      25.573   3.175  49.709  1.00  0.00    -0.301 OA
ENDBRANCH  10  14
BRANCH  12  16
HETATM   16  N2  UNL     1      24.221   2.049  52.389  1.00  0.00    -0.365 N 
HETATM   17  H13 UNL     1      24.566   3.003  52.672  1.00  0.00     0.165 HD
BRANCH  16  18
HETATM   18  C13 UNL     1      24.991   0.968  52.887  1.00  0.00     0.035 A 
HETATM   19  C14 UNL     1      24.611  -0.115  53.514  1.00  0.00    -0.052 A 
HETATM   20  C15 UNL     1      23.215  -0.489  53.870  1.00  0.00     0.046 C 
HETATM   21  C16 UNL     1      25.836  -0.933  53.819  1.00  0.00     0.082 A 
HETATM   22  C17 UNL     1      26.931  -0.099  53.247  1.00  0.00    -0.005 A 
HETATM   23 BR1  UNL     1      28.750  -0.713  53.376  1.00  0.00    -0.055 Br
HETATM   24  C18 UNL     1      26.436   0.989  52.715  1.00  0.00     0.044 A 
ENDBRANCH  16  18
ENDBRANCH  12  16
BRANCH   6  25
HETATM   25  O3  UNL     1      18.889  -0.378  52.181  1.00  0.00    -0.353 OA
HETATM   26  C7  UNL     1      19.465  -0.669  53.433  1.00  0.00     0.210 C 
ENDBRANCH   6  25
BRANCH   1  27
HETATM   27  O1  UNL     1      17.384   2.047  51.515  1.00  0.00    -0.351 OA
HETATM   28  C1  UNL     1      16.769   3.291  51.679  1.00  0.00     0.210 C 
ENDBRANCH   1  27
TORSDOF 5
ENDMDL
MODEL 9
REMARK VINA RESULT:      -6.6      4.001      6.099
REMARK  5 active torsions:
REMARK  status: ('A' for Active; 'I' for Inactive)
REMARK    1  A    between atoms: O1_2  and  C2_3 
REMARK    2  A    between atoms: C6_8  and  O3_9 
REMARK    3  A    between atoms: C9_14  and  C10_15 
REMARK    4  A    between atoms: C12_18  and  N2_19 
REMARK    5  A    between atoms: N2_19  and  C13_20 
ROOT
HETATM    1  C2  UNL     1      21.120   3.641  49.060  1.00  0.00     0.123 A 
HETATM    2  C3  UNL     1      21.652   2.527  49.532  1.00  0.00     0.178 A 
HETATM    3  O2  UNL     1      22.645   2.442  50.494  1.00  0.00    -0.313 OA
HETATM    4  C4  UNL     1      23.172   3.626  51.050  1.00  0.00     0.246 A 
HETATM    5  C5  UNL     1      22.542   4.799  50.485  1.00  0.00     0.088 A 
HETATM    6  C6  UNL     1      21.594   4.920  49.570  1.00  0.00     0.105 A 
HETATM    7  O4  UNL     1      23.007   3.501  52.434  1.00  0.00    -0.231 OA
HETATM    8  N1  UNL     1      23.394   2.240  52.754  1.00  0.00    -0.273 N 
HETATM    9  C8  UNL     1      24.728   1.809  52.509  1.00  0.00     0.129 C 
HETATM   10  C9  UNL     1      25.333   2.503  51.556  1.00  0.00     0.032 C 
HETATM   11  C11 UNL     1      24.664   3.592  50.849  1.00  0.00     0.040 C 
HETATM   12  C12 UNL     1      25.403   4.435  50.110  1.00  0.00     0.102 C 
HETATM   13  H9  UNL     1      22.667   1.597  53.186  1.00  0.00     0.193 HD
ENDROOT
BRANCH  10  14
HETATM   14  C10 UNL     1      26.679   2.116  51.266  1.00  0.00     0.272 C 
HETATM   15  O5  UNL     1      27.642   2.513  51.939  1.00  0.00    -0.301 OA
ENDBRANCH  10  14
BRANCH  12  16
HETATM   16  N2  UNL     1      26.746   4.725  49.691  1.00  0.00    -0.365 N 
HETATM   17  H13 UNL     1      27.615   4.207  49.980  1.00  0.00     0.165 HD
BRANCH  16  18
HETATM   18  C13 UNL     1      26.969   5.806  48.801  1.00  0.00     0.035 A 
HETATM   19  C14 UNL     1      28.064   6.179  48.191  1.00  0.00    -0.052 A 
HETATM   20  C15 UNL     1      29.399   5.528  48.289  1.00  0.00     0.046 C 
HETATM   21  C16 UNL     1      27.746   7.392  47.360  1.00  0.00     0.082 A 
HETATM   22  C17 UNL     1      26.295   7.599  47.634  1.00  0.00    -0.005 A 
HETATM   23 BR1  UNL     1      25.376   9.064  46.790  1.00  0.00    -0.055 Br
HETATM   24  C18 UNL     1      25.860   6.684  48.461  1.00  0.00     0.044 A 
ENDBRANCH  16  18
ENDBRANCH  12  16
BRANCH   6  25
HETATM   25  O3  UNL     1      21.082   6.127  49.121  1.00  0.00    -0.353 OA
HETATM   26  C7  UNL     1      21.130   7.310  49.885  1.00  0.00     0.210 C 
ENDBRANCH   6  25
BRANCH   1  27
HETATM   27  O1  UNL     1      20.143   3.544  48.107  1.00  0.00    -0.351 OA
HETATM   28  C1  UNL     1      20.308   3.565  46.720  1.00  0.00     0.210 C 
ENDBRANCH   1  27
TORSDOF 5
ENDMDL
