MODEL 1
REMARK VINA RESULT:      -8.4      0.000      0.000
REMARK  6 active torsions:
REMARK  status: ('A' for Active; 'I' for Inactive)
REMARK    1  A    between atoms: O1_2  and  C2_3 
REMARK    2  A    between atoms: C2_3  and  C3_4 
REMARK    3  A    between atoms: C3_4  and  O2_5 
REMARK    4  A    between atoms: O2_5  and  C4_6 
REMARK    5  A    between atoms: C8_13  and  C9_14 
REMARK    6  A    between atoms: C13_18  and  O3_19 
ROOT
HETATM    1  C4  UNL     1      26.135   0.952  53.822  1.00  0.00     0.103 A 
HETATM    2  C5  UNL     1      25.728  -0.178  54.373  1.00  0.00     0.046 A 
HETATM    3  C6  UNL     1      24.421  -0.849  54.230  1.00  0.00     0.195 A 
HETATM    4  N1  UNL     1      23.772  -1.137  55.470  1.00  0.00    -0.178 NA
HETATM    5  N2  UNL     1      22.617  -1.622  55.643  1.00  0.00    -0.147 NA
HETATM    6  C7  UNL     1      21.716  -1.980  54.566  1.00  0.00     0.257 C 
HETATM    7  N3  UNL     1      21.599  -1.364  53.430  1.00  0.00    -0.239 NA
HETATM    8  C8  UNL     1      22.332  -0.202  53.002  1.00  0.00     0.080 C 
HETATM    9  C16 UNL     1      23.583   0.011  53.364  1.00  0.00     0.038 A 
HETATM   10  C17 UNL     1      23.994   1.247  52.724  1.00  0.00     0.116 A 
HETATM   11  C18 UNL     1      25.219   1.686  52.958  1.00  0.00     0.136 A 
HETATM   12  O4  UNL     1      25.757   2.858  52.422  1.00  0.00    -0.344 OA
HETATM   13  C19 UNL     1      25.077   3.361  51.257  1.00  0.00     0.202 C 
HETATM   14  C20 UNL     1      23.604   3.366  51.664  1.00  0.00     0.202 C 
HETATM   15  O5  UNL     1      23.220   2.017  51.883  1.00  0.00    -0.345 OA
ENDROOT
BRANCH   8  16
HETATM   16  C9  UNL     1      21.491   0.715  52.191  1.00  0.00    -0.004 A 
HETATM   17  C10 UNL     1      21.508   0.368  50.831  1.00  0.00     0.014 A 
HETATM   18  C11 UNL     1      20.730   1.055  49.901  1.00  0.00     0.004 A 
HETATM   19  C12 UNL     1      19.951   2.078  50.348  1.00  0.00     0.037 A 
HETATM   20  C13 UNL     1      19.928   2.424  51.670  1.00  0.00     0.069 A 
HETATM   21  C15 UNL     1      20.676   1.778  52.629  1.00  0.00     0.050 A 
BRANCH  20  22
HETATM   22  O3  UNL     1      19.151   3.459  52.177  1.00  0.00    -0.356 OA
HETATM   23  C14 UNL     1      17.937   3.720  51.478  1.00  0.00     0.210 C 
ENDBRANCH  20  22
ENDBRANCH   8  16
BRANCH   1  24
HETATM   24  O2  UNL     1      27.433   1.302  54.162  1.00  0.00    -0.346 OA
BRANCH  24  25
HETATM   25  C3  UNL     1      28.346   0.312  54.583  1.00  0.00     0.201 C 
BRANCH  25  26
HETATM   26  C2  UNL     1      29.611   0.272  53.787  1.00  0.00     0.193 C 
BRANCH  26  27
HETATM   27  O1  UNL     1      30.183  -0.999  53.745  1.00  0.00    -0.394 OA
HETATM   28  C1  UNL     1      29.150  -1.846  53.286  1.00  0.00     0.201 C 
ENDBRANCH  26  27
ENDBRANCH  25  26
ENDBRANCH  24  25
ENDBRANCH   1  24
TORSDOF 6
ENDMDL
MODEL 2
REMARK VINA RESULT:      -7.7      1.870      2.242
REMARK  6 active torsions:
REMARK  status: ('A' for Active; 'I' for Inactive)
REMARK    1  A    between atoms: O1_2  and  C2_3 
REMARK    2  A    between atoms: C2_3  and  C3_4 
REMARK    3  A    between atoms: C3_4  and  O2_5 
REMARK    4  A    between atoms: O2_5  and  C4_6 
REMARK    5  A    between atoms: C8_13  and  C9_14 
REMARK    6  A    between atoms: C13_18  and  O3_19 
ROOT
HETATM    1  C4  UNL     1      25.702  -0.180  53.288  1.00  0.00     0.103 A 
HETATM    2  C5  UNL     1      24.689  -0.889  53.755  1.00  0.00     0.046 A 
HETATM    3  C6  UNL     1      23.247  -0.709  53.496  1.00  0.00     0.195 A 
HETATM    4  N1  UNL     1      22.450  -0.590  54.675  1.00  0.00    -0.178 NA
HETATM    5  N2  UNL     1      21.212  -0.341  54.750  1.00  0.00    -0.147 NA
HETATM    6  C7  UNL     1      20.356  -0.126  53.601  1.00  0.00     0.257 C 
HETATM    7  N3  UNL     1      20.697   0.457  52.492  1.00  0.00    -0.239 NA
HETATM    8  C8  UNL     1      21.987   1.008  52.171  1.00  0.00     0.080 C 
HETATM    9  C16 UNL     1      23.107   0.479  52.622  1.00  0.00     0.038 A 
HETATM   10  C17 UNL     1      24.190   1.274  52.073  1.00  0.00     0.116 A 
HETATM   11  C18 UNL     1      25.427   0.947  52.406  1.00  0.00     0.136 A 
HETATM   12  O4  UNL     1      26.571   1.617  51.965  1.00  0.00    -0.344 OA
HETATM   13  C19 UNL     1      26.386   2.422  50.786  1.00  0.00     0.202 C 
HETATM   14  C20 UNL     1      25.141   3.251  51.098  1.00  0.00     0.202 C 
HETATM   15  O5  UNL     1      24.051   2.351  51.224  1.00  0.00    -0.345 OA
ENDROOT
BRANCH   8  16
HETATM   16  C9  UNL     1      21.872   2.243  51.355  1.00  0.00    -0.004 A 
HETATM   17  C10 UNL     1      21.809   1.956  49.983  1.00  0.00     0.014 A 
HETATM   18  C11 UNL     1      21.629   2.967  49.041  1.00  0.00     0.004 A 
HETATM   19  C12 UNL     1      21.517   4.247  49.488  1.00  0.00     0.037 A 
HETATM   20  C13 UNL     1      21.578   4.538  50.822  1.00  0.00     0.069 A 
HETATM   21  C15 UNL     1      21.754   3.578  51.793  1.00  0.00     0.050 A 
BRANCH  20  22
HETATM   22  O3  UNL     1      21.469   5.828  51.330  1.00  0.00    -0.356 OA
HETATM   23  C14 UNL     1      21.528   6.878  50.369  1.00  0.00     0.210 C 
ENDBRANCH  20  22
ENDBRANCH   8  16
BRANCH   1  24
HETATM   24  O2  UNL     1      26.941  -0.622  53.728  1.00  0.00    -0.346 OA
BRANCH  24  25
HETATM   25  C3  UNL     1      27.561  -0.004  54.833  1.00  0.00     0.201 C 
BRANCH  25  26
HETATM   26  C2  UNL     1      28.981   0.399  54.590  1.00  0.00     0.193 C 
BRANCH  26  27
HETATM   27  O1  UNL     1      29.232   1.726  54.936  1.00  0.00    -0.394 OA
HETATM   28  C1  UNL     1      28.925   2.468  53.774  1.00  0.00     0.201 C 
ENDBRANCH  26  27
ENDBRANCH  25  26
ENDBRANCH  24  25
ENDBRANCH   1  24
TORSDOF 6
ENDMDL
MODEL 3
REMARK VINA RESULT:      -7.3      2.820      4.033
REMARK  6 active torsions:
REMARK  status: ('A' for Active; 'I' for Inactive)
REMARK    1  A    between atoms: O1_2  and  C2_3 
REMARK    2  A    between atoms: C2_3  and  C3_4 
REMARK    3  A    between atoms: C3_4  and  O2_5 
REMARK    4  A    between atoms: O2_5  and  C4_6 
REMARK    5  A    between atoms: C8_13  and  C9_14 
REMARK    6  A    between atoms: C13_18  and  O3_19 
ROOT
HETATM    1  C4  UNL     1      26.088   0.161  53.057  1.00  0.00     0.103 A 
HETATM    2  C5  UNL     1      26.749   1.123  52.439  1.00  0.00     0.046 A 
HETATM    3  C6  UNL     1      26.205   2.281  51.701  1.00  0.00     0.195 A 
HETATM    4  N1  UNL     1      26.697   2.408  50.366  1.00  0.00    -0.178 NA
HETATM    5  N2  UNL     1      26.340   3.245  49.487  1.00  0.00    -0.147 NA
HETATM    6  C7  UNL     1      25.325   4.259  49.695  1.00  0.00     0.257 C 
HETATM    7  N3  UNL     1      24.256   4.134  50.420  1.00  0.00    -0.239 NA
HETATM    8  C8  UNL     1      23.854   2.970  51.166  1.00  0.00     0.080 C 
HETATM    9  C16 UNL     1      24.729   2.160  51.729  1.00  0.00     0.038 A 
HETATM   10  C17 UNL     1      23.964   1.132  52.409  1.00  0.00     0.116 A 
HETATM   11  C18 UNL     1      24.631   0.179  53.037  1.00  0.00     0.136 A 
HETATM   12  O4  UNL     1      24.039  -0.879  53.731  1.00  0.00    -0.344 OA
HETATM   13  C19 UNL     1      22.665  -0.667  54.104  1.00  0.00     0.202 C 
HETATM   14  C20 UNL     1      22.001  -0.191  52.812  1.00  0.00     0.202 C 
HETATM   15  O5  UNL     1      22.589   1.054  52.466  1.00  0.00    -0.345 OA
ENDROOT
BRANCH   8  16
HETATM   16  C9  UNL     1      22.380   2.785  51.147  1.00  0.00    -0.004 A 
HETATM   17  C10 UNL     1      21.747   3.558  52.133  1.00  0.00     0.014 A 
HETATM   18  C11 UNL     1      20.358   3.587  52.245  1.00  0.00     0.004 A 
HETATM   19  C12 UNL     1      19.629   2.842  51.371  1.00  0.00     0.037 A 
HETATM   20  C13 UNL     1      20.235   2.085  50.409  1.00  0.00     0.069 A 
HETATM   21  C15 UNL     1      21.602   2.021  50.255  1.00  0.00     0.050 A 
BRANCH  20  22
HETATM   22  O3  UNL     1      19.536   1.306  49.494  1.00  0.00    -0.356 OA
HETATM   23  C14 UNL     1      18.199   0.974  49.859  1.00  0.00     0.210 C 
ENDBRANCH  20  22
ENDBRANCH   8  16
BRANCH   1  24
HETATM   24  O2  UNL     1      26.910  -0.780  53.661  1.00  0.00    -0.346 OA
BRANCH  24  25
HETATM   25  C3  UNL     1      28.167  -1.085  53.099  1.00  0.00     0.201 C 
BRANCH  25  26
HETATM   26  C2  UNL     1      29.329  -0.654  53.936  1.00  0.00     0.193 C 
BRANCH  26  27
HETATM   27  O1  UNL     1      28.954   0.165  55.001  1.00  0.00    -0.394 OA
HETATM   28  C1  UNL     1      29.415   1.452  54.647  1.00  0.00     0.201 C 
ENDBRANCH  26  27
ENDBRANCH  25  26
ENDBRANCH  24  25
ENDBRANCH   1  24
TORSDOF 6
ENDMDL
MODEL 4
REMARK VINA RESULT:      -7.2      2.849      4.004
REMARK  6 active torsions:
REMARK  status: ('A' for Active; 'I' for Inactive)
REMARK    1  A    between atoms: O1_2  and  C2_3 
REMARK    2  A    between atoms: C2_3  and  C3_4 
REMARK    3  A    between atoms: C3_4  and  O2_5 
REMARK    4  A    between atoms: O2_5  and  C4_6 
REMARK    5  A    between atoms: C8_13  and  C9_14 
REMARK    6  A    between atoms: C13_18  and  O3_19 
ROOT
HETATM    1  C4  UNL     1      25.628   0.632  52.927  1.00  0.00     0.103 A 
HETATM    2  C5  UNL     1      26.394   1.594  52.443  1.00  0.00     0.046 A 
HETATM    3  C6  UNL     1      26.017   2.696  51.536  1.00  0.00     0.195 A 
HETATM    4  N1  UNL     1      26.821   2.787  50.359  1.00  0.00    -0.178 NA
HETATM    5  N2  UNL     1      26.669   3.570  49.378  1.00  0.00    -0.147 NA
HETATM    6  C7  UNL     1      25.606   4.551  49.278  1.00  0.00     0.257 C 
HETATM    7  N3  UNL     1      24.394   4.413  49.722  1.00  0.00    -0.239 NA
HETATM    8  C8  UNL     1      23.853   3.267  50.404  1.00  0.00     0.080 C 
HETATM    9  C16 UNL     1      24.584   2.517  51.205  1.00  0.00     0.038 A 
HETATM   10  C17 UNL     1      23.704   1.488  51.727  1.00  0.00     0.116 A 
HETATM   11  C18 UNL     1      24.221   0.590  52.549  1.00  0.00     0.136 A 
HETATM   12  O4  UNL     1      23.506  -0.460  53.127  1.00  0.00    -0.344 OA
HETATM   13  C19 UNL     1      22.077  -0.288  53.139  1.00  0.00     0.202 C 
HETATM   14  C20 UNL     1      21.742   0.106  51.701  1.00  0.00     0.202 C 
HETATM   15  O5  UNL     1      22.360   1.357  51.448  1.00  0.00    -0.345 OA
ENDROOT
BRANCH   8  16
HETATM   16  C9  UNL     1      22.436   3.021  50.032  1.00  0.00    -0.004 A 
HETATM   17  C10 UNL     1      22.331   2.194  48.903  1.00  0.00     0.014 A 
HETATM   18  C11 UNL     1      21.089   1.779  48.425  1.00  0.00     0.004 A 
HETATM   19  C12 UNL     1      19.976   2.201  49.084  1.00  0.00     0.037 A 
HETATM   20  C13 UNL     1      20.067   3.007  50.183  1.00  0.00     0.069 A 
HETATM   21  C15 UNL     1      21.268   3.445  50.696  1.00  0.00     0.050 A 
BRANCH  20  22
HETATM   22  O3  UNL     1      18.961   3.466  50.891  1.00  0.00    -0.356 OA
HETATM   23  C14 UNL     1      18.091   4.341  50.178  1.00  0.00     0.210 C 
ENDBRANCH  20  22
ENDBRANCH   8  16
BRANCH   1  24
HETATM   24  O2  UNL     1      26.301  -0.248  53.762  1.00  0.00    -0.346 OA
BRANCH  24  25
HETATM   25  C3  UNL     1      26.923   0.225  54.935  1.00  0.00     0.201 C 
BRANCH  25  26
HETATM   26  C2  UNL     1      28.412   0.085  54.935  1.00  0.00     0.193 C 
BRANCH  26  27
HETATM   27  O1  UNL     1      28.851  -1.018  54.204  1.00  0.00    -0.394 OA
HETATM   28  C1  UNL     1      29.964  -0.549  53.472  1.00  0.00     0.201 C 
ENDBRANCH  26  27
ENDBRANCH  25  26
ENDBRANCH  24  25
ENDBRANCH   1  24
TORSDOF 6
ENDMDL
MODEL 5
REMARK VINA RESULT:      -6.9      2.466      3.158
REMARK  6 active torsions:
REMARK  status: ('A' for Active; 'I' for Inactive)
REMARK    1  A    between atoms: O1_2  and  C2_3 
REMARK    2  A    between atoms: C2_3  and  C3_4 
REMARK    3  A    between atoms: C3_4  and  O2_5 
REMARK    4  A    between atoms: O2_5  and  C4_6 
REMARK    5  A    between atoms: C8_13  and  C9_14 
REMARK    6  A    between atoms: C13_18  and  O3_19 
ROOT
HETATM    1  C4  UNL     1      25.214   1.424  52.844  1.00  0.00     0.103 A 
HETATM    2  C5  UNL     1      24.177   0.693  53.213  1.00  0.00     0.046 A 
HETATM    3  C6  UNL     1      22.872   0.546  52.537  1.00  0.00     0.195 A 
HETATM    4  N1  UNL     1      21.746   0.823  53.371  1.00  0.00    -0.178 NA
HETATM    5  N2  UNL     1      20.527   0.861  53.036  1.00  0.00    -0.147 NA
HETATM    6  C7  UNL     1      20.047   0.621  51.690  1.00  0.00     0.257 C 
HETATM    7  N3  UNL     1      20.654   0.949  50.591  1.00  0.00    -0.239 NA
HETATM    8  C8  UNL     1      21.924   1.616  50.476  1.00  0.00     0.080 C 
HETATM    9  C16 UNL     1      22.897   1.425  51.345  1.00  0.00     0.038 A 
HETATM   10  C17 UNL     1      24.019   2.229  50.895  1.00  0.00     0.116 A 
HETATM   11  C18 UNL     1      25.120   2.220  51.626  1.00  0.00     0.136 A 
HETATM   12  O4  UNL     1      26.277   2.943  51.328  1.00  0.00    -0.344 OA
HETATM   13  C19 UNL     1      26.387   3.373  49.959  1.00  0.00     0.202 C 
HETATM   14  C20 UNL     1      25.036   4.024  49.667  1.00  0.00     0.202 C 
HETATM   15  O5  UNL     1      24.047   3.010  49.759  1.00  0.00    -0.345 OA
ENDROOT
BRANCH   8  16
HETATM   16  C9  UNL     1      21.951   2.561  49.331  1.00  0.00    -0.004 A 
HETATM   17  C10 UNL     1      22.283   1.913  48.131  1.00  0.00     0.014 A 
HETATM   18  C11 UNL     1      22.297   2.601  46.919  1.00  0.00     0.004 A 
HETATM   19  C12 UNL     1      21.980   3.924  46.929  1.00  0.00     0.037 A 
HETATM   20  C13 UNL     1      21.655   4.564  48.092  1.00  0.00     0.069 A 
HETATM   21  C15 UNL     1      21.626   3.932  49.315  1.00  0.00     0.050 A 
BRANCH  20  22
HETATM   22  O3  UNL     1      21.324   5.913  48.157  1.00  0.00    -0.356 OA
HETATM   23  C14 UNL     1      21.973   6.659  49.184  1.00  0.00     0.210 C 
ENDBRANCH  20  22
ENDBRANCH   8  16
BRANCH   1  24
HETATM   24  O2  UNL     1      26.295   1.333  53.708  1.00  0.00    -0.346 OA
BRANCH  24  25
HETATM   25  C3  UNL     1      27.103   0.177  53.711  1.00  0.00     0.201 C 
BRANCH  25  26
HETATM   26  C2  UNL     1      28.062   0.106  54.856  1.00  0.00     0.193 C 
BRANCH  26  27
HETATM   27  O1  UNL     1      29.325   0.604  54.535  1.00  0.00    -0.394 OA
HETATM   28  C1  UNL     1      29.777  -0.212  53.474  1.00  0.00     0.201 C 
ENDBRANCH  26  27
ENDBRANCH  25  26
ENDBRANCH  24  25
ENDBRANCH   1  24
TORSDOF 6
ENDMDL
MODEL 6
REMARK VINA RESULT:      -6.7      3.429      4.451
REMARK  6 active torsions:
REMARK  status: ('A' for Active; 'I' for Inactive)
REMARK    1  A    between atoms: O1_2  and  C2_3 
REMARK    2  A    between atoms: C2_3  and  C3_4 
REMARK    3  A    between atoms: C3_4  and  O2_5 
REMARK    4  A    between atoms: O2_5  and  C4_6 
REMARK    5  A    between atoms: C8_13  and  C9_14 
REMARK    6  A    between atoms: C13_18  and  O3_19 
ROOT
HETATM    1  C4  UNL     1      26.051   1.907  51.437  1.00  0.00     0.103 A 
HETATM    2  C5  UNL     1      24.953   1.283  51.826  1.00  0.00     0.046 A 
HETATM    3  C6  UNL     1      23.552   1.588  51.474  1.00  0.00     0.195 A 
HETATM    4  N1  UNL     1      22.691   1.765  52.599  1.00  0.00    -0.178 NA
HETATM    5  N2  UNL     1      21.476   2.117  52.595  1.00  0.00    -0.147 NA
HETATM    6  C7  UNL     1      20.720   2.413  51.394  1.00  0.00     0.257 C 
HETATM    7  N3  UNL     1      21.183   2.973  50.318  1.00  0.00    -0.239 NA
HETATM    8  C8  UNL     1      22.533   3.415  50.090  1.00  0.00     0.080 C 
HETATM    9  C16 UNL     1      23.572   2.789  50.608  1.00  0.00     0.038 A 
HETATM   10  C17 UNL     1      24.753   3.493  50.143  1.00  0.00     0.116 A 
HETATM   11  C18 UNL     1      25.933   3.060  50.553  1.00  0.00     0.136 A 
HETATM   12  O4  UNL     1      27.156   3.633  50.198  1.00  0.00    -0.344 OA
HETATM   13  C19 UNL     1      27.120   4.460  49.020  1.00  0.00     0.202 C 
HETATM   14  C20 UNL     1      25.931   5.390  49.259  1.00  0.00     0.202 C 
HETATM   15  O5  UNL     1      24.763   4.585  49.301  1.00  0.00    -0.345 OA
ENDROOT
BRANCH   8  16
HETATM   16  C9  UNL     1      22.578   4.662  49.285  1.00  0.00    -0.004 A 
HETATM   17  C10 UNL     1      22.524   4.393  47.909  1.00  0.00     0.014 A 
HETATM   18  C11 UNL     1      22.483   5.425  46.973  1.00  0.00     0.004 A 
HETATM   19  C12 UNL     1      22.499   6.706  47.431  1.00  0.00     0.037 A 
HETATM   20  C13 UNL     1      22.553   6.979  48.768  1.00  0.00     0.069 A 
HETATM   21  C15 UNL     1      22.595   5.998  49.734  1.00  0.00     0.050 A 
BRANCH  20  22
HETATM   22  O3  UNL     1      22.573   8.269  49.288  1.00  0.00    -0.356 OA
HETATM   23  C14 UNL     1      21.977   9.272  48.470  1.00  0.00     0.210 C 
ENDBRANCH  20  22
ENDBRANCH   8  16
BRANCH   1  24
HETATM   24  O2  UNL     1      27.216   1.358  51.953  1.00  0.00    -0.346 OA
BRANCH  24  25
HETATM   25  C3  UNL     1      27.162   0.173  52.715  1.00  0.00     0.201 C 
BRANCH  25  26
HETATM   26  C2  UNL     1      28.264   0.042  53.717  1.00  0.00     0.193 C 
BRANCH  26  27
HETATM   27  O1  UNL     1      27.807  -0.361  54.972  1.00  0.00    -0.394 OA
HETATM   28  C1  UNL     1      26.494   0.153  55.062  1.00  0.00     0.201 C 
ENDBRANCH  26  27
ENDBRANCH  25  26
ENDBRANCH  24  25
ENDBRANCH   1  24
TORSDOF 6
ENDMDL
MODEL 7
REMARK VINA RESULT:      -6.6      3.293      5.131
REMARK  6 active torsions:
REMARK  status: ('A' for Active; 'I' for Inactive)
REMARK    1  A    between atoms: O1_2  and  C2_3 
REMARK    2  A    between atoms: C2_3  and  C3_4 
REMARK    3  A    between atoms: C3_4  and  O2_5 
REMARK    4  A    between atoms: O2_5  and  C4_6 
REMARK    5  A    between atoms: C8_13  and  C9_14 
REMARK    6  A    between atoms: C13_18  and  O3_19 
ROOT
HETATM    1  C4  UNL     1      25.773   4.350  49.392  1.00  0.00     0.103 A 
HETATM    2  C5  UNL     1      26.383   3.534  50.234  1.00  0.00     0.046 A 
HETATM    3  C6  UNL     1      25.790   2.471  51.070  1.00  0.00     0.195 A 
HETATM    4  N1  UNL     1      26.103   2.578  52.460  1.00  0.00    -0.178 NA
HETATM    5  N2  UNL     1      25.664   1.865  53.408  1.00  0.00    -0.147 NA
HETATM    6  C7  UNL     1      24.728   0.772  53.237  1.00  0.00     0.257 C 
HETATM    7  N3  UNL     1      23.761   0.722  52.371  1.00  0.00    -0.239 NA
HETATM    8  C8  UNL     1      23.417   1.732  51.406  1.00  0.00     0.080 C 
HETATM    9  C16 UNL     1      24.328   2.498  50.838  1.00  0.00     0.038 A 
HETATM   10  C17 UNL     1      23.621   3.363  49.912  1.00  0.00     0.116 A 
HETATM   11  C18 UNL     1      24.329   4.248  49.230  1.00  0.00     0.136 A 
HETATM   12  O4  UNL     1      23.794   5.151  48.308  1.00  0.00    -0.344 OA
HETATM   13  C19 UNL     1      22.492   4.803  47.802  1.00  0.00     0.202 C 
HETATM   14  C20 UNL     1      21.680   4.490  49.059  1.00  0.00     0.202 C 
HETATM   15  O5  UNL     1      22.264   3.350  49.669  1.00  0.00    -0.345 OA
ENDROOT
BRANCH   8  16
HETATM   16  C9  UNL     1      21.949   1.830  51.209  1.00  0.00    -0.004 A 
HETATM   17  C10 UNL     1      21.482   0.865  50.303  1.00  0.00     0.014 A 
HETATM   18  C11 UNL     1      20.122   0.734  50.025  1.00  0.00     0.004 A 
HETATM   19  C12 UNL     1      19.255   1.571  50.657  1.00  0.00     0.037 A 
HETATM   20  C13 UNL     1      19.700   2.515  51.540  1.00  0.00     0.069 A 
HETATM   21  C15 UNL     1      21.031   2.686  51.850  1.00  0.00     0.050 A 
BRANCH  20  22
HETATM   22  O3  UNL     1      18.857   3.394  52.211  1.00  0.00    -0.356 OA
HETATM   23  C14 UNL     1      17.676   3.773  51.510  1.00  0.00     0.210 C 
ENDBRANCH  20  22
ENDBRANCH   8  16
BRANCH   1  24
HETATM   24  O2  UNL     1      26.631   5.235  48.756  1.00  0.00    -0.346 OA
BRANCH  24  25
HETATM   25  C3  UNL     1      26.646   6.596  49.126  1.00  0.00     0.201 C 
BRANCH  25  26
HETATM   26  C2  UNL     1      27.776   7.377  48.535  1.00  0.00     0.193 C 
BRANCH  26  27
HETATM   27  O1  UNL     1      28.137   8.477  49.314  1.00  0.00    -0.394 OA
HETATM   28  C1  UNL     1      26.963   8.826  50.016  1.00  0.00     0.201 C 
ENDBRANCH  26  27
ENDBRANCH  25  26
ENDBRANCH  24  25
ENDBRANCH   1  24
TORSDOF 6
ENDMDL
MODEL 8
REMARK VINA RESULT:      -6.4     10.147     13.378
REMARK  6 active torsions:
REMARK  status: ('A' for Active; 'I' for Inactive)
REMARK    1  A    between atoms: O1_2  and  C2_3 
REMARK    2  A    between atoms: C2_3  and  C3_4 
REMARK    3  A    between atoms: C3_4  and  O2_5 
REMARK    4  A    between atoms: O2_5  and  C4_6 
REMARK    5  A    between atoms: C8_13  and  C9_14 
REMARK    6  A    between atoms: C13_18  and  O3_19 
ROOT
HETATM    1  C4  UNL     1      31.326  10.249  48.117  1.00  0.00     0.103 A 
HETATM    2  C5  UNL     1      30.254   9.637  48.588  1.00  0.00     0.046 A 
HETATM    3  C6  UNL     1      29.986   8.187  48.661  1.00  0.00     0.195 A 
HETATM    4  N1  UNL     1      28.758   7.788  48.051  1.00  0.00    -0.178 NA
HETATM    5  N2  UNL     1      28.321   6.611  47.889  1.00  0.00    -0.147 NA
HETATM    6  C7  UNL     1      29.025   5.418  48.315  1.00  0.00     0.257 C 
HETATM    7  N3  UNL     1      30.312   5.247  48.312  1.00  0.00    -0.239 NA
HETATM    8  C8  UNL     1      31.305   6.199  47.889  1.00  0.00     0.080 C 
HETATM    9  C16 UNL     1      31.146   7.498  48.052  1.00  0.00     0.038 A 
HETATM   10  C17 UNL     1      32.349   8.129  47.540  1.00  0.00     0.116 A 
HETATM   11  C18 UNL     1      32.417   9.449  47.575  1.00  0.00     0.136 A 
HETATM   12  O4  UNL     1      33.501  10.200  47.117  1.00  0.00    -0.344 OA
HETATM   13  C19 UNL     1      34.735   9.470  46.991  1.00  0.00     0.202 C 
HETATM   14  C20 UNL     1      34.344   8.217  46.208  1.00  0.00     0.202 C 
HETATM   15  O5  UNL     1      33.443   7.475  47.016  1.00  0.00    -0.345 OA
ENDROOT
BRANCH   8  16
HETATM   16  C9  UNL     1      32.448   5.539  47.208  1.00  0.00    -0.004 A 
HETATM   17  C10 UNL     1      33.385   5.044  48.128  1.00  0.00     0.014 A 
HETATM   18  C11 UNL     1      34.502   4.326  47.705  1.00  0.00     0.004 A 
HETATM   19  C12 UNL     1      34.662   4.117  46.370  1.00  0.00     0.037 A 
HETATM   20  C13 UNL     1      33.756   4.595  45.466  1.00  0.00     0.069 A 
HETATM   21  C15 UNL     1      32.636   5.310  45.830  1.00  0.00     0.050 A 
BRANCH  20  22
HETATM   22  O3  UNL     1      33.873   4.411  44.092  1.00  0.00    -0.356 OA
HETATM   23  C14 UNL     1      33.132   5.319  43.282  1.00  0.00     0.210 C 
ENDBRANCH  20  22
ENDBRANCH   8  16
BRANCH   1  24
HETATM   24  O2  UNL     1      31.259  11.633  48.202  1.00  0.00    -0.346 OA
BRANCH  24  25
HETATM   25  C3  UNL     1      30.427  12.243  49.164  1.00  0.00     0.201 C 
BRANCH  25  26
HETATM   26  C2  UNL     1      29.350  13.101  48.582  1.00  0.00     0.193 C 
BRANCH  26  27
HETATM   27  O1  UNL     1      28.123  12.937  49.224  1.00  0.00    -0.394 OA
HETATM   28  C1  UNL     1      27.355  12.146  48.342  1.00  0.00     0.201 C 
ENDBRANCH  26  27
ENDBRANCH  25  26
ENDBRANCH  24  25
ENDBRANCH   1  24
TORSDOF 6
ENDMDL
MODEL 9
REMARK VINA RESULT:      -6.4      7.250      9.978
REMARK  6 active torsions:
REMARK  status: ('A' for Active; 'I' for Inactive)
REMARK    1  A    between atoms: O1_2  and  C2_3 
REMARK    2  A    between atoms: C2_3  and  C3_4 
REMARK    3  A    between atoms: C3_4  and  O2_5 
REMARK    4  A    between atoms: O2_5  and  C4_6 
REMARK    5  A    between atoms: C8_13  and  C9_14 
REMARK    6  A    between atoms: C13_18  and  O3_19 
ROOT
HETATM    1  C4  UNL     1      26.953   4.740  49.116  1.00  0.00     0.103 A 
HETATM    2  C5  UNL     1      25.707   5.178  49.076  1.00  0.00     0.046 A 
HETATM    3  C6  UNL     1      25.195   6.431  48.485  1.00  0.00     0.195 A 
HETATM    4  N1  UNL     1      24.426   7.231  49.385  1.00  0.00    -0.178 NA
HETATM    5  N2  UNL     1      23.945   8.382  49.177  1.00  0.00    -0.147 NA
HETATM    6  C7  UNL     1      24.101   9.116  47.938  1.00  0.00     0.257 C 
HETATM    7  N3  UNL     1      25.144   9.101  47.165  1.00  0.00    -0.239 NA
HETATM    8  C8  UNL     1      26.358   8.356  47.375  1.00  0.00     0.080 C 
HETATM    9  C16 UNL     1      26.363   7.174  47.959  1.00  0.00     0.038 A 
HETATM   10  C17 UNL     1      27.743   6.722  47.967  1.00  0.00     0.116 A 
HETATM   11  C18 UNL     1      28.008   5.555  48.529  1.00  0.00     0.136 A 
HETATM   12  O4  UNL     1      29.282   4.989  48.619  1.00  0.00    -0.344 OA
HETATM   13  C19 UNL     1      30.249   5.523  47.696  1.00  0.00     0.202 C 
HETATM   14  C20 UNL     1      30.120   7.037  47.862  1.00  0.00     0.202 C 
HETATM   15  O5  UNL     1      28.818   7.402  47.434  1.00  0.00    -0.345 OA
ENDROOT
BRANCH   8  16
HETATM   16  C9  UNL     1      27.554   9.110  46.922  1.00  0.00    -0.004 A 
HETATM   17  C10 UNL     1      27.811   8.907  45.557  1.00  0.00     0.014 A 
HETATM   18  C11 UNL     1      28.847   9.577  44.910  1.00  0.00     0.004 A 
HETATM   19  C12 UNL     1      29.609  10.437  45.640  1.00  0.00     0.037 A 
HETATM   20  C13 UNL     1      29.368  10.641  46.969  1.00  0.00     0.069 A 
HETATM   21  C15 UNL     1      28.358  10.006  47.656  1.00  0.00     0.050 A 
BRANCH  20  22
HETATM   22  O3  UNL     1      30.116  11.507  47.759  1.00  0.00    -0.356 OA
HETATM   23  C14 UNL     1      30.536  10.987  49.018  1.00  0.00     0.210 C 
ENDBRANCH  20  22
ENDBRANCH   8  16
BRANCH   1  24
HETATM   24  O2  UNL     1      27.090   3.512  49.746  1.00  0.00    -0.346 OA
BRANCH  24  25
HETATM   25  C3  UNL     1      26.154   3.107  50.720  1.00  0.00     0.201 C 
BRANCH  25  26
HETATM   26  C2  UNL     1      26.697   2.145  51.727  1.00  0.00     0.193 C 
BRANCH  26  27
HETATM   27  O1  UNL     1      27.940   2.532  52.228  1.00  0.00    -0.394 OA
HETATM   28  C1  UNL     1      28.199   1.637  53.289  1.00  0.00     0.201 C 
ENDBRANCH  26  27
ENDBRANCH  25  26
ENDBRANCH  24  25
ENDBRANCH   1  24
TORSDOF 6
ENDMDL
