MODEL 1
REMARK VINA RESULT:      -8.1      0.000      0.000
REMARK  3 active torsions:
REMARK  status: ('A' for Active; 'I' for Inactive)
REMARK    1  A    between atoms: C7_8  and  C8_9 
REMARK    2  A    between atoms: C8_9  and  O1_10 
REMARK    3  A    between atoms: O1_10  and  C9_11 
ROOT
HETATM    1  C9  UNL     1      25.358   2.323  51.202  1.00  0.00     0.076 C 
HETATM    2  C10 UNL     1      26.450   2.722  50.519  1.00  0.00     0.036 C 
HETATM    3  C11 UNL     1      26.714   3.856  49.640  1.00  0.00     0.019 C 
HETATM    4  C12 UNL     1      26.013   5.003  49.644  1.00  0.00     0.088 C 
HETATM    5  N1  UNL     1      24.891   5.360  50.478  1.00  0.00    -0.367 N 
HETATM    6  C13 UNL     1      24.180   4.477  51.373  1.00  0.00     0.036 A 
HETATM    7  C14 UNL     1      23.496   4.488  52.466  1.00  0.00     0.003 A 
HETATM    8  C15 UNL     1      23.275   3.049  52.432  1.00  0.00     0.068 A 
HETATM    9  C16 UNL     1      24.052   3.063  51.182  1.00  0.00     0.130 A 
HETATM   10 CL1  UNL     1      23.097   2.672  49.726  1.00  0.00    -0.104 Cl
HETATM   11  H12 UNL     1      24.571   6.371  50.419  1.00  0.00     0.165 HD
ENDROOT
BRANCH   1  12
HETATM   12  O1  UNL     1      25.642   1.154  51.898  1.00  0.00    -0.348 OA
BRANCH  12  13
HETATM   13  C8  UNL     1      26.127   1.072  53.201  1.00  0.00     0.214 C 
BRANCH  13  14
HETATM   14  C7  UNL     1      27.420   0.301  53.260  1.00  0.00    -0.025 A 
HETATM   15  C2  UNL     1      28.625   0.933  53.481  1.00  0.00    -0.053 A 
HETATM   16  C1  UNL     1      28.598   2.419  53.659  1.00  0.00     0.049 C 
HETATM   17  C3  UNL     1      29.826   0.216  53.537  1.00  0.00     0.010 A 
HETATM   18  C4  UNL     1      29.778  -1.150  53.363  1.00  0.00     0.043 A 
HETATM   19  C5  UNL     1      28.586  -1.832  53.137  1.00  0.00     0.117 A 
HETATM   20  F1  UNL     1      28.602  -3.168  52.976  1.00  0.00    -0.206 F 
HETATM   21  C6  UNL     1      27.405  -1.083  53.089  1.00  0.00     0.052 A 
ENDBRANCH  13  14
ENDBRANCH  12  13
ENDBRANCH   1  12
TORSDOF 3
ENDMDL
MODEL 2
REMARK VINA RESULT:      -8.1      3.344      6.121
REMARK  3 active torsions:
REMARK  status: ('A' for Active; 'I' for Inactive)
REMARK    1  A    between atoms: C7_8  and  C8_9 
REMARK    2  A    between atoms: C8_9  and  O1_10 
REMARK    3  A    between atoms: O1_10  and  C9_11 
ROOT
HETATM    1  C9  UNL     1      26.763   1.002  52.580  1.00  0.00     0.076 C 
HETATM    2  C10 UNL     1      27.510   2.111  52.745  1.00  0.00     0.036 C 
HETATM    3  C11 UNL     1      28.601   2.452  53.652  1.00  0.00     0.019 C 
HETATM    4  C12 UNL     1      29.384   1.553  54.272  1.00  0.00     0.088 C 
HETATM    5  N1  UNL     1      29.330   0.113  54.188  1.00  0.00    -0.367 N 
HETATM    6  C13 UNL     1      28.298  -0.664  53.542  1.00  0.00     0.036 A 
HETATM    7  C14 UNL     1      28.112  -1.792  52.944  1.00  0.00     0.003 A 
HETATM    8  C15 UNL     1      26.700  -1.520  52.708  1.00  0.00     0.068 A 
HETATM    9  C16 UNL     1      26.936  -0.243  53.401  1.00  0.00     0.130 A 
HETATM   10 CL1  UNL     1      26.115  -0.109  54.980  1.00  0.00    -0.104 Cl
HETATM   11  H12 UNL     1      30.132  -0.410  54.648  1.00  0.00     0.165 HD
ENDROOT
BRANCH   1  12
HETATM   12  O1  UNL     1      25.842   1.203  51.560  1.00  0.00    -0.348 OA
BRANCH  12  13
HETATM   13  C8  UNL     1      24.772   2.094  51.584  1.00  0.00     0.214 C 
BRANCH  13  14
HETATM   14  C7  UNL     1      23.463   1.378  51.797  1.00  0.00    -0.025 A 
HETATM   15  C2  UNL     1      22.462   1.411  50.849  1.00  0.00    -0.053 A 
HETATM   16  C1  UNL     1      22.726   2.191  49.599  1.00  0.00     0.049 C 
HETATM   17  C3  UNL     1      21.246   0.746  51.048  1.00  0.00     0.010 A 
HETATM   18  C4  UNL     1      21.070   0.049  52.223  1.00  0.00     0.043 A 
HETATM   19  C5  UNL     1      22.051  -0.014  53.208  1.00  0.00     0.117 A 
HETATM   20  F1  UNL     1      21.820  -0.713  54.335  1.00  0.00    -0.206 F 
HETATM   21  C6  UNL     1      23.253   0.662  52.976  1.00  0.00     0.052 A 
ENDBRANCH  13  14
ENDBRANCH  12  13
ENDBRANCH   1  12
TORSDOF 3
ENDMDL
MODEL 3
REMARK VINA RESULT:      -7.9      2.628      3.674
REMARK  3 active torsions:
REMARK  status: ('A' for Active; 'I' for Inactive)
REMARK    1  A    between atoms: C7_8  and  C8_9 
REMARK    2  A    between atoms: C8_9  and  O1_10 
REMARK    3  A    between atoms: O1_10  and  C9_11 
ROOT
HETATM    1  C9  UNL     1      23.759   0.844  52.166  1.00  0.00     0.076 C 
HETATM    2  C10 UNL     1      23.644   0.013  53.221  1.00  0.00     0.036 C 
HETATM    3  C11 UNL     1      22.504  -0.443  54.008  1.00  0.00     0.019 C 
HETATM    4  C12 UNL     1      21.231  -0.438  53.579  1.00  0.00     0.088 C 
HETATM    5  N1  UNL     1      20.721  -0.003  52.301  1.00  0.00    -0.367 N 
HETATM    6  C13 UNL     1      21.471   0.685  51.276  1.00  0.00     0.036 A 
HETATM    7  C14 UNL     1      21.512   0.848  49.997  1.00  0.00     0.003 A 
HETATM    8  C15 UNL     1      22.665   1.734  50.071  1.00  0.00     0.068 A 
HETATM    9  C16 UNL     1      22.592   1.539  51.527  1.00  0.00     0.130 A 
HETATM   10 CL1  UNL     1      22.122   3.002  52.435  1.00  0.00    -0.104 Cl
HETATM   11  H12 UNL     1      19.698  -0.215  52.111  1.00  0.00     0.165 HD
ENDROOT
BRANCH   1  12
HETATM   12  O1  UNL     1      25.093   0.941  51.788  1.00  0.00    -0.348 OA
BRANCH  12  13
HETATM   13  C8  UNL     1      26.113   1.540  52.523  1.00  0.00     0.214 C 
BRANCH  13  14
HETATM   14  C7  UNL     1      27.213   0.559  52.840  1.00  0.00    -0.025 A 
HETATM   15  C2  UNL     1      28.416   0.974  53.370  1.00  0.00    -0.053 A 
HETATM   16  C1  UNL     1      28.587   2.440  53.618  1.00  0.00     0.049 C 
HETATM   17  C3  UNL     1      29.437   0.063  53.664  1.00  0.00     0.010 A 
HETATM   18  C4  UNL     1      29.211  -1.273  53.410  1.00  0.00     0.043 A 
HETATM   19  C5  UNL     1      28.014  -1.739  52.875  1.00  0.00     0.117 A 
HETATM   20  F1  UNL     1      27.852  -3.056  52.650  1.00  0.00    -0.206 F 
HETATM   21  C6  UNL     1      27.016  -0.800  52.594  1.00  0.00     0.052 A 
ENDBRANCH  13  14
ENDBRANCH  12  13
ENDBRANCH   1  12
TORSDOF 3
ENDMDL
MODEL 4
REMARK VINA RESULT:      -7.8      2.775      3.873
REMARK  3 active torsions:
REMARK  status: ('A' for Active; 'I' for Inactive)
REMARK    1  A    between atoms: C7_8  and  C8_9 
REMARK    2  A    between atoms: C8_9  and  O1_10 
REMARK    3  A    between atoms: O1_10  and  C9_11 
ROOT
HETATM    1  C9  UNL     1      23.297   1.352  52.816  1.00  0.00     0.076 C 
HETATM    2  C10 UNL     1      23.401   2.660  52.508  1.00  0.00     0.036 C 
HETATM    3  C11 UNL     1      22.442   3.650  52.031  1.00  0.00     0.019 C 
HETATM    4  C12 UNL     1      21.110   3.556  52.184  1.00  0.00     0.088 C 
HETATM    5  N1  UNL     1      20.358   2.505  52.824  1.00  0.00    -0.367 N 
HETATM    6  C13 UNL     1      20.884   1.241  53.286  1.00  0.00     0.036 A 
HETATM    7  C14 UNL     1      20.677   0.328  54.174  1.00  0.00     0.003 A 
HETATM    8  C15 UNL     1      21.805  -0.474  53.721  1.00  0.00     0.068 A 
HETATM    9  C16 UNL     1      22.015   0.577  52.713  1.00  0.00     0.130 A 
HETATM   10 CL1  UNL     1      21.698   0.051  51.037  1.00  0.00    -0.104 Cl
HETATM   11  H12 UNL     1      19.321   2.693  52.963  1.00  0.00     0.165 HD
ENDROOT
BRANCH   1  12
HETATM   12  O1  UNL     1      24.531   0.866  53.228  1.00  0.00    -0.348 OA
BRANCH  12  13
HETATM   13  C8  UNL     1      25.356   0.004  52.511  1.00  0.00     0.214 C 
BRANCH  13  14
HETATM   14  C7  UNL     1      26.799   0.154  52.919  1.00  0.00    -0.025 A 
HETATM   15  C2  UNL     1      27.652  -0.929  52.961  1.00  0.00    -0.053 A 
HETATM   16  C1  UNL     1      27.085  -2.263  52.587  1.00  0.00     0.049 C 
HETATM   17  C3  UNL     1      28.992  -0.789  53.340  1.00  0.00     0.010 A 
HETATM   18  C4  UNL     1      29.446   0.469  53.673  1.00  0.00     0.043 A 
HETATM   19  C5  UNL     1      28.624   1.591  53.646  1.00  0.00     0.117 A 
HETATM   20  F1  UNL     1      29.126   2.795  53.981  1.00  0.00    -0.206 F 
HETATM   21  C6  UNL     1      27.291   1.414  53.262  1.00  0.00     0.052 A 
ENDBRANCH  13  14
ENDBRANCH  12  13
ENDBRANCH   1  12
TORSDOF 3
ENDMDL
MODEL 5
REMARK VINA RESULT:      -7.8      3.669      6.361
REMARK  3 active torsions:
REMARK  status: ('A' for Active; 'I' for Inactive)
REMARK    1  A    between atoms: C7_8  and  C8_9 
REMARK    2  A    between atoms: C8_9  and  O1_10 
REMARK    3  A    between atoms: O1_10  and  C9_11 
ROOT
HETATM    1  C9  UNL     1      26.616   1.330  52.873  1.00  0.00     0.076 C 
HETATM    2  C10 UNL     1      27.597   2.237  53.051  1.00  0.00     0.036 C 
HETATM    3  C11 UNL     1      28.845   2.220  53.807  1.00  0.00     0.019 C 
HETATM    4  C12 UNL     1      29.493   1.103  54.180  1.00  0.00     0.088 C 
HETATM    5  N1  UNL     1      29.125  -0.269  53.930  1.00  0.00    -0.367 N 
HETATM    6  C13 UNL     1      27.876  -0.726  53.367  1.00  0.00     0.036 A 
HETATM    7  C14 UNL     1      27.377  -1.693  52.674  1.00  0.00     0.003 A 
HETATM    8  C15 UNL     1      26.037  -1.122  52.701  1.00  0.00     0.068 A 
HETATM    9  C16 UNL     1      26.628  -0.035  53.497  1.00  0.00     0.130 A 
HETATM   10 CL1  UNL     1      26.069   0.013  55.192  1.00  0.00    -0.104 Cl
HETATM   11  H12 UNL     1      29.851  -1.000  54.189  1.00  0.00     0.165 HD
ENDROOT
BRANCH   1  12
HETATM   12  O1  UNL     1      25.633   1.857  52.045  1.00  0.00    -0.348 OA
BRANCH  12  13
HETATM   13  C8  UNL     1      24.377   2.306  52.444  1.00  0.00     0.214 C 
BRANCH  13  14
HETATM   14  C7  UNL     1      23.286   1.739  51.573  1.00  0.00    -0.025 A 
HETATM   15  C2  UNL     1      22.409   0.787  52.046  1.00  0.00    -0.053 A 
HETATM   16  C1  UNL     1      22.585   0.336  53.463  1.00  0.00     0.049 C 
HETATM   17  C3  UNL     1      21.395   0.261  51.237  1.00  0.00     0.010 A 
HETATM   18  C4  UNL     1      21.292   0.721  49.942  1.00  0.00     0.043 A 
HETATM   19  C5  UNL     1      22.153   1.681  49.420  1.00  0.00     0.117 A 
HETATM   20  F1  UNL     1      22.001   2.092  48.146  1.00  0.00    -0.206 F 
HETATM   21  C6  UNL     1      23.154   2.184  50.257  1.00  0.00     0.052 A 
ENDBRANCH  13  14
ENDBRANCH  12  13
ENDBRANCH   1  12
TORSDOF 3
ENDMDL
MODEL 6
REMARK VINA RESULT:      -7.7      3.330      6.323
REMARK  3 active torsions:
REMARK  status: ('A' for Active; 'I' for Inactive)
REMARK    1  A    between atoms: C7_8  and  C8_9 
REMARK    2  A    between atoms: C8_9  and  O1_10 
REMARK    3  A    between atoms: O1_10  and  C9_11 
ROOT
HETATM    1  C9  UNL     1      25.650   0.831  52.429  1.00  0.00     0.076 C 
HETATM    2  C10 UNL     1      24.330   0.717  52.679  1.00  0.00     0.036 C 
HETATM    3  C11 UNL     1      23.549  -0.194  53.509  1.00  0.00     0.019 C 
HETATM    4  C12 UNL     1      24.041  -0.888  54.549  1.00  0.00     0.088 C 
HETATM    5  N1  UNL     1      25.390  -0.893  55.061  1.00  0.00    -0.367 N 
HETATM    6  C13 UNL     1      26.537  -0.271  54.442  1.00  0.00     0.036 A 
HETATM    7  C14 UNL     1      27.676   0.260  54.736  1.00  0.00     0.003 A 
HETATM    8  C15 UNL     1      27.987   0.547  53.342  1.00  0.00     0.068 A 
HETATM    9  C16 UNL     1      26.688  -0.070  53.032  1.00  0.00     0.130 A 
HETATM   10 CL1  UNL     1      26.808  -1.617  52.150  1.00  0.00    -0.104 Cl
HETATM   11  H12 UNL     1      25.536  -1.404  55.981  1.00  0.00     0.165 HD
ENDROOT
BRANCH   1  12
HETATM   12  O1  UNL     1      25.872   1.884  51.551  1.00  0.00    -0.348 OA
BRANCH  12  13
HETATM   13  C8  UNL     1      24.893   2.634  50.903  1.00  0.00     0.214 C 
BRANCH  13  14
HETATM   14  C7  UNL     1      25.492   3.807  50.171  1.00  0.00    -0.025 A 
HETATM   15  C2  UNL     1      24.868   5.036  50.149  1.00  0.00    -0.053 A 
HETATM   16  C1  UNL     1      23.568   5.158  50.880  1.00  0.00     0.049 C 
HETATM   17  C3  UNL     1      25.425   6.126  49.469  1.00  0.00     0.010 A 
HETATM   18  C4  UNL     1      26.624   5.942  48.815  1.00  0.00     0.043 A 
HETATM   19  C5  UNL     1      27.291   4.721  48.810  1.00  0.00     0.117 A 
HETATM   20  F1  UNL     1      28.461   4.603  48.154  1.00  0.00    -0.206 F 
HETATM   21  C6  UNL     1      26.706   3.654  49.500  1.00  0.00     0.052 A 
ENDBRANCH  13  14
ENDBRANCH  12  13
ENDBRANCH   1  12
TORSDOF 3
ENDMDL
MODEL 7
REMARK VINA RESULT:      -7.6      1.757      2.488
REMARK  3 active torsions:
REMARK  status: ('A' for Active; 'I' for Inactive)
REMARK    1  A    between atoms: C7_8  and  C8_9 
REMARK    2  A    between atoms: C8_9  and  O1_10 
REMARK    3  A    between atoms: O1_10  and  C9_11 
ROOT
HETATM    1  C9  UNL     1      23.920   2.012  51.661  1.00  0.00     0.076 C 
HETATM    2  C10 UNL     1      24.129   3.343  51.623  1.00  0.00     0.036 C 
HETATM    3  C11 UNL     1      23.234   4.488  51.493  1.00  0.00     0.019 C 
HETATM    4  C12 UNL     1      21.925   4.470  51.796  1.00  0.00     0.088 C 
HETATM    5  N1  UNL     1      21.140   3.367  52.295  1.00  0.00    -0.367 N 
HETATM    6  C13 UNL     1      21.576   1.995  52.410  1.00  0.00     0.036 A 
HETATM    7  C14 UNL     1      21.372   0.928  53.107  1.00  0.00     0.003 A 
HETATM    8  C15 UNL     1      22.351   0.158  52.352  1.00  0.00     0.068 A 
HETATM    9  C16 UNL     1      22.560   1.385  51.567  1.00  0.00     0.130 A 
HETATM   10 CL1  UNL     1      22.005   1.269  49.875  1.00  0.00    -0.104 Cl
HETATM   11  H12 UNL     1      20.151   3.603  52.605  1.00  0.00     0.165 HD
ENDROOT
BRANCH   1  12
HETATM   12  O1  UNL     1      25.134   1.350  51.798  1.00  0.00    -0.348 OA
BRANCH  12  13
HETATM   13  C8  UNL     1      26.275   1.848  52.421  1.00  0.00     0.214 C 
BRANCH  13  14
HETATM   14  C7  UNL     1      27.238   0.744  52.772  1.00  0.00    -0.025 A 
HETATM   15  C2  UNL     1      28.442   1.008  53.391  1.00  0.00    -0.053 A 
HETATM   16  C1  UNL     1      28.755   2.439  53.700  1.00  0.00     0.049 C 
HETATM   17  C3  UNL     1      29.336  -0.019  53.717  1.00  0.00     0.010 A 
HETATM   18  C4  UNL     1      28.984  -1.313  53.403  1.00  0.00     0.043 A 
HETATM   19  C5  UNL     1      27.781  -1.629  52.778  1.00  0.00     0.117 A 
HETATM   20  F1  UNL     1      27.492  -2.914  52.497  1.00  0.00    -0.206 F 
HETATM   21  C6  UNL     1      26.912  -0.578  52.468  1.00  0.00     0.052 A 
ENDBRANCH  13  14
ENDBRANCH  12  13
ENDBRANCH   1  12
TORSDOF 3
ENDMDL
MODEL 8
REMARK VINA RESULT:      -7.6      2.449      3.775
REMARK  3 active torsions:
REMARK  status: ('A' for Active; 'I' for Inactive)
REMARK    1  A    between atoms: C7_8  and  C8_9 
REMARK    2  A    between atoms: C8_9  and  O1_10 
REMARK    3  A    between atoms: O1_10  and  C9_11 
ROOT
HETATM    1  C9  UNL     1      23.828   1.256  52.370  1.00  0.00     0.076 C 
HETATM    2  C10 UNL     1      23.003   0.532  53.152  1.00  0.00     0.036 C 
HETATM    3  C11 UNL     1      21.575   0.617  53.440  1.00  0.00     0.019 C 
HETATM    4  C12 UNL     1      20.672   1.215  52.645  1.00  0.00     0.088 C 
HETATM    5  N1  UNL     1      20.895   1.880  51.384  1.00  0.00    -0.367 N 
HETATM    6  C13 UNL     1      22.179   2.186  50.798  1.00  0.00     0.036 A 
HETATM    7  C14 UNL     1      22.750   2.357  49.654  1.00  0.00     0.003 A 
HETATM    8  C15 UNL     1      24.050   2.619  50.256  1.00  0.00     0.068 A 
HETATM    9  C16 UNL     1      23.375   2.428  51.549  1.00  0.00     0.130 A 
HETATM   10 CL1  UNL     1      23.252   3.912  52.533  1.00  0.00    -0.104 Cl
HETATM   11  H12 UNL     1      20.023   2.162  50.846  1.00  0.00     0.165 HD
ENDROOT
BRANCH   1  12
HETATM   12  O1  UNL     1      25.119   0.749  52.454  1.00  0.00    -0.348 OA
BRANCH  12  13
HETATM   13  C8  UNL     1      25.576  -0.183  53.381  1.00  0.00     0.214 C 
BRANCH  13  14
HETATM   14  C7  UNL     1      27.077  -0.137  53.516  1.00  0.00    -0.025 A 
HETATM   15  C2  UNL     1      27.870  -1.185  53.100  1.00  0.00    -0.053 A 
HETATM   16  C1  UNL     1      27.179  -2.376  52.511  1.00  0.00     0.049 C 
HETATM   17  C3  UNL     1      29.263  -1.141  53.225  1.00  0.00     0.010 A 
HETATM   18  C4  UNL     1      29.832  -0.014  53.779  1.00  0.00     0.043 A 
HETATM   19  C5  UNL     1      29.074   1.068  54.212  1.00  0.00     0.117 A 
HETATM   20  F1  UNL     1      29.687   2.143  54.744  1.00  0.00    -0.206 F 
HETATM   21  C6  UNL     1      27.684   0.990  54.071  1.00  0.00     0.052 A 
ENDBRANCH  13  14
ENDBRANCH  12  13
ENDBRANCH   1  12
TORSDOF 3
ENDMDL
MODEL 9
REMARK VINA RESULT:      -7.3      2.856      4.060
REMARK  3 active torsions:
REMARK  status: ('A' for Active; 'I' for Inactive)
REMARK    1  A    between atoms: C7_8  and  C8_9 
REMARK    2  A    between atoms: C8_9  and  O1_10 
REMARK    3  A    between atoms: O1_10  and  C9_11 
ROOT
HETATM    1  C9  UNL     1      25.521   4.176  49.920  1.00  0.00     0.076 C 
HETATM    2  C10 UNL     1      26.745   3.987  49.388  1.00  0.00     0.036 C 
HETATM    3  C11 UNL     1      27.641   4.846  48.622  1.00  0.00     0.019 C 
HETATM    4  C12 UNL     1      27.598   6.190  48.629  1.00  0.00     0.088 C 
HETATM    5  N1  UNL     1      26.699   7.050  49.359  1.00  0.00    -0.367 N 
HETATM    6  C13 UNL     1      25.539   6.629  50.109  1.00  0.00     0.036 A 
HETATM    7  C14 UNL     1      24.814   6.971  51.120  1.00  0.00     0.003 A 
HETATM    8  C15 UNL     1      23.924   5.829  50.965  1.00  0.00     0.068 A 
HETATM    9  C16 UNL     1      24.760   5.465  49.810  1.00  0.00     0.130 A 
HETATM   10 CL1  UNL     1      23.931   5.606  48.236  1.00  0.00    -0.104 Cl
HETATM   11  H12 UNL     1      26.926   8.088  49.335  1.00  0.00     0.165 HD
ENDROOT
BRANCH   1  12
HETATM   12  O1  UNL     1      25.104   3.016  50.562  1.00  0.00    -0.348 OA
BRANCH  12  13
HETATM   13  C8  UNL     1      25.736   2.402  51.640  1.00  0.00     0.214 C 
BRANCH  13  14
HETATM   14  C7  UNL     1      24.815   1.438  52.342  1.00  0.00    -0.025 A 
HETATM   15  C2  UNL     1      25.256   0.205  52.775  1.00  0.00    -0.053 A 
HETATM   16  C1  UNL     1      26.690  -0.139  52.515  1.00  0.00     0.049 C 
HETATM   17  C3  UNL     1      24.400  -0.689  53.428  1.00  0.00     0.010 A 
HETATM   18  C4  UNL     1      23.092  -0.307  53.632  1.00  0.00     0.043 A 
HETATM   19  C5  UNL     1      22.601   0.926  53.214  1.00  0.00     0.117 A 
HETATM   20  F1  UNL     1      21.312   1.243  53.444  1.00  0.00    -0.206 F 
HETATM   21  C6  UNL     1      23.484   1.794  52.565  1.00  0.00     0.052 A 
ENDBRANCH  13  14
ENDBRANCH  12  13
ENDBRANCH   1  12
TORSDOF 3
ENDMDL
