MODEL 1
REMARK VINA RESULT:      -8.2      0.000      0.000
REMARK  6 active torsions:
REMARK  status: ('A' for Active; 'I' for Inactive)
REMARK    1  A    between atoms: C3_3  and  C4_4 
REMARK    2  A    between atoms: C3_3  and  C16_21 
REMARK    3  A    between atoms: C4_4  and  C5_5 
REMARK    4  A    between atoms: C5_5  and  N1_6 
REMARK    5  A    between atoms: C9_13  and  C10_14 
REMARK    6  A    between atoms: C13_17  and  O3_18 
ROOT
HETATM    1  N1  UNL     1      22.699  -0.764  53.589  1.00  0.00    -0.294 N 
HETATM    2  C6  UNL     1      22.116  -1.357  54.738  1.00  0.00     0.330 A 
HETATM    3  O1  UNL     1      20.890  -1.619  54.826  1.00  0.00    -0.246 OA
HETATM    4  N2  UNL     1      23.052  -1.624  55.775  1.00  0.00    -0.273 N 
HETATM    5  C7  UNL     1      24.305  -1.181  55.270  1.00  0.00     0.276 A 
HETATM    6  O2  UNL     1      25.320  -1.304  56.000  1.00  0.00    -0.266 OA
HETATM    7  C8  UNL     1      24.086  -0.653  53.930  1.00  0.00     0.108 A 
HETATM    8  C9  UNL     1      25.036  -0.174  53.160  1.00  0.00     0.047 C 
HETATM    9  H9  UNL     1      22.806  -2.060  56.700  1.00  0.00     0.173 HD
ENDROOT
BRANCH   1  10
HETATM   10  C5  UNL     1      22.153  -0.333  52.328  1.00  0.00     0.139 C 
BRANCH  10  11
HETATM   11  C4  UNL     1      21.619   1.072  52.338  1.00  0.00     0.059 C 
BRANCH  11  12
HETATM   12  C3  UNL     1      22.456   2.036  51.601  1.00  0.00    -0.054 C 
HETATM   13  C2  UNL     1      22.633   1.928  50.274  1.00  0.00    -0.023 C 
HETATM   14  C1  UNL     1      23.449   2.835  49.429  1.00  0.00     0.036 C 
BRANCH  12  15
HETATM   15  C16 UNL     1      23.137   3.149  52.290  1.00  0.00    -0.052 A 
HETATM   16  C17 UNL     1      24.196   3.495  53.081  1.00  0.00    -0.014 A 
HETATM   17  C18 UNL     1      23.275   4.545  52.668  1.00  0.00     0.066 A 
ENDBRANCH  12  15
ENDBRANCH  11  12
ENDBRANCH  10  11
ENDBRANCH   1  10
BRANCH   8  18
HETATM   18  C10 UNL     1      26.469   0.054  53.238  1.00  0.00    -0.034 A 
HETATM   19  C11 UNL     1      27.056   1.307  53.449  1.00  0.00     0.014 A 
HETATM   20  C12 UNL     1      28.422   1.433  53.529  1.00  0.00     0.037 A 
HETATM   21  C13 UNL     1      29.213   0.313  53.399  1.00  0.00     0.065 A 
HETATM   22  C14 UNL     1      28.662  -0.933  53.190  1.00  0.00     0.037 A 
HETATM   23  C15 UNL     1      27.269  -1.040  53.112  1.00  0.00     0.014 A 
BRANCH  21  24
HETATM   24  O3  UNL     1      30.581   0.511  53.490  1.00  0.00    -0.361 OA
HETATM   25  H13 UNL     1      31.093   0.689  52.641  1.00  0.00     0.217 HD
ENDBRANCH  21  24
ENDBRANCH   8  18
TORSDOF 6
ENDMDL
MODEL 2
REMARK VINA RESULT:      -7.9      2.393      5.589
REMARK  6 active torsions:
REMARK  status: ('A' for Active; 'I' for Inactive)
REMARK    1  A    between atoms: C3_3  and  C4_4 
REMARK    2  A    between atoms: C3_3  and  C16_21 
REMARK    3  A    between atoms: C4_4  and  C5_5 
REMARK    4  A    between atoms: C5_5  and  N1_6 
REMARK    5  A    between atoms: C9_13  and  C10_14 
REMARK    6  A    between atoms: C13_17  and  O3_18 
ROOT
HETATM    1  N1  UNL     1      26.729   0.538  52.791  1.00  0.00    -0.294 N 
HETATM    2  C6  UNL     1      27.680   0.171  53.778  1.00  0.00     0.330 A 
HETATM    3  O1  UNL     1      28.915   0.368  53.644  1.00  0.00    -0.246 OA
HETATM    4  N2  UNL     1      27.102  -0.436  54.925  1.00  0.00    -0.273 N 
HETATM    5  C7  UNL     1      25.704  -0.465  54.669  1.00  0.00     0.276 A 
HETATM    6  O2  UNL     1      24.946  -0.960  55.540  1.00  0.00    -0.266 OA
HETATM    7  C8  UNL     1      25.477   0.132  53.359  1.00  0.00     0.108 A 
HETATM    8  C9  UNL     1      24.294   0.286  52.812  1.00  0.00     0.047 C 
HETATM    9  H9  UNL     1      27.648  -0.774  55.759  1.00  0.00     0.173 HD
ENDROOT
BRANCH   1  10
HETATM   10  C5  UNL     1      26.850   1.165  51.501  1.00  0.00     0.139 C 
BRANCH  10  11
HETATM   11  C4  UNL     1      26.777   2.665  51.538  1.00  0.00     0.059 C 
BRANCH  11  12
HETATM   12  C3  UNL     1      25.948   3.251  50.469  1.00  0.00    -0.054 C 
HETATM   13  C2  UNL     1      24.685   2.840  50.267  1.00  0.00    -0.023 C 
HETATM   14  C1  UNL     1      23.760   3.354  49.228  1.00  0.00     0.036 C 
BRANCH  12  15
HETATM   15  C16 UNL     1      26.473   4.303  49.576  1.00  0.00    -0.052 A 
HETATM   16  C17 UNL     1      27.497   4.656  48.744  1.00  0.00    -0.014 A 
HETATM   17  C18 UNL     1      26.403   5.600  48.926  1.00  0.00     0.066 A 
ENDBRANCH  12  15
ENDBRANCH  11  12
ENDBRANCH  10  11
ENDBRANCH   1  10
BRANCH   8  18
HETATM   18  C10 UNL     1      22.911  -0.017  53.140  1.00  0.00    -0.034 A 
HETATM   19  C11 UNL     1      22.457  -1.276  53.552  1.00  0.00     0.014 A 
HETATM   20  C12 UNL     1      21.133  -1.473  53.863  1.00  0.00     0.037 A 
HETATM   21  C13 UNL     1      20.252  -0.419  53.765  1.00  0.00     0.065 A 
HETATM   22  C14 UNL     1      20.671   0.830  53.362  1.00  0.00     0.037 A 
HETATM   23  C15 UNL     1      22.023   1.011  53.051  1.00  0.00     0.014 A 
BRANCH  21  24
HETATM   24  O3  UNL     1      18.933  -0.687  54.093  1.00  0.00    -0.361 OA
HETATM   25  H13 UNL     1      18.281  -0.853  53.343  1.00  0.00     0.217 HD
ENDBRANCH  21  24
ENDBRANCH   8  18
TORSDOF 6
ENDMDL
MODEL 3
REMARK VINA RESULT:      -7.8      1.269      1.433
REMARK  6 active torsions:
REMARK  status: ('A' for Active; 'I' for Inactive)
REMARK    1  A    between atoms: C3_3  and  C4_4 
REMARK    2  A    between atoms: C3_3  and  C16_21 
REMARK    3  A    between atoms: C4_4  and  C5_5 
REMARK    4  A    between atoms: C5_5  and  N1_6 
REMARK    5  A    between atoms: C9_13  and  C10_14 
REMARK    6  A    between atoms: C13_17  and  O3_18 
ROOT
HETATM    1  N1  UNL     1      21.601  -0.285  52.746  1.00  0.00    -0.294 N 
HETATM    2  C6  UNL     1      20.680  -0.791  53.698  1.00  0.00     0.330 A 
HETATM    3  O1  UNL     1      19.438  -0.819  53.500  1.00  0.00    -0.246 OA
HETATM    4  N2  UNL     1      21.295  -1.259  54.890  1.00  0.00    -0.273 N 
HETATM    5  C7  UNL     1      22.688  -1.045  54.701  1.00  0.00     0.276 A 
HETATM    6  O2  UNL     1      23.474  -1.379  55.622  1.00  0.00    -0.266 OA
HETATM    7  C8  UNL     1      22.874  -0.447  53.385  1.00  0.00     0.108 A 
HETATM    8  C9  UNL     1      24.042  -0.133  52.875  1.00  0.00     0.047 C 
HETATM    9  H9  UNL     1      20.774  -1.668  55.708  1.00  0.00     0.173 HD
ENDROOT
BRANCH   1  10
HETATM   10  C5  UNL     1      21.439   0.279  51.431  1.00  0.00     0.139 C 
BRANCH  10  11
HETATM   11  C4  UNL     1      21.213   1.764  51.422  1.00  0.00     0.059 C 
BRANCH  11  12
HETATM   12  C3  UNL     1      22.402   2.549  51.044  1.00  0.00    -0.054 C 
HETATM   13  C2  UNL     1      22.871   2.536  49.785  1.00  0.00    -0.023 C 
HETATM   14  C1  UNL     1      24.053   3.282  49.290  1.00  0.00     0.036 C 
BRANCH  12  15
HETATM   15  C16 UNL     1      23.127   3.373  52.031  1.00  0.00    -0.052 A 
HETATM   16  C17 UNL     1      23.234   4.616  52.588  1.00  0.00    -0.014 A 
HETATM   17  C18 UNL     1      24.134   3.572  53.059  1.00  0.00     0.066 A 
ENDBRANCH  12  15
ENDBRANCH  11  12
ENDBRANCH  10  11
ENDBRANCH   1  10
BRANCH   8  18
HETATM   18  C10 UNL     1      25.438  -0.181  53.276  1.00  0.00    -0.034 A 
HETATM   19  C11 UNL     1      25.998   0.624  54.274  1.00  0.00     0.014 A 
HETATM   20  C12 UNL     1      27.326   0.501  54.607  1.00  0.00     0.037 A 
HETATM   21  C13 UNL     1      28.105  -0.424  53.948  1.00  0.00     0.065 A 
HETATM   22  C14 UNL     1      27.579  -1.230  52.961  1.00  0.00     0.037 A 
HETATM   23  C15 UNL     1      26.226  -1.090  52.637  1.00  0.00     0.014 A 
BRANCH  21  24
HETATM   24  O3  UNL     1      29.434  -0.496  54.332  1.00  0.00    -0.361 OA
HETATM   25  H13 UNL     1      29.974  -1.290  54.028  1.00  0.00     0.217 HD
ENDBRANCH  21  24
ENDBRANCH   8  18
TORSDOF 6
ENDMDL
MODEL 4
REMARK VINA RESULT:      -7.8      2.895      4.664
REMARK  6 active torsions:
REMARK  status: ('A' for Active; 'I' for Inactive)
REMARK    1  A    between atoms: C3_3  and  C4_4 
REMARK    2  A    between atoms: C3_3  and  C16_21 
REMARK    3  A    between atoms: C4_4  and  C5_5 
REMARK    4  A    between atoms: C5_5  and  N1_6 
REMARK    5  A    between atoms: C9_13  and  C10_14 
REMARK    6  A    between atoms: C13_17  and  O3_18 
ROOT
HETATM    1  N1  UNL     1      24.817  -0.051  53.796  1.00  0.00    -0.294 N 
HETATM    2  C6  UNL     1      25.649  -0.242  54.928  1.00  0.00     0.330 A 
HETATM    3  O1  UNL     1      25.459  -1.156  55.771  1.00  0.00    -0.246 OA
HETATM    4  N2  UNL     1      26.712   0.697  55.017  1.00  0.00    -0.273 N 
HETATM    5  C7  UNL     1      26.562   1.540  53.882  1.00  0.00     0.276 A 
HETATM    6  O2  UNL     1      27.388   2.472  53.716  1.00  0.00    -0.266 OA
HETATM    7  C8  UNL     1      25.398   1.080  53.135  1.00  0.00     0.108 A 
HETATM    8  C9  UNL     1      24.977   1.622  52.015  1.00  0.00     0.047 C 
HETATM    9  H9  UNL     1      27.430   0.712  55.786  1.00  0.00     0.173 HD
ENDROOT
BRANCH   1  10
HETATM   10  C5  UNL     1      23.652  -0.743  53.310  1.00  0.00     0.139 C 
BRANCH  10  11
HETATM   11  C4  UNL     1      22.385  -0.406  54.044  1.00  0.00     0.059 C 
BRANCH  11  12
HETATM   12  C3  UNL     1      21.226  -0.171  53.164  1.00  0.00    -0.054 C 
HETATM   13  C2  UNL     1      20.006  -0.634  53.485  1.00  0.00    -0.023 C 
HETATM   14  C1  UNL     1      18.771  -0.461  52.683  1.00  0.00     0.036 C 
BRANCH  12  15
HETATM   15  C16 UNL     1      21.360   0.572  51.896  1.00  0.00    -0.052 A 
HETATM   16  C17 UNL     1      21.366   1.811  51.321  1.00  0.00    -0.014 A 
HETATM   17  C18 UNL     1      21.558   0.653  50.460  1.00  0.00     0.066 A 
ENDBRANCH  12  15
ENDBRANCH  11  12
ENDBRANCH  10  11
ENDBRANCH   1  10
BRANCH   8  18
HETATM   18  C10 UNL     1      25.351   2.729  51.151  1.00  0.00    -0.034 A 
HETATM   19  C11 UNL     1      26.458   2.720  50.294  1.00  0.00     0.014 A 
HETATM   20  C12 UNL     1      26.730   3.803  49.493  1.00  0.00     0.037 A 
HETATM   21  C13 UNL     1      25.902   4.902  49.539  1.00  0.00     0.065 A 
HETATM   22  C14 UNL     1      24.805   4.938  50.373  1.00  0.00     0.037 A 
HETATM   23  C15 UNL     1      24.545   3.826  51.180  1.00  0.00     0.014 A 
BRANCH  21  24
HETATM   24  O3  UNL     1      26.234   5.958  48.706  1.00  0.00    -0.361 OA
HETATM   25  H13 UNL     1      26.603   5.745  47.793  1.00  0.00     0.217 HD
ENDBRANCH  21  24
ENDBRANCH   8  18
TORSDOF 6
ENDMDL
MODEL 5
REMARK VINA RESULT:      -7.6      3.049      4.726
REMARK  6 active torsions:
REMARK  status: ('A' for Active; 'I' for Inactive)
REMARK    1  A    between atoms: C3_3  and  C4_4 
REMARK    2  A    between atoms: C3_3  and  C16_21 
REMARK    3  A    between atoms: C4_4  and  C5_5 
REMARK    4  A    between atoms: C5_5  and  N1_6 
REMARK    5  A    between atoms: C9_13  and  C10_14 
REMARK    6  A    between atoms: C13_17  and  O3_18 
ROOT
HETATM    1  N1  UNL     1      22.335   1.853  50.580  1.00  0.00    -0.294 N 
HETATM    2  C6  UNL     1      22.374   3.076  49.862  1.00  0.00     0.330 A 
HETATM    3  O1  UNL     1      21.400   3.509  49.194  1.00  0.00    -0.246 OA
HETATM    4  N2  UNL     1      23.615   3.759  49.971  1.00  0.00    -0.273 N 
HETATM    5  C7  UNL     1      24.422   2.936  50.804  1.00  0.00     0.276 A 
HETATM    6  O2  UNL     1      25.591   3.315  51.067  1.00  0.00    -0.266 OA
HETATM    7  C8  UNL     1      23.635   1.767  51.175  1.00  0.00     0.108 A 
HETATM    8  C9  UNL     1      24.066   0.804  51.957  1.00  0.00     0.047 C 
HETATM    9  H9  UNL     1      23.831   4.679  49.509  1.00  0.00     0.173 HD
ENDROOT
BRANCH   1  10
HETATM   10  C5  UNL     1      21.313   0.853  50.754  1.00  0.00     0.139 C 
BRANCH  10  11
HETATM   11  C4  UNL     1      20.305   1.184  51.818  1.00  0.00     0.059 C 
BRANCH  11  12
HETATM   12  C3  UNL     1      19.930   0.037  52.665  1.00  0.00    -0.054 C 
HETATM   13  C2  UNL     1      18.694  -0.487  52.616  1.00  0.00    -0.023 C 
HETATM   14  C1  UNL     1      18.203  -1.635  53.416  1.00  0.00     0.036 C 
BRANCH  12  15
HETATM   15  C16 UNL     1      20.891  -0.575  53.603  1.00  0.00    -0.052 A 
HETATM   16  C17 UNL     1      21.493  -0.456  54.823  1.00  0.00    -0.014 A 
HETATM   17  C18 UNL     1      21.839  -1.603  53.995  1.00  0.00     0.066 A 
ENDBRANCH  12  15
ENDBRANCH  11  12
ENDBRANCH  10  11
ENDBRANCH   1  10
BRANCH   8  18
HETATM   18  C10 UNL     1      25.284   0.466  52.673  1.00  0.00    -0.034 A 
HETATM   19  C11 UNL     1      26.463   0.029  52.058  1.00  0.00     0.014 A 
HETATM   20  C12 UNL     1      27.580  -0.252  52.809  1.00  0.00     0.037 A 
HETATM   21  C13 UNL     1      27.530  -0.101  54.177  1.00  0.00     0.065 A 
HETATM   22  C14 UNL     1      26.383   0.327  54.809  1.00  0.00     0.037 A 
HETATM   23  C15 UNL     1      25.257   0.609  54.027  1.00  0.00     0.014 A 
BRANCH  21  24
HETATM   24  O3  UNL     1      28.690  -0.401  54.872  1.00  0.00    -0.361 OA
HETATM   25  H13 UNL     1      29.538  -0.538  54.345  1.00  0.00     0.217 HD
ENDBRANCH  21  24
ENDBRANCH   8  18
TORSDOF 6
ENDMDL
MODEL 6
REMARK VINA RESULT:      -7.6      0.995      2.148
REMARK  6 active torsions:
REMARK  status: ('A' for Active; 'I' for Inactive)
REMARK    1  A    between atoms: C3_3  and  C4_4 
REMARK    2  A    between atoms: C3_3  and  C16_21 
REMARK    3  A    between atoms: C4_4  and  C5_5 
REMARK    4  A    between atoms: C5_5  and  N1_6 
REMARK    5  A    between atoms: C9_13  and  C10_14 
REMARK    6  A    between atoms: C13_17  and  O3_18 
ROOT
HETATM    1  N1  UNL     1      22.551  -0.412  53.189  1.00  0.00    -0.294 N 
HETATM    2  C6  UNL     1      21.850  -1.003  54.271  1.00  0.00     0.330 A 
HETATM    3  O1  UNL     1      20.601  -1.151  54.279  1.00  0.00    -0.246 OA
HETATM    4  N2  UNL     1      22.695  -1.409  55.339  1.00  0.00    -0.273 N 
HETATM    5  C7  UNL     1      24.011  -1.064  54.928  1.00  0.00     0.276 A 
HETATM    6  O2  UNL     1      24.966  -1.320  55.702  1.00  0.00    -0.266 OA
HETATM    7  C8  UNL     1      23.920  -0.451  53.608  1.00  0.00     0.108 A 
HETATM    8  C9  UNL     1      24.954  -0.027  52.918  1.00  0.00     0.047 C 
HETATM    9  H9  UNL     1      22.356  -1.866  56.225  1.00  0.00     0.173 HD
ENDROOT
BRANCH   1  10
HETATM   10  C5  UNL     1      22.122   0.132  51.926  1.00  0.00     0.139 C 
BRANCH  10  11
HETATM   11  C4  UNL     1      22.144   1.633  51.864  1.00  0.00     0.059 C 
BRANCH  11  12
HETATM   12  C3  UNL     1      22.821   2.173  50.672  1.00  0.00    -0.054 C 
HETATM   13  C2  UNL     1      24.014   2.785  50.769  1.00  0.00    -0.023 C 
HETATM   14  C1  UNL     1      24.788   3.365  49.644  1.00  0.00     0.036 C 
BRANCH  12  15
HETATM   15  C16 UNL     1      22.216   2.071  49.329  1.00  0.00    -0.052 A 
HETATM   16  C17 UNL     1      21.101   2.328  48.583  1.00  0.00    -0.014 A 
HETATM   17  C18 UNL     1      22.240   1.702  47.925  1.00  0.00     0.066 A 
ENDBRANCH  12  15
ENDBRANCH  11  12
ENDBRANCH  10  11
ENDBRANCH   1  10
BRANCH   8  18
HETATM   18  C10 UNL     1      26.394   0.059  53.084  1.00  0.00    -0.034 A 
HETATM   19  C11 UNL     1      27.255  -1.045  53.080  1.00  0.00     0.014 A 
HETATM   20  C12 UNL     1      28.611  -0.873  53.224  1.00  0.00     0.037 A 
HETATM   21  C13 UNL     1      29.119   0.398  53.374  1.00  0.00     0.065 A 
HETATM   22  C14 UNL     1      28.296   1.502  53.382  1.00  0.00     0.037 A 
HETATM   23  C15 UNL     1      26.919   1.307  53.234  1.00  0.00     0.014 A 
BRANCH  21  24
HETATM   24  O3  UNL     1      30.494   0.498  53.514  1.00  0.00    -0.361 OA
HETATM   25  H13 UNL     1      31.057  -0.296  53.255  1.00  0.00     0.217 HD
ENDBRANCH  21  24
ENDBRANCH   8  18
TORSDOF 6
ENDMDL
MODEL 7
REMARK VINA RESULT:      -7.5      2.417      5.372
REMARK  6 active torsions:
REMARK  status: ('A' for Active; 'I' for Inactive)
REMARK    1  A    between atoms: C3_3  and  C4_4 
REMARK    2  A    between atoms: C3_3  and  C16_21 
REMARK    3  A    between atoms: C4_4  and  C5_5 
REMARK    4  A    between atoms: C5_5  and  N1_6 
REMARK    5  A    between atoms: C9_13  and  C10_14 
REMARK    6  A    between atoms: C13_17  and  O3_18 
ROOT
HETATM    1  N1  UNL     1      23.712  -0.430  54.241  1.00  0.00    -0.294 N 
HETATM    2  C6  UNL     1      22.551  -1.084  54.726  1.00  0.00     0.330 A 
HETATM    3  O1  UNL     1      22.595  -2.083  55.488  1.00  0.00    -0.246 OA
HETATM    4  N2  UNL     1      21.338  -0.501  54.266  1.00  0.00    -0.273 N 
HETATM    5  C7  UNL     1      21.735   0.586  53.441  1.00  0.00     0.276 A 
HETATM    6  O2  UNL     1      20.841   1.283  52.900  1.00  0.00    -0.266 OA
HETATM    7  C8  UNL     1      23.192   0.628  53.426  1.00  0.00     0.108 A 
HETATM    8  C9  UNL     1      23.899   1.523  52.775  1.00  0.00     0.047 C 
HETATM    9  H9  UNL     1      20.378  -0.848  54.519  1.00  0.00     0.173 HD
ENDROOT
BRANCH   1  10
HETATM   10  C5  UNL     1      25.119  -0.663  54.437  1.00  0.00     0.139 C 
BRANCH  10  11
HETATM   11  C4  UNL     1      25.879  -0.941  53.171  1.00  0.00     0.059 C 
BRANCH  11  12
HETATM   12  C3  UNL     1      27.261  -0.428  53.176  1.00  0.00    -0.054 C 
HETATM   13  C2  UNL     1      28.309  -1.259  53.302  1.00  0.00    -0.023 C 
HETATM   14  C1  UNL     1      29.738  -0.860  53.321  1.00  0.00     0.036 C 
BRANCH  12  15
HETATM   15  C16 UNL     1      27.547   1.015  53.052  1.00  0.00    -0.052 A 
HETATM   16  C17 UNL     1      27.369   2.128  52.280  1.00  0.00    -0.014 A 
HETATM   17  C18 UNL     1      28.131   2.262  53.514  1.00  0.00     0.066 A 
ENDBRANCH  12  15
ENDBRANCH  11  12
ENDBRANCH  10  11
ENDBRANCH   1  10
BRANCH   8  18
HETATM   18  C10 UNL     1      23.654   2.661  51.906  1.00  0.00    -0.034 A 
HETATM   19  C11 UNL     1      23.469   3.972  52.359  1.00  0.00     0.014 A 
HETATM   20  C12 UNL     1      23.261   4.996  51.466  1.00  0.00     0.037 A 
HETATM   21  C13 UNL     1      23.236   4.722  50.117  1.00  0.00     0.065 A 
HETATM   22  C14 UNL     1      23.415   3.440  49.643  1.00  0.00     0.037 A 
HETATM   23  C15 UNL     1      23.626   2.412  50.567  1.00  0.00     0.014 A 
BRANCH  21  24
HETATM   24  O3  UNL     1      23.023   5.800  49.274  1.00  0.00    -0.361 OA
HETATM   25  H13 UNL     1      23.820   6.206  48.810  1.00  0.00     0.217 HD
ENDBRANCH  21  24
ENDBRANCH   8  18
TORSDOF 6
ENDMDL
MODEL 8
REMARK VINA RESULT:      -7.4      2.225      5.494
REMARK  6 active torsions:
REMARK  status: ('A' for Active; 'I' for Inactive)
REMARK    1  A    between atoms: C3_3  and  C4_4 
REMARK    2  A    between atoms: C3_3  and  C16_21 
REMARK    3  A    between atoms: C4_4  and  C5_5 
REMARK    4  A    between atoms: C5_5  and  N1_6 
REMARK    5  A    between atoms: C9_13  and  C10_14 
REMARK    6  A    between atoms: C13_17  and  O3_18 
ROOT
HETATM    1  N1  UNL     1      26.798   1.300  53.127  1.00  0.00    -0.294 N 
HETATM    2  C6  UNL     1      27.801   0.585  53.830  1.00  0.00     0.330 A 
HETATM    3  O1  UNL     1      29.021   0.883  53.775  1.00  0.00    -0.246 OA
HETATM    4  N2  UNL     1      27.292  -0.498  54.598  1.00  0.00    -0.273 N 
HETATM    5  C7  UNL     1      25.887  -0.482  54.382  1.00  0.00     0.276 A 
HETATM    6  O2  UNL     1      25.184  -1.350  54.956  1.00  0.00    -0.266 OA
HETATM    7  C8  UNL     1      25.586   0.621  53.478  1.00  0.00     0.108 A 
HETATM    8  C9  UNL     1      24.377   0.940  53.078  1.00  0.00     0.047 C 
HETATM    9  H9  UNL     1      27.883  -1.141  55.185  1.00  0.00     0.173 HD
ENDROOT
BRANCH   1  10
HETATM   10  C5  UNL     1      26.844   2.440  52.249  1.00  0.00     0.139 C 
BRANCH  10  11
HETATM   11  C4  UNL     1      26.538   2.122  50.812  1.00  0.00     0.059 C 
BRANCH  11  12
HETATM   12  C3  UNL     1      25.838   3.204  50.096  1.00  0.00    -0.054 C 
HETATM   13  C2  UNL     1      26.512   4.255  49.598  1.00  0.00    -0.023 C 
HETATM   14  C1  UNL     1      25.919   5.397  48.861  1.00  0.00     0.036 C 
BRANCH  12  15
HETATM   15  C16 UNL     1      24.375   3.180  49.903  1.00  0.00    -0.052 A 
HETATM   16  C17 UNL     1      23.172   3.551  50.432  1.00  0.00    -0.014 A 
HETATM   17  C18 UNL     1      23.174   2.832  49.165  1.00  0.00     0.066 A 
ENDBRANCH  12  15
ENDBRANCH  11  12
ENDBRANCH  10  11
ENDBRANCH   1  10
BRANCH   8  18
HETATM   18  C10 UNL     1      23.021   0.452  53.263  1.00  0.00    -0.034 A 
HETATM   19  C11 UNL     1      22.493   0.039  54.492  1.00  0.00     0.014 A 
HETATM   20  C12 UNL     1      21.191  -0.391  54.583  1.00  0.00     0.037 A 
HETATM   21  C13 UNL     1      20.406  -0.414  53.452  1.00  0.00     0.065 A 
HETATM   22  C14 UNL     1      20.899  -0.014  52.229  1.00  0.00     0.037 A 
HETATM   23  C15 UNL     1      22.227   0.421  52.157  1.00  0.00     0.014 A 
BRANCH  21  24
HETATM   24  O3  UNL     1      19.104  -0.859  53.615  1.00  0.00    -0.361 OA
HETATM   25  H13 UNL     1      18.924  -1.554  54.322  1.00  0.00     0.217 HD
ENDBRANCH  21  24
ENDBRANCH   8  18
TORSDOF 6
ENDMDL
MODEL 9
REMARK VINA RESULT:      -7.4      3.055      6.914
REMARK  6 active torsions:
REMARK  status: ('A' for Active; 'I' for Inactive)
REMARK    1  A    between atoms: C3_3  and  C4_4 
REMARK    2  A    between atoms: C3_3  and  C16_21 
REMARK    3  A    between atoms: C4_4  and  C5_5 
REMARK    4  A    between atoms: C5_5  and  N1_6 
REMARK    5  A    between atoms: C9_13  and  C10_14 
REMARK    6  A    between atoms: C13_17  and  O3_18 
ROOT
HETATM    1  N1  UNL     1      25.245   2.935  51.003  1.00  0.00    -0.294 N 
HETATM    2  C6  UNL     1      25.073   4.256  50.517  1.00  0.00     0.330 A 
HETATM    3  O1  UNL     1      26.015   4.936  50.036  1.00  0.00    -0.246 OA
HETATM    4  N2  UNL     1      23.738   4.732  50.626  1.00  0.00    -0.273 N 
HETATM    5  C7  UNL     1      23.008   3.664  51.214  1.00  0.00     0.276 A 
HETATM    6  O2  UNL     1      21.779   3.824  51.424  1.00  0.00    -0.266 OA
HETATM    7  C8  UNL     1      23.934   2.563  51.446  1.00  0.00     0.108 A 
HETATM    8  C9  UNL     1      23.591   1.405  51.962  1.00  0.00     0.047 C 
HETATM    9  H9  UNL     1      23.420   5.686  50.318  1.00  0.00     0.173 HD
ENDROOT
BRANCH   1  10
HETATM   10  C5  UNL     1      26.389   2.066  51.091  1.00  0.00     0.139 C 
BRANCH  10  11
HETATM   11  C4  UNL     1      27.226   2.273  52.322  1.00  0.00     0.059 C 
BRANCH  11  12
HETATM   12  C3  UNL     1      27.663   1.022  52.967  1.00  0.00    -0.054 C 
HETATM   13  C2  UNL     1      28.944   0.839  53.328  1.00  0.00    -0.023 C 
HETATM   14  C1  UNL     1      29.499  -0.372  53.981  1.00  0.00     0.036 C 
BRANCH  12  15
HETATM   15  C16 UNL     1      26.717  -0.079  53.234  1.00  0.00    -0.052 A 
HETATM   16  C17 UNL     1      26.198  -1.248  52.756  1.00  0.00    -0.014 A 
HETATM   17  C18 UNL     1      25.721  -0.760  54.043  1.00  0.00     0.066 A 
ENDBRANCH  12  15
ENDBRANCH  11  12
ENDBRANCH  10  11
ENDBRANCH   1  10
BRANCH   8  18
HETATM   18  C10 UNL     1      22.389   0.773  52.480  1.00  0.00    -0.034 A 
HETATM   19  C11 UNL     1      22.206   0.409  53.819  1.00  0.00     0.014 A 
HETATM   20  C12 UNL     1      21.028  -0.168  54.230  1.00  0.00     0.037 A 
HETATM   21  C13 UNL     1      20.025  -0.385  53.312  1.00  0.00     0.065 A 
HETATM   22  C14 UNL     1      20.178  -0.037  51.988  1.00  0.00     0.037 A 
HETATM   23  C15 UNL     1      21.384   0.549  51.589  1.00  0.00     0.014 A 
BRANCH  21  24
HETATM   24  O3  UNL     1      18.865  -0.969  53.795  1.00  0.00    -0.361 OA
HETATM   25  H13 UNL     1      18.953  -1.715  54.467  1.00  0.00     0.217 HD
ENDBRANCH  21  24
ENDBRANCH   8  18
TORSDOF 6
ENDMDL
