MODEL 1
REMARK VINA RESULT:      -7.4      0.000      0.000
REMARK  7 active torsions:
REMARK  status: ('A' for Active; 'I' for Inactive)
REMARK    1  A    between atoms: C2_2  and  C3_3 
REMARK    2  A    between atoms: C3_3  and  N3_15 
REMARK    3  A    between atoms: N1_4  and  C4_5 
REMARK    4  A    between atoms: C4_5  and  N2_6 
REMARK    5  A    between atoms: N2_6  and  C5_7 
REMARK    6  A    between atoms: N3_15  and  C11_16 
REMARK    7  A    between atoms: C11_16  and  C12_17 
ROOT
HETATM    1  C3  UNL     1      25.736   5.490  49.391  1.00  0.00     0.096 C 
HETATM    2  N1  UNL     1      25.666   4.243  49.515  1.00  0.00    -0.258 NA
ENDROOT
BRANCH   1   3
HETATM    3  C2  UNL     1      24.445   6.155  48.995  1.00  0.00     0.073 C 
HETATM    4  C1  UNL     1      23.449   5.185  48.430  1.00  0.00     0.013 C 
ENDBRANCH   1   3
BRANCH   1   5
HETATM    5  N3  UNL     1      26.774   6.441  49.542  1.00  0.00    -0.375 N 
HETATM    6  H13 UNL     1      27.065   6.889  50.423  1.00  0.00     0.161 HD
BRANCH   5   7
HETATM    7  C11 UNL     1      27.470   6.787  48.295  1.00  0.00     0.150 C 
BRANCH   7   8
HETATM    8  C12 UNL     1      28.667   5.896  48.135  1.00  0.00     0.020 C 
HETATM    9  C13 UNL     1      29.881   6.235  48.466  1.00  0.00     0.035 C 
HETATM   10  C14 UNL     1      31.218   5.616  48.438  1.00  0.00     0.168 C 
HETATM   11  N5  UNL     1      30.552   7.363  49.025  1.00  0.00    -0.320 N 
HETATM   12  N4  UNL     1      31.427   6.424  49.627  1.00  0.00    -0.233 NA
HETATM   13  H19 UNL     1      30.938   6.007  50.458  1.00  0.00     0.147 HD
HETATM   14  C15 UNL     1      30.333   8.794  48.935  1.00  0.00     0.171 C 
ENDBRANCH   7   8
ENDBRANCH   5   7
ENDBRANCH   1   5
BRANCH   2  15
HETATM   15  C4  UNL     1      26.616   3.268  49.862  1.00  0.00     0.273 C 
BRANCH  15  16
HETATM   16  N2  UNL     1      26.711   3.097  51.330  1.00  0.00    -0.366 N 
HETATM   17  H8  UNL     1      26.604   3.962  51.919  1.00  0.00     0.162 HD
BRANCH  16  18
HETATM   18  C5  UNL     1      26.937   1.870  52.012  1.00  0.00     0.071 C 
HETATM   19  C6  UNL     1      26.434   0.684  51.707  1.00  0.00     0.037 C 
HETATM   20  C7  UNL     1      26.614  -0.593  52.344  1.00  0.00     0.004 C 
HETATM   21  C8  UNL     1      27.617  -1.017  53.077  1.00  0.00     0.024 C 
HETATM   22  C9  UNL     1      28.858  -0.390  53.498  1.00  0.00     0.040 C 
HETATM   23 CL1  UNL     1      30.180  -1.493  53.875  1.00  0.00    -0.084 Cl
HETATM   24  C10 UNL     1      29.104   0.896  53.631  1.00  0.00     0.075 C 
HETATM   25  S1  UNL     1      28.048   2.330  53.354  1.00  0.00    -0.083 SA
ENDBRANCH  16  18
ENDBRANCH  15  16
ENDBRANCH   2  15
TORSDOF 7
ENDMDL
MODEL 2
REMARK VINA RESULT:      -7.2      4.483      7.152
REMARK  7 active torsions:
REMARK  status: ('A' for Active; 'I' for Inactive)
REMARK    1  A    between atoms: C2_2  and  C3_3 
REMARK    2  A    between atoms: C3_3  and  N3_15 
REMARK    3  A    between atoms: N1_4  and  C4_5 
REMARK    4  A    between atoms: C4_5  and  N2_6 
REMARK    5  A    between atoms: N2_6  and  C5_7 
REMARK    6  A    between atoms: N3_15  and  C11_16 
REMARK    7  A    between atoms: C11_16  and  C12_17 
ROOT
HETATM    1  C3  UNL     1      27.593   0.418  54.360  1.00  0.00     0.096 C 
HETATM    2  N1  UNL     1      26.882  -0.572  54.657  1.00  0.00    -0.258 NA
ENDROOT
BRANCH   1   3
HETATM    3  C2  UNL     1      29.043   0.098  54.112  1.00  0.00     0.073 C 
HETATM    4  C1  UNL     1      29.226  -1.178  53.342  1.00  0.00     0.013 C 
ENDBRANCH   1   3
BRANCH   1   5
HETATM    5  N3  UNL     1      27.343   1.802  54.200  1.00  0.00    -0.375 N 
HETATM    6  H13 UNL     1      27.842   2.569  54.674  1.00  0.00     0.161 HD
BRANCH   5   7
HETATM    7  C11 UNL     1      26.261   2.121  53.260  1.00  0.00     0.150 C 
BRANCH   7   8
HETATM    8  C12 UNL     1      26.835   2.274  51.881  1.00  0.00     0.020 C 
HETATM    9  C13 UNL     1      26.364   3.087  50.978  1.00  0.00     0.035 C 
HETATM   10  C14 UNL     1      26.687   3.457  49.589  1.00  0.00     0.168 C 
HETATM   11  N5  UNL     1      25.308   4.037  50.855  1.00  0.00    -0.320 N 
HETATM   12  N4  UNL     1      26.182   4.756  50.001  1.00  0.00    -0.233 NA
HETATM   13  H19 UNL     1      26.882   5.260  50.601  1.00  0.00     0.147 HD
HETATM   14  C15 UNL     1      23.970   4.114  51.412  1.00  0.00     0.171 C 
ENDBRANCH   7   8
ENDBRANCH   5   7
ENDBRANCH   1   5
BRANCH   2  15
HETATM   15  C4  UNL     1      25.516  -0.705  54.957  1.00  0.00     0.273 C 
BRANCH  15  16
HETATM   16  N2  UNL     1      24.685  -0.702  53.731  1.00  0.00    -0.366 N 
HETATM   17  H8  UNL     1      25.121  -1.093  52.858  1.00  0.00     0.162 HD
BRANCH  16  18
HETATM   18  C5  UNL     1      23.352  -0.217  53.630  1.00  0.00     0.071 C 
HETATM   19  C6  UNL     1      22.898   0.699  52.789  1.00  0.00     0.037 C 
HETATM   20  C7  UNL     1      21.574   1.237  52.628  1.00  0.00     0.004 C 
HETATM   21  C8  UNL     1      20.417   0.692  52.927  1.00  0.00     0.024 C 
HETATM   22  C9  UNL     1      20.058  -0.594  53.500  1.00  0.00     0.040 C 
HETATM   23 CL1  UNL     1      18.444  -1.179  53.107  1.00  0.00    -0.084 Cl
HETATM   24  C10 UNL     1      20.796  -1.363  54.273  1.00  0.00     0.075 C 
HETATM   25  S1  UNL     1      22.469  -1.140  54.901  1.00  0.00    -0.083 SA
ENDBRANCH  16  18
ENDBRANCH  15  16
ENDBRANCH   2  15
TORSDOF 7
ENDMDL
MODEL 3
REMARK VINA RESULT:      -7.2      4.021      7.172
REMARK  7 active torsions:
REMARK  status: ('A' for Active; 'I' for Inactive)
REMARK    1  A    between atoms: C2_2  and  C3_3 
REMARK    2  A    between atoms: C3_3  and  N3_15 
REMARK    3  A    between atoms: N1_4  and  C4_5 
REMARK    4  A    between atoms: C4_5  and  N2_6 
REMARK    5  A    between atoms: N2_6  and  C5_7 
REMARK    6  A    between atoms: N3_15  and  C11_16 
REMARK    7  A    between atoms: C11_16  and  C12_17 
ROOT
HETATM    1  C3  UNL     1      23.924   3.161  52.533  1.00  0.00     0.096 C 
HETATM    2  N1  UNL     1      23.123   4.007  52.069  1.00  0.00    -0.258 NA
ENDROOT
BRANCH   1   3
HETATM    3  C2  UNL     1      23.329   1.801  52.777  1.00  0.00     0.073 C 
HETATM    4  C1  UNL     1      22.629   1.254  51.567  1.00  0.00     0.013 C 
ENDBRANCH   1   3
BRANCH   1   5
HETATM    5  N3  UNL     1      25.294   3.189  52.890  1.00  0.00    -0.375 N 
HETATM    6  H13 UNL     1      25.736   3.837  53.558  1.00  0.00     0.161 HD
BRANCH   5   7
HETATM    7  C11 UNL     1      26.120   2.179  52.215  1.00  0.00     0.150 C 
BRANCH   7   8
HETATM    8  C12 UNL     1      27.422   2.035  52.950  1.00  0.00     0.020 C 
HETATM    9  C13 UNL     1      27.686   1.074  53.789  1.00  0.00     0.035 C 
HETATM   10  C14 UNL     1      28.820   0.666  54.636  1.00  0.00     0.168 C 
HETATM   11  N5  UNL     1      27.033  -0.076  54.323  1.00  0.00    -0.320 N 
HETATM   12  N4  UNL     1      28.320  -0.670  54.361  1.00  0.00    -0.233 NA
HETATM   13  H19 UNL     1      28.569  -0.974  53.387  1.00  0.00     0.147 HD
HETATM   14  C15 UNL     1      25.650  -0.376  54.642  1.00  0.00     0.171 C 
ENDBRANCH   7   8
ENDBRANCH   5   7
ENDBRANCH   1   5
BRANCH   2  15
HETATM   15  C4  UNL     1      23.270   5.357  51.708  1.00  0.00     0.273 C 
BRANCH  15  16
HETATM   16  N2  UNL     1      23.744   5.501  50.312  1.00  0.00    -0.366 N 
HETATM   17  H8  UNL     1      23.010   5.622  49.569  1.00  0.00     0.162 HD
BRANCH  16  18
HETATM   18  C5  UNL     1      25.102   5.488  49.889  1.00  0.00     0.071 C 
HETATM   19  C6  UNL     1      25.784   4.451  49.428  1.00  0.00     0.037 C 
HETATM   20  C7  UNL     1      27.148   4.360  48.984  1.00  0.00     0.004 C 
HETATM   21  C8  UNL     1      27.926   5.303  48.503  1.00  0.00     0.024 C 
HETATM   22  C9  UNL     1      27.712   6.717  48.250  1.00  0.00     0.040 C 
HETATM   23 CL1  UNL     1      28.737   7.433  47.009  1.00  0.00    -0.084 Cl
HETATM   24  C10 UNL     1      26.847   7.516  48.838  1.00  0.00     0.075 C 
HETATM   25  S1  UNL     1      25.637   7.192  50.133  1.00  0.00    -0.083 SA
ENDBRANCH  16  18
ENDBRANCH  15  16
ENDBRANCH   2  15
TORSDOF 7
ENDMDL
MODEL 4
REMARK VINA RESULT:      -7.0      1.911      4.792
REMARK  7 active torsions:
REMARK  status: ('A' for Active; 'I' for Inactive)
REMARK    1  A    between atoms: C2_2  and  C3_3 
REMARK    2  A    between atoms: C3_3  and  N3_15 
REMARK    3  A    between atoms: N1_4  and  C4_5 
REMARK    4  A    between atoms: C4_5  and  N2_6 
REMARK    5  A    between atoms: N2_6  and  C5_7 
REMARK    6  A    between atoms: N3_15  and  C11_16 
REMARK    7  A    between atoms: C11_16  and  C12_17 
ROOT
HETATM    1  C3  UNL     1      26.534   5.627  49.452  1.00  0.00     0.096 C 
HETATM    2  N1  UNL     1      26.670   4.385  49.343  1.00  0.00    -0.258 NA
ENDROOT
BRANCH   1   3
HETATM    3  C2  UNL     1      27.328   6.434  48.459  1.00  0.00     0.073 C 
HETATM    4  C1  UNL     1      28.640   5.791  48.114  1.00  0.00     0.013 C 
ENDBRANCH   1   3
BRANCH   1   5
HETATM    5  N3  UNL     1      25.788   6.469  50.312  1.00  0.00    -0.375 N 
HETATM    6  H13 UNL     1      26.166   7.039  51.082  1.00  0.00     0.161 HD
BRANCH   5   7
HETATM    7  C11 UNL     1      24.346   6.495  50.038  1.00  0.00     0.150 C 
BRANCH   7   8
HETATM    8  C12 UNL     1      23.608   5.941  51.222  1.00  0.00     0.020 C 
HETATM    9  C13 UNL     1      22.909   4.841  51.200  1.00  0.00     0.035 C 
HETATM   10  C14 UNL     1      22.101   4.059  52.152  1.00  0.00     0.168 C 
HETATM   11  N5  UNL     1      22.561   3.825  50.261  1.00  0.00    -0.320 N 
HETATM   12  N4  UNL     1      22.577   2.935  51.365  1.00  0.00    -0.233 NA
HETATM   13  H19 UNL     1      23.579   2.713  51.591  1.00  0.00     0.147 HD
HETATM   14  C15 UNL     1      22.323   3.833  48.830  1.00  0.00     0.171 C 
ENDBRANCH   7   8
ENDBRANCH   5   7
ENDBRANCH   1   5
BRANCH   2  15
HETATM   15  C4  UNL     1      26.121   3.304  50.052  1.00  0.00     0.273 C 
BRANCH  15  16
HETATM   16  N2  UNL     1      26.747   3.150  51.386  1.00  0.00    -0.366 N 
HETATM   17  H8  UNL     1      27.053   4.030  51.873  1.00  0.00     0.162 HD
BRANCH  16  18
HETATM   18  C5  UNL     1      26.973   1.920  52.063  1.00  0.00     0.071 C 
HETATM   19  C6  UNL     1      26.451   0.740  51.768  1.00  0.00     0.037 C 
HETATM   20  C7  UNL     1      26.630  -0.539  52.400  1.00  0.00     0.004 C 
HETATM   21  C8  UNL     1      27.643  -0.975  53.113  1.00  0.00     0.024 C 
HETATM   22  C9  UNL     1      28.899  -0.362  53.509  1.00  0.00     0.040 C 
HETATM   23 CL1  UNL     1      30.216  -1.479  53.857  1.00  0.00    -0.084 Cl
HETATM   24  C10 UNL     1      29.162   0.922  53.636  1.00  0.00     0.075 C 
HETATM   25  S1  UNL     1      28.117   2.368  53.381  1.00  0.00    -0.083 SA
ENDBRANCH  16  18
ENDBRANCH  15  16
ENDBRANCH   2  15
TORSDOF 7
ENDMDL
MODEL 5
REMARK VINA RESULT:      -7.0      3.990      6.556
REMARK  7 active torsions:
REMARK  status: ('A' for Active; 'I' for Inactive)
REMARK    1  A    between atoms: C2_2  and  C3_3 
REMARK    2  A    between atoms: C3_3  and  N3_15 
REMARK    3  A    between atoms: N1_4  and  C4_5 
REMARK    4  A    between atoms: C4_5  and  N2_6 
REMARK    5  A    between atoms: N2_6  and  C5_7 
REMARK    6  A    between atoms: N3_15  and  C11_16 
REMARK    7  A    between atoms: C11_16  and  C12_17 
ROOT
HETATM    1  C3  UNL     1      25.736   3.807  50.068  1.00  0.00     0.096 C 
HETATM    2  N1  UNL     1      24.669   3.901  49.414  1.00  0.00    -0.258 NA
ENDROOT
BRANCH   1   3
HETATM    3  C2  UNL     1      26.983   4.106  49.280  1.00  0.00     0.073 C 
HETATM    4  C1  UNL     1      26.961   5.477  48.669  1.00  0.00     0.013 C 
ENDBRANCH   1   3
BRANCH   1   5
HETATM    5  N3  UNL     1      26.047   3.475  51.408  1.00  0.00    -0.375 N 
HETATM    6  H13 UNL     1      25.668   3.930  52.251  1.00  0.00     0.161 HD
BRANCH   5   7
HETATM    7  C11 UNL     1      27.005   2.372  51.557  1.00  0.00     0.150 C 
BRANCH   7   8
HETATM    8  C12 UNL     1      26.259   1.111  51.885  1.00  0.00     0.020 C 
HETATM    9  C13 UNL     1      26.547   0.330  52.888  1.00  0.00     0.035 C 
HETATM   10  C14 UNL     1      26.030  -0.926  53.458  1.00  0.00     0.168 C 
HETATM   11  N5  UNL     1      27.497   0.276  53.950  1.00  0.00    -0.320 N 
HETATM   12  N4  UNL     1      26.469  -0.336  54.711  1.00  0.00    -0.233 NA
HETATM   13  H19 UNL     1      25.806   0.415  55.027  1.00  0.00     0.147 HD
HETATM   14  C15 UNL     1      28.881   0.696  54.069  1.00  0.00     0.171 C 
ENDBRANCH   7   8
ENDBRANCH   5   7
ENDBRANCH   1   5
BRANCH   2  15
HETATM   15  C4  UNL     1      23.322   3.711  49.762  1.00  0.00     0.273 C 
BRANCH  15  16
HETATM   16  N2  UNL     1      22.968   2.273  49.811  1.00  0.00    -0.366 N 
HETATM   17  H8  UNL     1      23.426   1.645  49.103  1.00  0.00     0.162 HD
BRANCH  16  18
HETATM   18  C5  UNL     1      22.065   1.670  50.728  1.00  0.00     0.071 C 
HETATM   19  C6  UNL     1      20.973   0.980  50.436  1.00  0.00     0.037 C 
HETATM   20  C7  UNL     1      20.017   0.344  51.301  1.00  0.00     0.004 C 
HETATM   21  C8  UNL     1      20.178  -0.104  52.525  1.00  0.00     0.024 C 
HETATM   22  C9  UNL     1      21.324  -0.127  53.417  1.00  0.00     0.040 C 
HETATM   23 CL1  UNL     1      21.305  -1.386  54.649  1.00  0.00    -0.084 Cl
HETATM   24  C10 UNL     1      22.364   0.679  53.410  1.00  0.00     0.075 C 
HETATM   25  S1  UNL     1      22.767   2.071  52.339  1.00  0.00    -0.083 SA
ENDBRANCH  16  18
ENDBRANCH  15  16
ENDBRANCH   2  15
TORSDOF 7
ENDMDL
MODEL 6
REMARK VINA RESULT:      -6.9      4.257      7.426
REMARK  7 active torsions:
REMARK  status: ('A' for Active; 'I' for Inactive)
REMARK    1  A    between atoms: C2_2  and  C3_3 
REMARK    2  A    between atoms: C3_3  and  N3_15 
REMARK    3  A    between atoms: N1_4  and  C4_5 
REMARK    4  A    between atoms: C4_5  and  N2_6 
REMARK    5  A    between atoms: N2_6  and  C5_7 
REMARK    6  A    between atoms: N3_15  and  C11_16 
REMARK    7  A    between atoms: C11_16  and  C12_17 
ROOT
HETATM    1  C3  UNL     1      22.688   2.651  50.379  1.00  0.00     0.096 C 
HETATM    2  N1  UNL     1      23.772   3.208  50.677  1.00  0.00    -0.258 NA
ENDROOT
BRANCH   1   3
HETATM    3  C2  UNL     1      22.351   2.678  48.912  1.00  0.00     0.073 C 
HETATM    4  C1  UNL     1      22.900   3.892  48.219  1.00  0.00     0.013 C 
ENDBRANCH   1   3
BRANCH   1   5
HETATM    5  N3  UNL     1      21.682   1.985  51.120  1.00  0.00    -0.375 N 
HETATM    6  H13 UNL     1      20.830   2.413  51.509  1.00  0.00     0.161 HD
BRANCH   5   7
HETATM    7  C11 UNL     1      21.925   0.551  51.324  1.00  0.00     0.150 C 
BRANCH   7   8
HETATM    8  C12 UNL     1      22.355   0.321  52.744  1.00  0.00     0.020 C 
HETATM    9  C13 UNL     1      21.616  -0.259  53.648  1.00  0.00     0.035 C 
HETATM   10  C14 UNL     1      21.741  -0.622  55.070  1.00  0.00     0.168 C 
HETATM   11  N5  UNL     1      20.318  -0.843  53.741  1.00  0.00    -0.320 N 
HETATM   12  N4  UNL     1      20.892  -1.735  54.682  1.00  0.00    -0.233 NA
HETATM   13  H19 UNL     1      21.438  -2.461  54.154  1.00  0.00     0.147 HD
HETATM   14  C15 UNL     1      19.050  -0.554  53.099  1.00  0.00     0.171 C 
ENDBRANCH   7   8
ENDBRANCH   5   7
ENDBRANCH   1   5
BRANCH   2  15
HETATM   15  C4  UNL     1      24.437   3.398  51.900  1.00  0.00     0.273 C 
BRANCH  15  16
HETATM   16  N2  UNL     1      25.839   2.925  51.838  1.00  0.00    -0.366 N 
HETATM   17  H8  UNL     1      26.533   3.551  51.356  1.00  0.00     0.162 HD
BRANCH  16  18
HETATM   18  C5  UNL     1      26.329   1.700  52.369  1.00  0.00     0.071 C 
HETATM   19  C6  UNL     1      26.034   0.477  51.957  1.00  0.00     0.037 C 
HETATM   20  C7  UNL     1      26.486  -0.800  52.441  1.00  0.00     0.004 C 
HETATM   21  C8  UNL     1      27.594  -1.098  53.079  1.00  0.00     0.024 C 
HETATM   22  C9  UNL     1      28.722  -0.293  53.513  1.00  0.00     0.040 C 
HETATM   23 CL1  UNL     1      30.245  -1.158  53.707  1.00  0.00    -0.084 Cl
HETATM   24  C10 UNL     1      28.735   0.997  53.775  1.00  0.00     0.075 C 
HETATM   25  S1  UNL     1      27.420   2.225  53.705  1.00  0.00    -0.083 SA
ENDBRANCH  16  18
ENDBRANCH  15  16
ENDBRANCH   2  15
TORSDOF 7
ENDMDL
MODEL 7
REMARK VINA RESULT:      -6.8      2.212      2.663
REMARK  7 active torsions:
REMARK  status: ('A' for Active; 'I' for Inactive)
REMARK    1  A    between atoms: C2_2  and  C3_3 
REMARK    2  A    between atoms: C3_3  and  N3_15 
REMARK    3  A    between atoms: N1_4  and  C4_5 
REMARK    4  A    between atoms: C4_5  and  N2_6 
REMARK    5  A    between atoms: N2_6  and  C5_7 
REMARK    6  A    between atoms: N3_15  and  C11_16 
REMARK    7  A    between atoms: C11_16  and  C12_17 
ROOT
HETATM    1  C3  UNL     1      25.683   6.973  50.035  1.00  0.00     0.096 C 
HETATM    2  N1  UNL     1      25.098   5.863  50.027  1.00  0.00    -0.258 NA
ENDROOT
BRANCH   1   3
HETATM    3  C2  UNL     1      24.804   8.143  50.387  1.00  0.00     0.073 C 
HETATM    4  C1  UNL     1      23.365   7.750  50.556  1.00  0.00     0.013 C 
ENDBRANCH   1   3
BRANCH   1   5
HETATM    5  N3  UNL     1      27.012   7.391  49.783  1.00  0.00    -0.375 N 
HETATM    6  H13 UNL     1      27.737   7.573  50.493  1.00  0.00     0.161 HD
BRANCH   5   7
HETATM    7  C11 UNL     1      27.337   7.568  48.362  1.00  0.00     0.150 C 
BRANCH   7   8
HETATM    8  C12 UNL     1      28.217   6.437  47.913  1.00  0.00     0.020 C 
HETATM    9  C13 UNL     1      29.481   6.330  48.211  1.00  0.00     0.035 C 
HETATM   10  C14 UNL     1      30.575   5.382  47.938  1.00  0.00     0.168 C 
HETATM   11  N5  UNL     1      30.461   7.057  48.948  1.00  0.00    -0.320 N 
HETATM   12  N4  UNL     1      31.028   5.795  49.255  1.00  0.00    -0.233 NA
HETATM   13  H19 UNL     1      30.448   5.351  50.010  1.00  0.00     0.147 HD
HETATM   14  C15 UNL     1      30.673   8.471  49.194  1.00  0.00     0.171 C 
ENDBRANCH   7   8
ENDBRANCH   5   7
ENDBRANCH   1   5
BRANCH   2  15
HETATM   15  C4  UNL     1      25.542   4.557  49.757  1.00  0.00     0.273 C 
BRANCH  15  16
HETATM   16  N2  UNL     1      26.102   3.910  50.966  1.00  0.00    -0.366 N 
HETATM   17  H8  UNL     1      26.709   4.503  51.587  1.00  0.00     0.162 HD
BRANCH  16  18
HETATM   18  C5  UNL     1      25.892   2.560  51.360  1.00  0.00     0.071 C 
HETATM   19  C6  UNL     1      26.816   1.678  51.707  1.00  0.00     0.037 C 
HETATM   20  C7  UNL     1      26.682   0.305  52.115  1.00  0.00     0.004 C 
HETATM   21  C8  UNL     1      25.655  -0.297  52.669  1.00  0.00     0.024 C 
HETATM   22  C9  UNL     1      24.337   0.172  53.059  1.00  0.00     0.040 C 
HETATM   23 CL1  UNL     1      23.551  -0.744  54.343  1.00  0.00    -0.084 Cl
HETATM   24  C10 UNL     1      23.669   1.194  52.566  1.00  0.00     0.075 C 
HETATM   25  S1  UNL     1      24.102   2.368  51.270  1.00  0.00    -0.083 SA
ENDBRANCH  16  18
ENDBRANCH  15  16
ENDBRANCH   2  15
TORSDOF 7
ENDMDL
MODEL 8
REMARK VINA RESULT:      -6.8      4.589      8.683
REMARK  7 active torsions:
REMARK  status: ('A' for Active; 'I' for Inactive)
REMARK    1  A    between atoms: C2_2  and  C3_3 
REMARK    2  A    between atoms: C3_3  and  N3_15 
REMARK    3  A    between atoms: N1_4  and  C4_5 
REMARK    4  A    between atoms: C4_5  and  N2_6 
REMARK    5  A    between atoms: N2_6  and  C5_7 
REMARK    6  A    between atoms: N3_15  and  C11_16 
REMARK    7  A    between atoms: C11_16  and  C12_17 
ROOT
HETATM    1  C3  UNL     1      26.587   1.354  52.122  1.00  0.00     0.096 C 
HETATM    2  N1  UNL     1      27.082   2.325  51.501  1.00  0.00    -0.258 NA
ENDROOT
BRANCH   1   3
HETATM    3  C2  UNL     1      27.509   0.716  53.127  1.00  0.00     0.073 C 
HETATM    4  C1  UNL     1      27.653  -0.763  52.917  1.00  0.00     0.013 C 
ENDBRANCH   1   3
BRANCH   1   5
HETATM    5  N3  UNL     1      25.331   0.701  52.097  1.00  0.00    -0.375 N 
HETATM    6  H13 UNL     1      25.013   0.021  51.391  1.00  0.00     0.161 HD
BRANCH   5   7
HETATM    7  C11 UNL     1      24.436   1.060  53.204  1.00  0.00     0.150 C 
BRANCH   7   8
HETATM    8  C12 UNL     1      23.011   0.876  52.767  1.00  0.00     0.020 C 
HETATM    9  C13 UNL     1      22.121   0.203  53.439  1.00  0.00     0.035 C 
HETATM   10  C14 UNL     1      20.698  -0.149  53.289  1.00  0.00     0.168 C 
HETATM   11  N5  UNL     1      22.047  -0.536  54.656  1.00  0.00    -0.320 N 
HETATM   12  N4  UNL     1      20.707  -0.081  54.740  1.00  0.00    -0.233 NA
HETATM   13  H19 UNL     1      20.721   0.915  55.071  1.00  0.00     0.147 HD
HETATM   14  C15 UNL     1      23.000  -1.356  55.381  1.00  0.00     0.171 C 
ENDBRANCH   7   8
ENDBRANCH   5   7
ENDBRANCH   1   5
BRANCH   2  15
HETATM   15  C4  UNL     1      26.572   3.175  50.505  1.00  0.00     0.273 C 
BRANCH  15  16
HETATM   16  N2  UNL     1      25.431   3.978  51.004  1.00  0.00    -0.366 N 
HETATM   17  H8  UNL     1      25.650   4.736  51.699  1.00  0.00     0.162 HD
BRANCH  16  18
HETATM   18  C5  UNL     1      24.070   3.812  50.629  1.00  0.00     0.071 C 
HETATM   19  C6  UNL     1      23.589   2.983  49.716  1.00  0.00     0.037 C 
HETATM   20  C7  UNL     1      22.236   2.760  49.284  1.00  0.00     0.004 C 
HETATM   21  C8  UNL     1      21.115   2.960  49.938  1.00  0.00     0.024 C 
HETATM   22  C9  UNL     1      20.835   3.454  51.275  1.00  0.00     0.040 C 
HETATM   23 CL1  UNL     1      19.305   2.934  51.975  1.00  0.00    -0.084 Cl
HETATM   24  C10 UNL     1      21.588   4.240  52.015  1.00  0.00     0.075 C 
HETATM   25  S1  UNL     1      23.196   4.983  51.683  1.00  0.00    -0.083 SA
ENDBRANCH  16  18
ENDBRANCH  15  16
ENDBRANCH   2  15
TORSDOF 7
ENDMDL
MODEL 9
REMARK VINA RESULT:      -6.8      2.983      5.177
REMARK  7 active torsions:
REMARK  status: ('A' for Active; 'I' for Inactive)
REMARK    1  A    between atoms: C2_2  and  C3_3 
REMARK    2  A    between atoms: C3_3  and  N3_15 
REMARK    3  A    between atoms: N1_4  and  C4_5 
REMARK    4  A    between atoms: C4_5  and  N2_6 
REMARK    5  A    between atoms: N2_6  and  C5_7 
REMARK    6  A    between atoms: N3_15  and  C11_16 
REMARK    7  A    between atoms: C11_16  and  C12_17 
ROOT
HETATM    1  C3  UNL     1      24.601   4.681  49.293  1.00  0.00     0.096 C 
HETATM    2  N1  UNL     1      25.714   4.465  49.831  1.00  0.00    -0.258 NA
ENDROOT
BRANCH   1   3
HETATM    3  C2  UNL     1      24.159   6.120  49.322  1.00  0.00     0.073 C 
HETATM    4  C1  UNL     1      24.714   6.868  50.500  1.00  0.00     0.013 C 
ENDBRANCH   1   3
BRANCH   1   5
HETATM    5  N3  UNL     1      23.640   3.866  48.649  1.00  0.00    -0.375 N 
HETATM    6  H13 UNL     1      23.699   3.500  47.687  1.00  0.00     0.161 HD
BRANCH   5   7
HETATM    7  C11 UNL     1      22.468   3.540  49.472  1.00  0.00     0.150 C 
BRANCH   7   8
HETATM    8  C12 UNL     1      22.623   2.152  50.023  1.00  0.00     0.020 C 
HETATM    9  C13 UNL     1      22.876   1.885  51.273  1.00  0.00     0.035 C 
HETATM   10  C14 UNL     1      23.077   0.681  52.098  1.00  0.00     0.168 C 
HETATM   11  N5  UNL     1      23.089   2.602  52.488  1.00  0.00    -0.320 N 
HETATM   12  N4  UNL     1      22.472   1.501  53.133  1.00  0.00    -0.233 NA
HETATM   13  H19 UNL     1      21.434   1.580  52.993  1.00  0.00     0.147 HD
HETATM   14  C15 UNL     1      23.689   3.887  52.792  1.00  0.00     0.171 C 
ENDBRANCH   7   8
ENDBRANCH   5   7
ENDBRANCH   1   5
BRANCH   2  15
HETATM   15  C4  UNL     1      26.470   3.295  50.012  1.00  0.00     0.273 C 
BRANCH  15  16
HETATM   16  N2  UNL     1      26.856   3.107  51.430  1.00  0.00    -0.366 N 
HETATM   17  H8  UNL     1      26.993   3.976  52.006  1.00  0.00     0.162 HD
BRANCH  16  18
HETATM   18  C5  UNL     1      27.058   1.859  52.079  1.00  0.00     0.071 C 
HETATM   19  C6  UNL     1      26.545   0.688  51.734  1.00  0.00     0.037 C 
HETATM   20  C7  UNL     1      26.702  -0.609  52.336  1.00  0.00     0.004 C 
HETATM   21  C8  UNL     1      27.690  -1.066  53.070  1.00  0.00     0.024 C 
HETATM   22  C9  UNL     1      28.932  -0.466  53.525  1.00  0.00     0.040 C 
HETATM   23 CL1  UNL     1      30.236  -1.594  53.887  1.00  0.00    -0.084 Cl
HETATM   24  C10 UNL     1      29.191   0.813  53.697  1.00  0.00     0.075 C 
HETATM   25  S1  UNL     1      28.157   2.267  53.448  1.00  0.00    -0.083 SA
ENDBRANCH  16  18
ENDBRANCH  15  16
ENDBRANCH   2  15
TORSDOF 7
ENDMDL
