MODEL 1
REMARK VINA RESULT:      -7.7      0.000      0.000
REMARK  4 active torsions:
REMARK  status: ('A' for Active; 'I' for Inactive)
REMARK    1  A    between atoms: O1_2  and  C2_3 
REMARK    2  A    between atoms: C8_11  and  N3_12 
REMARK    3  A    between atoms: N4_19  and  C14_20 
REMARK    4  A    between atoms: C21_27  and  O2_28 
ROOT
HETATM    1  N3  UNL     1      23.682   1.115  52.419  1.00  0.00    -0.364 N 
HETATM    2  C9  UNL     1      24.655   0.023  52.350  1.00  0.00     0.151 C 
HETATM    3  C10 UNL     1      25.593   0.060  53.510  1.00  0.00    -0.010 C 
HETATM    4  C11 UNL     1      26.007   1.225  54.028  1.00  0.00    -0.011 C 
HETATM    5  C12 UNL     1      25.487   2.451  53.389  1.00  0.00     0.105 C 
HETATM    6  S1  UNL     1      25.877   2.651  51.646  1.00  0.00    -0.101 SA
HETATM    7  C13 UNL     1      24.335   3.479  52.015  1.00  0.00     0.096 C 
HETATM    8  N4  UNL     1      23.616   4.528  51.700  1.00  0.00    -0.244 NA
HETATM    9  C20 UNL     1      24.050   2.392  52.990  1.00  0.00     0.161 C 
ENDROOT
BRANCH   1  10
HETATM   10  C8  UNL     1      22.361   0.944  51.927  1.00  0.00     0.077 A 
HETATM   11  C4  UNL     1      21.282   0.310  52.718  1.00  0.00     0.112 A 
HETATM   12  C3  UNL     1      20.079   0.315  51.882  1.00  0.00     0.049 A 
HETATM   13  C5  UNL     1      21.041   0.823  54.065  1.00  0.00     0.055 A 
HETATM   14  N2  UNL     1      21.646  -0.962  53.289  1.00  0.00    -0.205 NA
HETATM   15  C2  UNL     1      20.430   0.888  50.742  1.00  0.00     0.102 A 
HETATM   16  C21 UNL     1      21.851   1.287  50.753  1.00  0.00     0.126 A 
HETATM   17  C6  UNL     1      21.382  -0.360  54.551  1.00  0.00     0.111 A 
HETATM   18  N1  UNL     1      21.722  -1.577  55.244  1.00  0.00    -0.237 NA
HETATM   19  C7  UNL     1      21.954  -2.095  54.064  1.00  0.00     0.188 A 
BRANCH  15  20
HETATM   20  O1  UNL     1      19.496   1.056  49.700  1.00  0.00    -0.353 OA
HETATM   21  C1  UNL     1      18.811   2.315  49.766  1.00  0.00     0.210 C 
ENDBRANCH  15  20
BRANCH  16  22
HETATM   22  O2  UNL     1      22.519   1.901  49.730  1.00  0.00    -0.351 OA
HETATM   23  C22 UNL     1      22.215   1.738  48.360  1.00  0.00     0.210 C 
ENDBRANCH  16  22
ENDBRANCH   1  10
BRANCH   8  24
HETATM   24  C14 UNL     1      24.048   5.468  50.740  1.00  0.00     0.057 A 
HETATM   25  C15 UNL     1      24.244   6.761  51.184  1.00  0.00     0.031 A 
HETATM   26  C16 UNL     1      24.669   7.701  50.257  1.00  0.00     0.002 A 
HETATM   27  C17 UNL     1      24.901   7.393  48.922  1.00  0.00     0.000 A 
HETATM   28  C18 UNL     1      24.689   6.085  48.541  1.00  0.00     0.002 A 
HETATM   29  C19 UNL     1      24.267   5.112  49.421  1.00  0.00     0.031 A 
ENDBRANCH   8  24
TORSDOF 4
ENDMDL
MODEL 2
REMARK VINA RESULT:      -7.7      7.523     11.316
REMARK  4 active torsions:
REMARK  status: ('A' for Active; 'I' for Inactive)
REMARK    1  A    between atoms: O1_2  and  C2_3 
REMARK    2  A    between atoms: C8_11  and  N3_12 
REMARK    3  A    between atoms: N4_19  and  C14_20 
REMARK    4  A    between atoms: C21_27  and  O2_28 
ROOT
HETATM    1  N3  UNL     1      30.488   8.405  47.837  1.00  0.00    -0.364 N 
HETATM    2  C9  UNL     1      30.848   9.382  48.867  1.00  0.00     0.151 C 
HETATM    3  C10 UNL     1      31.303  10.666  48.260  1.00  0.00    -0.010 C 
HETATM    4  C11 UNL     1      32.011  10.681  47.122  1.00  0.00    -0.011 C 
HETATM    5  C12 UNL     1      32.308   9.368  46.515  1.00  0.00     0.105 C 
HETATM    6  S1  UNL     1      33.255   8.230  47.536  1.00  0.00    -0.101 SA
HETATM    7  C13 UNL     1      32.208   7.305  46.420  1.00  0.00     0.096 C 
HETATM    8  N4  UNL     1      32.162   6.206  45.707  1.00  0.00    -0.244 NA
HETATM    9  C20 UNL     1      31.191   8.380  46.572  1.00  0.00     0.161 C 
ENDROOT
BRANCH   1  10
HETATM   10  C8  UNL     1      29.448   7.465  48.056  1.00  0.00     0.077 A 
HETATM   11  C4  UNL     1      28.015   7.788  47.862  1.00  0.00     0.112 A 
HETATM   12  C3  UNL     1      27.256   6.577  48.184  1.00  0.00     0.049 A 
HETATM   13  C5  UNL     1      27.624   8.383  46.586  1.00  0.00     0.055 A 
HETATM   14  N2  UNL     1      27.592   8.992  48.531  1.00  0.00    -0.205 NA
HETATM   15  C2  UNL     1      28.153   5.665  48.523  1.00  0.00     0.102 A 
HETATM   16  C21 UNL     1      29.525   6.202  48.449  1.00  0.00     0.126 A 
HETATM   17  C6  UNL     1      27.246   9.472  47.237  1.00  0.00     0.111 A 
HETATM   18  N1  UNL     1      26.789  10.724  47.782  1.00  0.00    -0.237 NA
HETATM   19  C7  UNL     1      27.120  10.247  48.956  1.00  0.00     0.188 A 
BRANCH  15  20
HETATM   20  O1  UNL     1      27.755   4.365  48.895  1.00  0.00    -0.353 OA
HETATM   21  C1  UNL     1      26.376   4.296  49.284  1.00  0.00     0.210 C 
ENDBRANCH  15  20
BRANCH  16  22
HETATM   22  O2  UNL     1      30.672   5.514  48.736  1.00  0.00    -0.351 OA
HETATM   23  C22 UNL     1      31.558   5.833  49.790  1.00  0.00     0.210 C 
ENDBRANCH  16  22
ENDBRANCH   1  10
BRANCH   8  24
HETATM   24  C14 UNL     1      33.234   5.289  45.680  1.00  0.00     0.057 A 
HETATM   25  C15 UNL     1      33.945   5.202  44.500  1.00  0.00     0.031 A 
HETATM   26  C16 UNL     1      35.003   4.307  44.451  1.00  0.00     0.002 A 
HETATM   27  C17 UNL     1      35.366   3.509  45.529  1.00  0.00     0.000 A 
HETATM   28  C18 UNL     1      34.619   3.642  46.679  1.00  0.00     0.002 A 
HETATM   29  C19 UNL     1      33.557   4.516  46.781  1.00  0.00     0.031 A 
ENDBRANCH   8  24
TORSDOF 4
ENDMDL
MODEL 3
REMARK VINA RESULT:      -7.7      2.572      5.594
REMARK  4 active torsions:
REMARK  status: ('A' for Active; 'I' for Inactive)
REMARK    1  A    between atoms: O1_2  and  C2_3 
REMARK    2  A    between atoms: C8_11  and  N3_12 
REMARK    3  A    between atoms: N4_19  and  C14_20 
REMARK    4  A    between atoms: C21_27  and  O2_28 
ROOT
HETATM    1  N3  UNL     1      21.345   2.703  51.834  1.00  0.00    -0.364 N 
HETATM    2  C9  UNL     1      20.938   4.032  52.295  1.00  0.00     0.151 C 
HETATM    3  C10 UNL     1      21.383   5.093  51.346  1.00  0.00    -0.010 C 
HETATM    4  C11 UNL     1      22.552   4.997  50.698  1.00  0.00    -0.011 C 
HETATM    5  C12 UNL     1      23.360   3.793  50.977  1.00  0.00     0.105 C 
HETATM    6  S1  UNL     1      23.857   3.562  52.689  1.00  0.00    -0.101 SA
HETATM    7  C13 UNL     1      23.719   1.971  51.884  1.00  0.00     0.096 C 
HETATM    8  N4  UNL     1      24.252   0.774  51.848  1.00  0.00    -0.244 NA
HETATM    9  C20 UNL     1      22.582   2.527  51.104  1.00  0.00     0.161 C 
ENDROOT
BRANCH   1  10
HETATM   10  C8  UNL     1      20.539   1.564  52.094  1.00  0.00     0.077 A 
HETATM   11  C4  UNL     1      19.381   1.187  51.251  1.00  0.00     0.112 A 
HETATM   12  C3  UNL     1      18.808  -0.031  51.831  1.00  0.00     0.049 A 
HETATM   13  C5  UNL     1      19.599   1.083  49.811  1.00  0.00     0.055 A 
HETATM   14  N2  UNL     1      18.455   2.265  51.014  1.00  0.00    -0.205 NA
HETATM   15  C2  UNL     1      19.556  -0.318  52.885  1.00  0.00     0.102 A 
HETATM   16  C21 UNL     1      20.639   0.666  53.063  1.00  0.00     0.126 A 
HETATM   17  C6  UNL     1      18.742   2.076  49.634  1.00  0.00     0.111 A 
HETATM   18  N1  UNL     1      17.843   3.139  49.263  1.00  0.00    -0.237 NA
HETATM   19  C7  UNL     1      17.605   3.282  50.543  1.00  0.00     0.188 A 
BRANCH  15  20
HETATM   20  O1  UNL     1      19.276  -1.447  53.682  1.00  0.00    -0.353 OA
HETATM   21  C1  UNL     1      17.951  -1.958  53.477  1.00  0.00     0.210 C 
ENDBRANCH  15  20
BRANCH  16  22
HETATM   22  O2  UNL     1      21.581   0.652  54.057  1.00  0.00    -0.351 OA
HETATM   23  C22 UNL     1      21.946  -0.492  54.801  1.00  0.00     0.210 C 
ENDBRANCH  16  22
ENDBRANCH   1  10
BRANCH   8  24
HETATM   24  C14 UNL     1      25.342   0.418  52.671  1.00  0.00     0.057 A 
HETATM   25  C15 UNL     1      26.468  -0.064  52.032  1.00  0.00     0.031 A 
HETATM   26  C16 UNL     1      27.551  -0.420  52.821  1.00  0.00     0.002 A 
HETATM   27  C17 UNL     1      27.545  -0.311  54.206  1.00  0.00     0.000 A 
HETATM   28  C18 UNL     1      26.393   0.176  54.784  1.00  0.00     0.002 A 
HETATM   29  C19 UNL     1      25.287   0.545  54.047  1.00  0.00     0.031 A 
ENDBRANCH   8  24
TORSDOF 4
ENDMDL
MODEL 4
REMARK VINA RESULT:      -7.5      2.425      5.859
REMARK  4 active torsions:
REMARK  status: ('A' for Active; 'I' for Inactive)
REMARK    1  A    between atoms: O1_2  and  C2_3 
REMARK    2  A    between atoms: C8_11  and  N3_12 
REMARK    3  A    between atoms: N4_19  and  C14_20 
REMARK    4  A    between atoms: C21_27  and  O2_28 
ROOT
HETATM    1  N3  UNL     1      22.647   2.243  51.090  1.00  0.00    -0.364 N 
HETATM    2  C9  UNL     1      21.958   1.198  50.331  1.00  0.00     0.151 C 
HETATM    3  C10 UNL     1      20.902   0.538  51.153  1.00  0.00    -0.010 C 
HETATM    4  C11 UNL     1      21.075   0.333  52.467  1.00  0.00    -0.011 C 
HETATM    5  C12 UNL     1      22.355   0.795  53.040  1.00  0.00     0.105 C 
HETATM    6  S1  UNL     1      23.838   0.054  52.343  1.00  0.00    -0.101 SA
HETATM    7  C13 UNL     1      24.212   1.697  52.942  1.00  0.00     0.096 C 
HETATM    8  N4  UNL     1      25.157   2.408  53.508  1.00  0.00    -0.244 NA
HETATM    9  C20 UNL     1      22.846   2.103  52.516  1.00  0.00     0.161 C 
ENDROOT
BRANCH   1  10
HETATM   10  C8  UNL     1      23.134   3.409  50.446  1.00  0.00     0.077 A 
HETATM   11  C4  UNL     1      22.314   4.627  50.255  1.00  0.00     0.112 A 
HETATM   12  C3  UNL     1      23.154   5.605  49.558  1.00  0.00     0.049 A 
HETATM   13  C5  UNL     1      21.649   5.184  51.430  1.00  0.00     0.055 A 
HETATM   14  N2  UNL     1      21.022   4.376  49.667  1.00  0.00    -0.205 NA
HETATM   15  C2  UNL     1      24.323   5.012  49.372  1.00  0.00     0.102 A 
HETATM   16  C21 UNL     1      24.328   3.643  49.920  1.00  0.00     0.126 A 
HETATM   17  C6  UNL     1      20.481   4.938  50.857  1.00  0.00     0.111 A 
HETATM   18  N1  UNL     1      19.135   4.740  50.383  1.00  0.00    -0.237 NA
HETATM   19  C7  UNL     1      19.672   4.229  49.303  1.00  0.00     0.188 A 
BRANCH  15  20
HETATM   20  O1  UNL     1      25.377   5.685  48.721  1.00  0.00    -0.353 OA
HETATM   21  C1  UNL     1      25.956   6.722  49.526  1.00  0.00     0.210 C 
ENDBRANCH  15  20
BRANCH  16  22
HETATM   22  O2  UNL     1      25.382   2.770  49.888  1.00  0.00    -0.351 OA
HETATM   23  C22 UNL     1      26.702   3.091  50.272  1.00  0.00     0.210 C 
ENDBRANCH  16  22
ENDBRANCH   1  10
BRANCH   8  24
HETATM   24  C14 UNL     1      26.408   1.851  53.847  1.00  0.00     0.057 A 
HETATM   25  C15 UNL     1      27.528   2.555  53.449  1.00  0.00     0.031 A 
HETATM   26  C16 UNL     1      28.768   2.026  53.773  1.00  0.00     0.002 A 
HETATM   27  C17 UNL     1      28.922   0.835  54.470  1.00  0.00     0.000 A 
HETATM   28  C18 UNL     1      27.767   0.179  54.841  1.00  0.00     0.002 A 
HETATM   29  C19 UNL     1      26.509   0.661  54.545  1.00  0.00     0.031 A 
ENDBRANCH   8  24
TORSDOF 4
ENDMDL
MODEL 5
REMARK VINA RESULT:      -7.3      2.849      7.251
REMARK  4 active torsions:
REMARK  status: ('A' for Active; 'I' for Inactive)
REMARK    1  A    between atoms: O1_2  and  C2_3 
REMARK    2  A    between atoms: C8_11  and  N3_12 
REMARK    3  A    between atoms: N4_19  and  C14_20 
REMARK    4  A    between atoms: C21_27  and  O2_28 
ROOT
HETATM    1  N3  UNL     1      22.634   4.687  50.206  1.00  0.00    -0.364 N 
HETATM    2  C9  UNL     1      21.563   4.324  49.277  1.00  0.00     0.151 C 
HETATM    3  C10 UNL     1      20.221   4.473  49.912  1.00  0.00    -0.010 C 
HETATM    4  C11 UNL     1      20.034   4.192  51.209  1.00  0.00    -0.011 C 
HETATM    5  C12 UNL     1      21.220   3.731  51.959  1.00  0.00     0.105 C 
HETATM    6  S1  UNL     1      21.994   2.226  51.353  1.00  0.00    -0.101 SA
HETATM    7  C13 UNL     1      23.222   3.254  52.150  1.00  0.00     0.096 C 
HETATM    8  N4  UNL     1      24.308   3.199  52.881  1.00  0.00    -0.244 NA
HETATM    9  C20 UNL     1      22.491   4.438  51.624  1.00  0.00     0.161 C 
ENDROOT
BRANCH   1  10
HETATM   10  C8  UNL     1      23.831   5.287  49.738  1.00  0.00     0.077 A 
HETATM   11  C4  UNL     1      23.987   6.751  49.568  1.00  0.00     0.112 A 
HETATM   12  C3  UNL     1      25.346   6.982  49.071  1.00  0.00     0.049 A 
HETATM   13  C5  UNL     1      23.644   7.602  50.704  1.00  0.00     0.055 A 
HETATM   14  N2  UNL     1      22.927   7.367  48.810  1.00  0.00    -0.205 NA
HETATM   15  C2  UNL     1      25.904   5.786  48.969  1.00  0.00     0.102 A 
HETATM   16  C21 UNL     1      24.973   4.718  49.381  1.00  0.00     0.126 A 
HETATM   17  C6  UNL     1      22.680   8.145  49.976  1.00  0.00     0.111 A 
HETATM   18  N1  UNL     1      21.594   8.837  49.330  1.00  0.00    -0.237 NA
HETATM   19  C7  UNL     1      21.853   8.102  48.277  1.00  0.00     0.188 A 
BRANCH  15  20
HETATM   20  O1  UNL     1      27.231   5.646  48.514  1.00  0.00    -0.353 OA
HETATM   21  C1  UNL     1      27.895   6.906  48.341  1.00  0.00     0.210 C 
ENDBRANCH  15  20
BRANCH  16  22
HETATM   22  O2  UNL     1      25.245   3.377  49.391  1.00  0.00    -0.351 OA
HETATM   23  C22 UNL     1      26.380   2.792  49.996  1.00  0.00     0.210 C 
ENDBRANCH  16  22
ENDBRANCH   1  10
BRANCH   8  24
HETATM   24  C14 UNL     1      24.869   1.972  53.294  1.00  0.00     0.057 A 
HETATM   25  C15 UNL     1      26.134   2.024  53.845  1.00  0.00     0.031 A 
HETATM   26  C16 UNL     1      26.704   0.829  54.257  1.00  0.00     0.002 A 
HETATM   27  C17 UNL     1      26.060  -0.396  54.139  1.00  0.00     0.000 A 
HETATM   28  C18 UNL     1      24.799  -0.382  53.583  1.00  0.00     0.002 A 
HETATM   29  C19 UNL     1      24.186   0.777  53.156  1.00  0.00     0.031 A 
ENDBRANCH   8  24
TORSDOF 4
ENDMDL
MODEL 6
REMARK VINA RESULT:      -7.3      2.602      4.152
REMARK  4 active torsions:
REMARK  status: ('A' for Active; 'I' for Inactive)
REMARK    1  A    between atoms: O1_2  and  C2_3 
REMARK    2  A    between atoms: C8_11  and  N3_12 
REMARK    3  A    between atoms: N4_19  and  C14_20 
REMARK    4  A    between atoms: C21_27  and  O2_28 
ROOT
HETATM    1  N3  UNL     1      24.653   3.335  50.476  1.00  0.00    -0.364 N 
HETATM    2  C9  UNL     1      25.552   2.909  49.401  1.00  0.00     0.151 C 
HETATM    3  C10 UNL     1      26.756   3.787  49.323  1.00  0.00    -0.010 C 
HETATM    4  C11 UNL     1      26.671   5.102  49.572  1.00  0.00    -0.011 C 
HETATM    5  C12 UNL     1      25.333   5.619  49.923  1.00  0.00     0.105 C 
HETATM    6  S1  UNL     1      24.053   5.385  48.683  1.00  0.00    -0.101 SA
HETATM    7  C13 UNL     1      23.312   5.421  50.310  1.00  0.00     0.096 C 
HETATM    8  N4  UNL     1      22.241   5.809  50.957  1.00  0.00    -0.244 NA
HETATM    9  C20 UNL     1      24.531   4.735  50.818  1.00  0.00     0.161 C 
ENDROOT
BRANCH   1  10
HETATM   10  C8  UNL     1      23.884   2.387  51.200  1.00  0.00     0.077 A 
HETATM   11  C4  UNL     1      24.355   1.757  52.455  1.00  0.00     0.112 A 
HETATM   12  C3  UNL     1      23.296   0.845  52.899  1.00  0.00     0.049 A 
HETATM   13  C5  UNL     1      24.827   2.641  53.518  1.00  0.00     0.055 A 
HETATM   14  N2  UNL     1      25.676   1.190  52.365  1.00  0.00    -0.205 NA
HETATM   15  C2  UNL     1      22.331   0.944  52.000  1.00  0.00     0.102 A 
HETATM   16  C21 UNL     1      22.681   1.901  50.933  1.00  0.00     0.126 A 
HETATM   17  C6  UNL     1      26.028   2.094  53.405  1.00  0.00     0.111 A 
HETATM   18  N1  UNL     1      27.386   1.614  53.414  1.00  0.00    -0.237 NA
HETATM   19  C7  UNL     1      27.023   0.796  52.458  1.00  0.00     0.188 A 
BRANCH  15  20
HETATM   20  O1  UNL     1      21.147   0.189  52.127  1.00  0.00    -0.353 OA
HETATM   21  C1  UNL     1      20.542   0.318  53.421  1.00  0.00     0.210 C 
ENDBRANCH  15  20
BRANCH  16  22
HETATM   22  O2  UNL     1      21.898   2.226  49.859  1.00  0.00    -0.351 OA
HETATM   23  C22 UNL     1      21.712   1.407  48.723  1.00  0.00     0.210 C 
ENDBRANCH  16  22
ENDBRANCH   1  10
BRANCH   8  24
HETATM   24  C14 UNL     1      21.168   6.453  50.304  1.00  0.00     0.057 A 
HETATM   25  C15 UNL     1      21.157   7.834  50.348  1.00  0.00     0.031 A 
HETATM   26  C16 UNL     1      20.112   8.488  49.713  1.00  0.00     0.002 A 
HETATM   27  C17 UNL     1      19.095   7.816  49.046  1.00  0.00     0.000 A 
HETATM   28  C18 UNL     1      19.163   6.440  49.037  1.00  0.00     0.002 A 
HETATM   29  C19 UNL     1      20.179   5.740  49.652  1.00  0.00     0.031 A 
ENDBRANCH   8  24
TORSDOF 4
ENDMDL
MODEL 7
REMARK VINA RESULT:      -7.2      2.667      6.607
REMARK  4 active torsions:
REMARK  status: ('A' for Active; 'I' for Inactive)
REMARK    1  A    between atoms: O1_2  and  C2_3 
REMARK    2  A    between atoms: C8_11  and  N3_12 
REMARK    3  A    between atoms: N4_19  and  C14_20 
REMARK    4  A    between atoms: C21_27  and  O2_28 
ROOT
HETATM    1  N3  UNL     1      22.543   2.806  51.710  1.00  0.00    -0.364 N 
HETATM    2  C9  UNL     1      23.373   3.197  52.851  1.00  0.00     0.151 C 
HETATM    3  C10 UNL     1      24.523   2.263  53.028  1.00  0.00    -0.010 C 
HETATM    4  C11 UNL     1      24.396   0.952  52.777  1.00  0.00    -0.011 C 
HETATM    5  C12 UNL     1      23.067   0.497  52.323  1.00  0.00     0.105 C 
HETATM    6  S1  UNL     1      21.705   0.800  53.456  1.00  0.00    -0.101 SA
HETATM    7  C13 UNL     1      21.095   0.788  51.775  1.00  0.00     0.096 C 
HETATM    8  N4  UNL     1      20.061   0.446  51.046  1.00  0.00    -0.244 NA
HETATM    9  C20 UNL     1      22.381   1.411  51.363  1.00  0.00     0.161 C 
ENDROOT
BRANCH   1  10
HETATM   10  C8  UNL     1      21.880   3.785  50.923  1.00  0.00     0.077 A 
HETATM   11  C4  UNL     1      22.525   4.473  49.781  1.00  0.00     0.112 A 
HETATM   12  C3  UNL     1      21.536   5.401  49.227  1.00  0.00     0.049 A 
HETATM   13  C5  UNL     1      23.158   3.641  48.761  1.00  0.00     0.055 A 
HETATM   14  N2  UNL     1      23.813   5.039  50.092  1.00  0.00    -0.205 NA
HETATM   15  C2  UNL     1      20.448   5.258  49.968  1.00  0.00     0.102 A 
HETATM   16  C21 UNL     1      20.646   4.254  51.030  1.00  0.00     0.126 A 
HETATM   17  C6  UNL     1      24.324   4.184  49.075  1.00  0.00     0.111 A 
HETATM   18  N1  UNL     1      25.664   4.669  49.289  1.00  0.00    -0.237 NA
HETATM   19  C7  UNL     1      25.155   5.440  50.217  1.00  0.00     0.188 A 
BRANCH  15  20
HETATM   20  O1  UNL     1      19.289   6.015  49.701  1.00  0.00    -0.353 OA
HETATM   21  C1  UNL     1      18.730   5.738  48.409  1.00  0.00     0.210 C 
ENDBRANCH  15  20
BRANCH  16  22
HETATM   22  O2  UNL     1      19.716   3.877  51.961  1.00  0.00    -0.351 OA
HETATM   23  C22 UNL     1      18.381   3.524  51.664  1.00  0.00     0.210 C 
ENDBRANCH  16  22
ENDBRANCH   1  10
BRANCH   8  24
HETATM   24  C14 UNL     1      18.910  -0.142  51.613  1.00  0.00     0.057 A 
HETATM   25  C15 UNL     1      17.750  -0.077  50.866  1.00  0.00     0.031 A 
HETATM   26  C16 UNL     1      16.607  -0.649  51.404  1.00  0.00     0.002 A 
HETATM   27  C17 UNL     1      16.588  -1.275  52.645  1.00  0.00     0.000 A 
HETATM   28  C18 UNL     1      17.777  -1.308  53.341  1.00  0.00     0.002 A 
HETATM   29  C19 UNL     1      18.942  -0.755  52.853  1.00  0.00     0.031 A 
ENDBRANCH   8  24
TORSDOF 4
ENDMDL
MODEL 8
REMARK VINA RESULT:      -7.2      2.480      4.707
REMARK  4 active torsions:
REMARK  status: ('A' for Active; 'I' for Inactive)
REMARK    1  A    between atoms: O1_2  and  C2_3 
REMARK    2  A    between atoms: C8_11  and  N3_12 
REMARK    3  A    between atoms: N4_19  and  C14_20 
REMARK    4  A    between atoms: C21_27  and  O2_28 
ROOT
HETATM    1  N3  UNL     1      21.109   1.441  51.595  1.00  0.00    -0.364 N 
HETATM    2  C9  UNL     1      19.972   1.700  52.481  1.00  0.00     0.151 C 
HETATM    3  C10 UNL     1      18.785   0.885  52.091  1.00  0.00    -0.010 C 
HETATM    4  C11 UNL     1      18.516   0.626  50.803  1.00  0.00    -0.011 C 
HETATM    5  C12 UNL     1      19.454   1.188  49.810  1.00  0.00     0.105 C 
HETATM    6  S1  UNL     1      19.615   2.978  49.810  1.00  0.00    -0.101 SA
HETATM    7  C13 UNL     1      21.141   2.239  49.241  1.00  0.00     0.096 C 
HETATM    8  N4  UNL     1      22.135   2.417  48.406  1.00  0.00    -0.244 NA
HETATM    9  C20 UNL     1      20.894   1.128  50.199  1.00  0.00     0.161 C 
ENDROOT
BRANCH   1  10
HETATM   10  C8  UNL     1      22.440   1.494  52.084  1.00  0.00     0.077 A 
HETATM   11  C4  UNL     1      23.034   0.426  52.921  1.00  0.00     0.112 A 
HETATM   12  C3  UNL     1      24.408   0.835  53.225  1.00  0.00     0.049 A 
HETATM   13  C5  UNL     1      22.945  -0.946  52.428  1.00  0.00     0.055 A 
HETATM   14  N2  UNL     1      22.224   0.052  54.053  1.00  0.00    -0.205 NA
HETATM   15  C2  UNL     1      24.579   2.005  52.629  1.00  0.00     0.102 A 
HETATM   16  C21 UNL     1      23.362   2.430  51.913  1.00  0.00     0.126 A 
HETATM   17  C6  UNL     1      22.204  -1.251  53.481  1.00  0.00     0.111 A 
HETATM   18  N1  UNL     1      21.390  -1.752  54.560  1.00  0.00    -0.237 NA
HETATM   19  C7  UNL     1      21.433  -0.540  55.053  1.00  0.00     0.188 A 
BRANCH  15  20
HETATM   20  O1  UNL     1      25.809   2.688  52.721  1.00  0.00    -0.353 OA
HETATM   21  C1  UNL     1      26.695   2.385  51.633  1.00  0.00     0.210 C 
ENDBRANCH  15  20
BRANCH  16  22
HETATM   22  O2  UNL     1      23.215   3.588  51.199  1.00  0.00    -0.351 OA
HETATM   23  C22 UNL     1      22.822   4.828  51.751  1.00  0.00     0.210 C 
ENDBRANCH  16  22
ENDBRANCH   1  10
BRANCH   8  24
HETATM   24  C14 UNL     1      22.206   3.545  47.562  1.00  0.00     0.057 A 
HETATM   25  C15 UNL     1      21.832   3.358  46.245  1.00  0.00     0.031 A 
HETATM   26  C16 UNL     1      21.894   4.453  45.397  1.00  0.00     0.002 A 
HETATM   27  C17 UNL     1      22.312   5.710  45.817  1.00  0.00     0.000 A 
HETATM   28  C18 UNL     1      22.671   5.834  47.142  1.00  0.00     0.002 A 
HETATM   29  C19 UNL     1      22.628   4.778  48.028  1.00  0.00     0.031 A 
ENDBRANCH   8  24
TORSDOF 4
ENDMDL
MODEL 9
REMARK VINA RESULT:      -7.1      8.450     12.716
REMARK  4 active torsions:
REMARK  status: ('A' for Active; 'I' for Inactive)
REMARK    1  A    between atoms: O1_2  and  C2_3 
REMARK    2  A    between atoms: C8_11  and  N3_12 
REMARK    3  A    between atoms: N4_19  and  C14_20 
REMARK    4  A    between atoms: C21_27  and  O2_28 
ROOT
HETATM    1  N3  UNL     1      32.685   7.927  47.704  1.00  0.00    -0.364 N 
HETATM    2  C9  UNL     1      33.791   7.823  48.659  1.00  0.00     0.151 C 
HETATM    3  C10 UNL     1      34.592   6.586  48.427  1.00  0.00    -0.010 C 
HETATM    4  C11 UNL     1      34.006   5.446  48.035  1.00  0.00    -0.011 C 
HETATM    5  C12 UNL     1      32.542   5.489  47.849  1.00  0.00     0.105 C 
HETATM    6  S1  UNL     1      31.581   5.927  49.303  1.00  0.00    -0.101 SA
HETATM    7  C13 UNL     1      30.703   6.434  47.829  1.00  0.00     0.096 C 
HETATM    8  N4  UNL     1      29.500   6.557  47.326  1.00  0.00    -0.244 NA
HETATM    9  C20 UNL     1      32.024   6.737  47.215  1.00  0.00     0.161 C 
ENDROOT
BRANCH   1  10
HETATM   10  C8  UNL     1      32.241   9.193  47.240  1.00  0.00     0.077 A 
HETATM   11  C4  UNL     1      32.590   9.730  45.905  1.00  0.00     0.112 A 
HETATM   12  C3  UNL     1      31.953  11.045  45.794  1.00  0.00     0.049 A 
HETATM   13  C5  UNL     1      32.338   8.876  44.747  1.00  0.00     0.055 A 
HETATM   14  N2  UNL     1      33.999   9.687  45.607  1.00  0.00    -0.205 NA
HETATM   15  C2  UNL     1      31.312  11.237  46.936  1.00  0.00     0.102 A 
HETATM   16  C21 UNL     1      31.482  10.092  47.849  1.00  0.00     0.126 A 
HETATM   17  C6  UNL     1      33.640   8.861  44.506  1.00  0.00     0.111 A 
HETATM   18  N1  UNL     1      35.017   8.737  44.102  1.00  0.00    -0.237 NA
HETATM   19  C7  UNL     1      35.307   9.500  45.126  1.00  0.00     0.188 A 
BRANCH  15  20
HETATM   20  O1  UNL     1      30.583  12.422  47.164  1.00  0.00    -0.353 OA
HETATM   21  C1  UNL     1      29.303  12.419  46.515  1.00  0.00     0.210 C 
ENDBRANCH  15  20
BRANCH  16  22
HETATM   22  O2  UNL     1      30.947   9.980  49.104  1.00  0.00    -0.351 OA
HETATM   23  C22 UNL     1      29.570   9.820  49.379  1.00  0.00     0.210 C 
ENDBRANCH  16  22
ENDBRANCH   1  10
BRANCH   8  24
HETATM   24  C14 UNL     1      28.345   6.216  48.062  1.00  0.00     0.057 A 
HETATM   25  C15 UNL     1      28.197   4.885  48.402  1.00  0.00     0.031 A 
HETATM   26  C16 UNL     1      27.070   4.528  49.125  1.00  0.00     0.002 A 
HETATM   27  C17 UNL     1      26.100   5.445  49.514  1.00  0.00     0.000 A 
HETATM   28  C18 UNL     1      26.305   6.758  49.146  1.00  0.00     0.002 A 
HETATM   29  C19 UNL     1      27.408   7.166  48.426  1.00  0.00     0.031 A 
ENDBRANCH   8  24
TORSDOF 4
ENDMDL
