MODEL 1
REMARK VINA RESULT:      -7.4      0.000      0.000
REMARK  7 active torsions:
REMARK  status: ('A' for Active; 'I' for Inactive)
REMARK    1  A    between atoms: C6_8  and  C7_9 
REMARK    2  A    between atoms: C7_9  and  C8_10 
REMARK    3  A    between atoms: C8_10  and  O3_11 
REMARK    4  A    between atoms: C13_18  and  N3_19 
REMARK    5  A    between atoms: N3_19  and  C14_20 
REMARK    6  A    between atoms: C14_20  and  C15_21 
REMARK    7  A    between atoms: C16_22  and  C17_23 
ROOT
HETATM    1  C1  UNL     1      19.524   2.125  51.953  1.00  0.00     0.044 C 
HETATM    2  C2  UNL     1      20.141   1.094  52.506  1.00  0.00    -0.011 C 
HETATM    3  C3  UNL     1      21.518   1.053  52.125  1.00  0.00     0.206 C 
HETATM    4  O1  UNL     1      22.543   1.078  53.033  1.00  0.00    -0.385 OA
HETATM    5  C4  UNL     1      23.701   1.136  52.205  1.00  0.00     0.194 C 
HETATM    6  C5  UNL     1      24.955   1.011  52.933  1.00  0.00     0.201 C 
HETATM    7  O2  UNL     1      25.057  -0.265  53.569  1.00  0.00    -0.349 OA
HETATM    8  C6  UNL     1      25.698  -0.267  54.836  1.00  0.00     0.068 C 
HETATM    9  C10 UNL     1      24.647  -0.885  55.566  1.00  0.00     0.055 C 
HETATM   10  C11 UNL     1      23.457  -1.414  55.447  1.00  0.00     0.120 C 
HETATM   11  N1  UNL     1      22.261  -1.894  55.055  1.00  0.00    -0.254 NA
HETATM   12  C12 UNL     1      21.248  -1.595  54.472  1.00  0.00     0.234 C 
HETATM   13  N2  UNL     1      20.109  -1.185  53.789  1.00  0.00    -0.225 NA
HETATM   14  C13 UNL     1      19.785  -0.203  53.110  1.00  0.00     0.129 C 
ENDROOT
BRANCH  14  15
HETATM   15  N3  UNL     1      18.534  -0.570  52.407  1.00  0.00    -0.371 N 
HETATM   16  H18 UNL     1      18.447  -0.624  51.335  1.00  0.00     0.161 HD
BRANCH  15  17
HETATM   17  C14 UNL     1      17.282  -0.928  53.017  1.00  0.00     0.148 C 
BRANCH  17  18
HETATM   18  C15 UNL     1      16.943  -2.375  52.942  1.00  0.00    -0.007 C 
HETATM   19  C16 UNL     1      17.421  -3.397  53.733  1.00  0.00    -0.000 C 
BRANCH  19  20
HETATM   20  C17 UNL     1      16.858  -4.697  53.351  1.00  0.00     0.029 C 
HETATM   21  C18 UNL     1      15.677  -4.276  52.924  1.00  0.00     0.188 C 
HETATM   22  F1  UNL     1      15.018  -5.403  52.522  1.00  0.00    -0.219 F 
ENDBRANCH  19  20
ENDBRANCH  17  18
ENDBRANCH  15  17
ENDBRANCH  14  15
BRANCH   8  23
HETATM   23  C7  UNL     1      26.896   0.175  55.150  1.00  0.00     0.036 C 
BRANCH  23  24
HETATM   24  C8  UNL     1      28.031   0.236  54.252  1.00  0.00     0.197 C 
BRANCH  24  25
HETATM   25  O3  UNL     1      28.896   1.310  54.534  1.00  0.00    -0.392 OA
HETATM   26  C9  UNL     1      28.526   2.342  53.619  1.00  0.00     0.201 C 
ENDBRANCH  24  25
ENDBRANCH  23  24
ENDBRANCH   8  23
TORSDOF 7
ENDMDL
MODEL 2
REMARK VINA RESULT:      -7.3      4.577      8.998
REMARK  7 active torsions:
REMARK  status: ('A' for Active; 'I' for Inactive)
REMARK    1  A    between atoms: C6_8  and  C7_9 
REMARK    2  A    between atoms: C7_9  and  C8_10 
REMARK    3  A    between atoms: C8_10  and  O3_11 
REMARK    4  A    between atoms: C13_18  and  N3_19 
REMARK    5  A    between atoms: N3_19  and  C14_20 
REMARK    6  A    between atoms: C14_20  and  C15_21 
REMARK    7  A    between atoms: C16_22  and  C17_23 
ROOT
HETATM    1  C1  UNL     1      25.432   2.174  51.650  1.00  0.00     0.044 C 
HETATM    2  C2  UNL     1      24.282   1.705  52.102  1.00  0.00    -0.011 C 
HETATM    3  C3  UNL     1      23.325   2.754  52.264  1.00  0.00     0.206 C 
HETATM    4  O1  UNL     1      22.111   2.759  51.631  1.00  0.00    -0.385 OA
HETATM    5  C4  UNL     1      21.566   4.025  51.996  1.00  0.00     0.194 C 
HETATM    6  C5  UNL     1      20.187   4.219  51.573  1.00  0.00     0.201 C 
HETATM    7  O2  UNL     1      19.317   3.280  52.208  1.00  0.00    -0.349 OA
HETATM    8  C6  UNL     1      18.242   2.806  51.410  1.00  0.00     0.068 C 
HETATM    9  C10 UNL     1      18.520   1.418  51.545  1.00  0.00     0.055 C 
HETATM   10  C11 UNL     1      19.319   0.560  52.123  1.00  0.00     0.120 C 
HETATM   11  N1  UNL     1      20.262  -0.097  52.826  1.00  0.00    -0.254 NA
HETATM   12  C12 UNL     1      21.453  -0.168  53.006  1.00  0.00     0.234 C 
HETATM   13  N2  UNL     1      22.834  -0.197  53.165  1.00  0.00    -0.225 NA
HETATM   14  C13 UNL     1      23.785   0.508  52.807  1.00  0.00     0.129 C 
ENDROOT
BRANCH  14  15
HETATM   15  N3  UNL     1      24.955   0.079  53.608  1.00  0.00    -0.371 N 
HETATM   16  H18 UNL     1      25.239   0.537  54.539  1.00  0.00     0.161 HD
BRANCH  15  17
HETATM   17  C14 UNL     1      25.855  -0.999  53.298  1.00  0.00     0.148 C 
BRANCH  17  18
HETATM   18  C15 UNL     1      27.299  -0.655  53.403  1.00  0.00    -0.007 C 
HETATM   19  C16 UNL     1      27.860   0.466  53.976  1.00  0.00    -0.000 C 
BRANCH  19  20
HETATM   20  C17 UNL     1      29.325   0.456  53.882  1.00  0.00     0.029 C 
HETATM   21  C18 UNL     1      29.508  -0.856  53.887  1.00  0.00     0.188 C 
HETATM   22  F1  UNL     1      30.860  -1.030  53.799  1.00  0.00    -0.219 F 
ENDBRANCH  19  20
ENDBRANCH  17  18
ENDBRANCH  15  17
ENDBRANCH  14  15
BRANCH   8  23
HETATM   23  C7  UNL     1      17.316   3.499  50.785  1.00  0.00     0.036 C 
BRANCH  23  24
HETATM   24  C8  UNL     1      16.097   4.003  51.383  1.00  0.00     0.197 C 
BRANCH  24  25
HETATM   25  O3  UNL     1      16.258   4.358  52.735  1.00  0.00    -0.392 OA
HETATM   26  C9  UNL     1      14.965   4.201  53.323  1.00  0.00     0.201 C 
ENDBRANCH  24  25
ENDBRANCH  23  24
ENDBRANCH   8  23
TORSDOF 7
ENDMDL
MODEL 3
REMARK VINA RESULT:      -7.1      4.606      9.152
REMARK  7 active torsions:
REMARK  status: ('A' for Active; 'I' for Inactive)
REMARK    1  A    between atoms: C6_8  and  C7_9 
REMARK    2  A    between atoms: C7_9  and  C8_10 
REMARK    3  A    between atoms: C8_10  and  O3_11 
REMARK    4  A    between atoms: C13_18  and  N3_19 
REMARK    5  A    between atoms: N3_19  and  C14_20 
REMARK    6  A    between atoms: C14_20  and  C15_21 
REMARK    7  A    between atoms: C16_22  and  C17_23 
ROOT
HETATM    1  C1  UNL     1      22.916  -1.438  55.226  1.00  0.00     0.044 C 
HETATM    2  C2  UNL     1      22.789  -0.555  54.250  1.00  0.00    -0.011 C 
HETATM    3  C3  UNL     1      21.569  -0.753  53.531  1.00  0.00     0.206 C 
HETATM    4  O1  UNL     1      20.615   0.220  53.402  1.00  0.00    -0.385 OA
HETATM    5  C4  UNL     1      19.559  -0.458  52.724  1.00  0.00     0.194 C 
HETATM    6  C5  UNL     1      18.465   0.411  52.316  1.00  0.00     0.201 C 
HETATM    7  O2  UNL     1      18.906   1.385  51.367  1.00  0.00    -0.349 OA
HETATM    8  C6  UNL     1      18.303   2.666  51.480  1.00  0.00     0.068 C 
HETATM    9  C10 UNL     1      19.504   3.417  51.601  1.00  0.00     0.055 C 
HETATM   10  C11 UNL     1      20.807   3.319  51.603  1.00  0.00     0.120 C 
HETATM   11  N1  UNL     1      22.101   2.945  51.567  1.00  0.00    -0.254 NA
HETATM   12  C12 UNL     1      22.900   2.193  52.068  1.00  0.00     0.234 C 
HETATM   13  N2  UNL     1      23.767   1.300  52.687  1.00  0.00    -0.225 NA
HETATM   14  C13 UNL     1      23.653   0.343  53.462  1.00  0.00     0.129 C 
ENDROOT
BRANCH  14  15
HETATM   15  N3  UNL     1      24.955  -0.365  53.453  1.00  0.00    -0.371 N 
HETATM   16  H18 UNL     1      25.259  -1.061  54.215  1.00  0.00     0.161 HD
BRANCH  15  17
HETATM   17  C14 UNL     1      25.978  -0.263  52.449  1.00  0.00     0.148 C 
BRANCH  17  18
HETATM   18  C15 UNL     1      27.369  -0.244  52.975  1.00  0.00    -0.007 C 
HETATM   19  C16 UNL     1      28.142   0.855  53.282  1.00  0.00    -0.000 C 
BRANCH  19  20
HETATM   20  C17 UNL     1      29.471   0.473  53.772  1.00  0.00     0.029 C 
HETATM   21  C18 UNL     1      29.355  -0.840  53.639  1.00  0.00     0.188 C 
HETATM   22  F1  UNL     1      30.547  -1.351  54.065  1.00  0.00    -0.219 F 
ENDBRANCH  19  20
ENDBRANCH  17  18
ENDBRANCH  15  17
ENDBRANCH  14  15
BRANCH   8  23
HETATM   23  C7  UNL     1      17.025   2.975  51.458  1.00  0.00     0.036 C 
BRANCH  23  24
HETATM   24  C8  UNL     1      16.478   4.301  51.666  1.00  0.00     0.197 C 
BRANCH  24  25
HETATM   25  O3  UNL     1      16.072   4.523  52.995  1.00  0.00    -0.392 OA
HETATM   26  C9  UNL     1      14.808   3.868  53.118  1.00  0.00     0.201 C 
ENDBRANCH  24  25
ENDBRANCH  23  24
ENDBRANCH   8  23
TORSDOF 7
ENDMDL
MODEL 4
REMARK VINA RESULT:      -7.0      5.527      9.105
REMARK  7 active torsions:
REMARK  status: ('A' for Active; 'I' for Inactive)
REMARK    1  A    between atoms: C6_8  and  C7_9 
REMARK    2  A    between atoms: C7_9  and  C8_10 
REMARK    3  A    between atoms: C8_10  and  O3_11 
REMARK    4  A    between atoms: C13_18  and  N3_19 
REMARK    5  A    between atoms: N3_19  and  C14_20 
REMARK    6  A    between atoms: C14_20  and  C15_21 
REMARK    7  A    between atoms: C16_22  and  C17_23 
ROOT
HETATM    1  C1  UNL     1      21.764   0.075  53.663  1.00  0.00     0.044 C 
HETATM    2  C2  UNL     1      22.573   0.666  52.801  1.00  0.00    -0.011 C 
HETATM    3  C3  UNL     1      22.091   0.527  51.462  1.00  0.00     0.206 C 
HETATM    4  O1  UNL     1      21.818   1.597  50.654  1.00  0.00    -0.385 OA
HETATM    5  C4  UNL     1      21.268   0.986  49.490  1.00  0.00     0.194 C 
HETATM    6  C5  UNL     1      21.034   1.911  48.391  1.00  0.00     0.201 C 
HETATM    7  O2  UNL     1      22.261   2.481  47.927  1.00  0.00    -0.349 OA
HETATM    8  C6  UNL     1      22.187   3.838  47.513  1.00  0.00     0.068 C 
HETATM    9  C10 UNL     1      23.211   4.338  48.363  1.00  0.00     0.055 C 
HETATM   10  C11 UNL     1      24.100   3.985  49.253  1.00  0.00     0.120 C 
HETATM   11  N1  UNL     1      24.916   3.366  50.128  1.00  0.00    -0.254 NA
HETATM   12  C12 UNL     1      24.921   2.635  51.088  1.00  0.00     0.234 C 
HETATM   13  N2  UNL     1      24.855   1.790  52.190  1.00  0.00    -0.225 NA
HETATM   14  C13 UNL     1      23.975   1.123  52.747  1.00  0.00     0.129 C 
ENDROOT
BRANCH  14  15
HETATM   15  N3  UNL     1      24.668   0.195  53.669  1.00  0.00    -0.371 N 
HETATM   16  H18 UNL     1      24.524   0.197  54.736  1.00  0.00     0.161 HD
BRANCH  15  17
HETATM   17  C14 UNL     1      25.593  -0.843  53.304  1.00  0.00     0.148 C 
BRANCH  17  18
HETATM   18  C15 UNL     1      27.025  -0.513  53.540  1.00  0.00    -0.007 C 
HETATM   19  C16 UNL     1      27.554   0.296  54.522  1.00  0.00    -0.000 C 
BRANCH  19  20
HETATM   20  C17 UNL     1      29.016   0.386  54.432  1.00  0.00     0.029 C 
HETATM   21  C18 UNL     1      29.237  -0.746  53.780  1.00  0.00     0.188 C 
HETATM   22  F1  UNL     1      30.592  -0.805  53.614  1.00  0.00    -0.219 F 
ENDBRANCH  19  20
ENDBRANCH  17  18
ENDBRANCH  15  17
ENDBRANCH  14  15
BRANCH   8  23
HETATM   23  C7  UNL     1      21.397   4.378  46.611  1.00  0.00     0.036 C 
BRANCH  23  24
HETATM   24  C8  UNL     1      21.757   4.651  45.235  1.00  0.00     0.197 C 
BRANCH  24  25
HETATM   25  O3  UNL     1      21.503   3.563  44.378  1.00  0.00    -0.392 OA
HETATM   26  C9  UNL     1      20.513   4.029  43.460  1.00  0.00     0.201 C 
ENDBRANCH  24  25
ENDBRANCH  23  24
ENDBRANCH   8  23
TORSDOF 7
ENDMDL
MODEL 5
REMARK VINA RESULT:      -7.0      4.787      9.036
REMARK  7 active torsions:
REMARK  status: ('A' for Active; 'I' for Inactive)
REMARK    1  A    between atoms: C6_8  and  C7_9 
REMARK    2  A    between atoms: C7_9  and  C8_10 
REMARK    3  A    between atoms: C8_10  and  O3_11 
REMARK    4  A    between atoms: C13_18  and  N3_19 
REMARK    5  A    between atoms: N3_19  and  C14_20 
REMARK    6  A    between atoms: C14_20  and  C15_21 
REMARK    7  A    between atoms: C16_22  and  C17_23 
ROOT
HETATM    1  C1  UNL     1      26.393   3.695  49.655  1.00  0.00     0.044 C 
HETATM    2  C2  UNL     1      25.637   3.213  50.626  1.00  0.00    -0.011 C 
HETATM    3  C3  UNL     1      24.463   4.010  50.810  1.00  0.00     0.206 C 
HETATM    4  O1  UNL     1      23.196   3.502  50.710  1.00  0.00    -0.385 OA
HETATM    5  C4  UNL     1      22.377   4.660  50.851  1.00  0.00     0.194 C 
HETATM    6  C5  UNL     1      20.954   4.370  50.940  1.00  0.00     0.201 C 
HETATM    7  O2  UNL     1      20.657   3.602  52.109  1.00  0.00    -0.349 OA
HETATM    8  C6  UNL     1      19.632   2.631  51.959  1.00  0.00     0.068 C 
HETATM    9  C10 UNL     1      20.387   1.508  52.393  1.00  0.00     0.055 C 
HETATM   10  C11 UNL     1      21.553   1.145  52.859  1.00  0.00     0.120 C 
HETATM   11  N1  UNL     1      22.815   1.042  53.319  1.00  0.00    -0.254 NA
HETATM   12  C12 UNL     1      23.962   1.304  53.050  1.00  0.00     0.234 C 
HETATM   13  N2  UNL     1      25.260   1.636  52.679  1.00  0.00    -0.225 NA
HETATM   14  C13 UNL     1      25.783   2.323  51.793  1.00  0.00     0.129 C 
ENDROOT
BRANCH  14  15
HETATM   15  N3  UNL     1      27.199   2.510  52.184  1.00  0.00    -0.371 N 
HETATM   16  H18 UNL     1      27.935   2.974  51.551  1.00  0.00     0.161 HD
BRANCH  15  17
HETATM   17  C14 UNL     1      27.796   2.141  53.439  1.00  0.00     0.148 C 
BRANCH  17  18
HETATM   18  C15 UNL     1      28.377   0.772  53.474  1.00  0.00    -0.007 C 
HETATM   19  C16 UNL     1      29.672   0.411  53.780  1.00  0.00    -0.000 C 
BRANCH  19  20
HETATM   20  C17 UNL     1      29.872  -1.040  53.702  1.00  0.00     0.029 C 
HETATM   21  C18 UNL     1      28.721  -1.361  53.129  1.00  0.00     0.188 C 
HETATM   22  F1  UNL     1      28.759  -2.719  52.983  1.00  0.00    -0.219 F 
ENDBRANCH  19  20
ENDBRANCH  17  18
ENDBRANCH  15  17
ENDBRANCH  14  15
BRANCH   8  23
HETATM   23  C7  UNL     1      18.394   2.801  51.549  1.00  0.00     0.036 C 
BRANCH  23  24
HETATM   24  C8  UNL     1      17.704   4.072  51.468  1.00  0.00     0.197 C 
BRANCH  24  25
HETATM   25  O3  UNL     1      16.599   4.151  52.337  1.00  0.00    -0.392 OA
HETATM   26  C9  UNL     1      15.757   3.055  51.977  1.00  0.00     0.201 C 
ENDBRANCH  24  25
ENDBRANCH  23  24
ENDBRANCH   8  23
TORSDOF 7
ENDMDL
MODEL 6
REMARK VINA RESULT:      -7.0      4.523      5.420
REMARK  7 active torsions:
REMARK  status: ('A' for Active; 'I' for Inactive)
REMARK    1  A    between atoms: C6_8  and  C7_9 
REMARK    2  A    between atoms: C7_9  and  C8_10 
REMARK    3  A    between atoms: C8_10  and  O3_11 
REMARK    4  A    between atoms: C13_18  and  N3_19 
REMARK    5  A    between atoms: N3_19  and  C14_20 
REMARK    6  A    between atoms: C14_20  and  C15_21 
REMARK    7  A    between atoms: C16_22  and  C17_23 
ROOT
HETATM    1  C1  UNL     1      22.366   5.250  51.793  1.00  0.00     0.044 C 
HETATM    2  C2  UNL     1      22.491   3.942  51.941  1.00  0.00    -0.011 C 
HETATM    3  C3  UNL     1      23.716   3.474  51.372  1.00  0.00     0.206 C 
HETATM    4  O1  UNL     1      24.663   2.800  52.094  1.00  0.00    -0.385 OA
HETATM    5  C4  UNL     1      25.727   2.644  51.158  1.00  0.00     0.194 C 
HETATM    6  C5  UNL     1      26.816   1.806  51.636  1.00  0.00     0.201 C 
HETATM    7  O2  UNL     1      26.371   0.467  51.869  1.00  0.00    -0.349 OA
HETATM    8  C6  UNL     1      26.965  -0.190  52.980  1.00  0.00     0.068 C 
HETATM    9  C10 UNL     1      25.758  -0.529  53.650  1.00  0.00     0.055 C 
HETATM   10  C11 UNL     1      24.455  -0.469  53.559  1.00  0.00     0.120 C 
HETATM   11  N1  UNL     1      23.165  -0.280  53.223  1.00  0.00    -0.254 NA
HETATM   12  C12 UNL     1      22.369   0.567  52.898  1.00  0.00     0.234 C 
HETATM   13  N2  UNL     1      21.505   1.591  52.526  1.00  0.00    -0.225 NA
HETATM   14  C13 UNL     1      21.623   2.779  52.202  1.00  0.00     0.129 C 
ENDROOT
BRANCH  14  15
HETATM   15  N3  UNL     1      20.327   3.186  51.611  1.00  0.00    -0.371 N 
HETATM   16  H18 UNL     1      19.702   3.959  52.021  1.00  0.00     0.161 HD
BRANCH  15  17
HETATM   17  C14 UNL     1      19.725   2.652  50.419  1.00  0.00     0.148 C 
BRANCH  17  18
HETATM   18  C15 UNL     1      20.540   2.812  49.184  1.00  0.00    -0.007 C 
HETATM   19  C16 UNL     1      21.491   1.950  48.682  1.00  0.00    -0.000 C 
BRANCH  19  20
HETATM   20  C17 UNL     1      22.090   2.454  47.441  1.00  0.00     0.029 C 
HETATM   21  C18 UNL     1      22.012   3.750  47.704  1.00  0.00     0.188 C 
HETATM   22  F1  UNL     1      22.548   4.371  46.611  1.00  0.00    -0.219 F 
ENDBRANCH  19  20
ENDBRANCH  17  18
ENDBRANCH  15  17
ENDBRANCH  14  15
BRANCH   8  23
HETATM   23  C7  UNL     1      28.240  -0.389  53.230  1.00  0.00     0.036 C 
BRANCH  23  24
HETATM   24  C8  UNL     1      28.876  -0.239  54.523  1.00  0.00     0.197 C 
BRANCH  24  25
HETATM   25  O3  UNL     1      28.611   1.008  55.121  1.00  0.00    -0.392 OA
HETATM   26  C9  UNL     1      29.465   1.936  54.451  1.00  0.00     0.201 C 
ENDBRANCH  24  25
ENDBRANCH  23  24
ENDBRANCH   8  23
TORSDOF 7
ENDMDL
MODEL 7
REMARK VINA RESULT:      -6.8      6.941     10.784
REMARK  7 active torsions:
REMARK  status: ('A' for Active; 'I' for Inactive)
REMARK    1  A    between atoms: C6_8  and  C7_9 
REMARK    2  A    between atoms: C7_9  and  C8_10 
REMARK    3  A    between atoms: C8_10  and  O3_11 
REMARK    4  A    between atoms: C13_18  and  N3_19 
REMARK    5  A    between atoms: N3_19  and  C14_20 
REMARK    6  A    between atoms: C14_20  and  C15_21 
REMARK    7  A    between atoms: C16_22  and  C17_23 
ROOT
HETATM    1  C1  UNL     1      24.753   6.264  48.238  1.00  0.00     0.044 C 
HETATM    2  C2  UNL     1      25.182   5.372  49.114  1.00  0.00    -0.011 C 
HETATM    3  C3  UNL     1      24.292   5.276  50.229  1.00  0.00     0.206 C 
HETATM    4  O1  UNL     1      23.684   4.106  50.598  1.00  0.00    -0.385 OA
HETATM    5  C4  UNL     1      22.825   4.513  51.659  1.00  0.00     0.194 C 
HETATM    6  C5  UNL     1      22.168   3.410  52.345  1.00  0.00     0.201 C 
HETATM    7  O2  UNL     1      23.123   2.563  52.989  1.00  0.00    -0.349 OA
HETATM    8  C6  UNL     1      22.812   1.177  52.982  1.00  0.00     0.068 C 
HETATM    9  C10 UNL     1      24.021   0.728  52.381  1.00  0.00     0.055 C 
HETATM   10  C11 UNL     1      25.181   1.130  51.932  1.00  0.00     0.120 C 
HETATM   11  N1  UNL     1      26.286   1.796  51.546  1.00  0.00    -0.254 NA
HETATM   12  C12 UNL     1      26.666   2.717  50.866  1.00  0.00     0.234 C 
HETATM   13  N2  UNL     1      27.036   3.791  50.064  1.00  0.00    -0.225 NA
HETATM   14  C13 UNL     1      26.445   4.698  49.466  1.00  0.00     0.129 C 
ENDROOT
BRANCH  14  15
HETATM   15  N3  UNL     1      27.475   5.691  49.082  1.00  0.00    -0.371 N 
HETATM   16  H18 UNL     1      27.465   6.716  49.408  1.00  0.00     0.161 HD
BRANCH  15  17
HETATM   17  C14 UNL     1      28.631   5.451  48.261  1.00  0.00     0.148 C 
BRANCH  17  18
HETATM   18  C15 UNL     1      29.599   6.580  48.203  1.00  0.00    -0.007 C 
HETATM   19  C16 UNL     1      30.783   6.713  48.894  1.00  0.00    -0.000 C 
BRANCH  19  20
HETATM   20  C17 UNL     1      31.466   7.973  48.578  1.00  0.00     0.029 C 
HETATM   21  C18 UNL     1      30.656   8.797  49.227  1.00  0.00     0.188 C 
HETATM   22  F1  UNL     1      31.175  10.045  49.023  1.00  0.00    -0.219 F 
ENDBRANCH  19  20
ENDBRANCH  17  18
ENDBRANCH  15  17
ENDBRANCH  14  15
BRANCH   8  23
HETATM   23  C7  UNL     1      21.728   0.576  53.421  1.00  0.00     0.036 C 
BRANCH  23  24
HETATM   24  C8  UNL     1      21.589  -0.848  53.643  1.00  0.00     0.197 C 
BRANCH  24  25
HETATM   25  O3  UNL     1      21.520  -1.185  55.008  1.00  0.00    -0.392 OA
HETATM   26  C9  UNL     1      22.872  -1.418  55.407  1.00  0.00     0.201 C 
ENDBRANCH  24  25
ENDBRANCH  23  24
ENDBRANCH   8  23
TORSDOF 7
ENDMDL
MODEL 8
REMARK VINA RESULT:      -6.8      3.763      5.063
REMARK  7 active torsions:
REMARK  status: ('A' for Active; 'I' for Inactive)
REMARK    1  A    between atoms: C6_8  and  C7_9 
REMARK    2  A    between atoms: C7_9  and  C8_10 
REMARK    3  A    between atoms: C8_10  and  O3_11 
REMARK    4  A    between atoms: C13_18  and  N3_19 
REMARK    5  A    between atoms: N3_19  and  C14_20 
REMARK    6  A    between atoms: C14_20  and  C15_21 
REMARK    7  A    between atoms: C16_22  and  C17_23 
ROOT
HETATM    1  C1  UNL     1      17.990  -0.046  50.995  1.00  0.00     0.044 C 
HETATM    2  C2  UNL     1      18.842   0.839  51.484  1.00  0.00    -0.011 C 
HETATM    3  C3  UNL     1      19.754   0.225  52.398  1.00  0.00     0.206 C 
HETATM    4  O1  UNL     1      21.112   0.261  52.231  1.00  0.00    -0.385 OA
HETATM    5  C4  UNL     1      21.586  -0.561  53.295  1.00  0.00     0.194 C 
HETATM    6  C5  UNL     1      23.034  -0.562  53.441  1.00  0.00     0.201 C 
HETATM    7  O2  UNL     1      23.519   0.740  53.777  1.00  0.00    -0.349 OA
HETATM    8  C6  UNL     1      24.770   1.093  53.205  1.00  0.00     0.068 C 
HETATM    9  C10 UNL     1      24.344   2.295  52.576  1.00  0.00     0.055 C 
HETATM   10  C11 UNL     1      23.317   3.086  52.414  1.00  0.00     0.120 C 
HETATM   11  N1  UNL     1      22.127   3.717  52.407  1.00  0.00    -0.254 NA
HETATM   12  C12 UNL     1      20.954   3.557  52.173  1.00  0.00     0.234 C 
HETATM   13  N2  UNL     1      19.617   3.305  51.886  1.00  0.00    -0.225 NA
HETATM   14  C13 UNL     1      18.934   2.302  51.645  1.00  0.00     0.129 C 
ENDROOT
BRANCH  14  15
HETATM   15  N3  UNL     1      17.517   2.718  51.762  1.00  0.00    -0.371 N 
HETATM   16  H18 UNL     1      16.741   2.083  52.152  1.00  0.00     0.161 HD
BRANCH  15  17
HETATM   17  C14 UNL     1      16.970   4.000  51.412  1.00  0.00     0.148 C 
BRANCH  17  18
HETATM   18  C15 UNL     1      15.532   4.177  51.749  1.00  0.00    -0.007 C 
HETATM   19  C16 UNL     1      14.842   3.644  52.816  1.00  0.00    -0.000 C 
BRANCH  19  20
HETATM   20  C17 UNL     1      13.429   4.038  52.810  1.00  0.00     0.029 C 
HETATM   21  C18 UNL     1      13.315   4.360  54.090  1.00  0.00     0.188 C 
HETATM   22  F1  UNL     1      12.018   4.761  54.246  1.00  0.00    -0.219 F 
ENDBRANCH  19  20
ENDBRANCH  17  18
ENDBRANCH  15  17
ENDBRANCH  14  15
BRANCH   8  23
HETATM   23  C7  UNL     1      25.918   0.458  53.288  1.00  0.00     0.036 C 
BRANCH  23  24
HETATM   24  C8  UNL     1      26.679   0.251  54.503  1.00  0.00     0.197 C 
BRANCH  24  25
HETATM   25  O3  UNL     1      27.643  -0.766  54.379  1.00  0.00    -0.392 OA
HETATM   26  C9  UNL     1      28.905  -0.097  54.422  1.00  0.00     0.201 C 
ENDBRANCH  24  25
ENDBRANCH  23  24
ENDBRANCH   8  23
TORSDOF 7
ENDMDL
MODEL 9
REMARK VINA RESULT:      -6.6      3.748      4.528
REMARK  7 active torsions:
REMARK  status: ('A' for Active; 'I' for Inactive)
REMARK    1  A    between atoms: C6_8  and  C7_9 
REMARK    2  A    between atoms: C7_9  and  C8_10 
REMARK    3  A    between atoms: C8_10  and  O3_11 
REMARK    4  A    between atoms: C13_18  and  N3_19 
REMARK    5  A    between atoms: N3_19  and  C14_20 
REMARK    6  A    between atoms: C14_20  and  C15_21 
REMARK    7  A    between atoms: C16_22  and  C17_23 
ROOT
HETATM    1  C1  UNL     1      21.417   5.630  51.397  1.00  0.00     0.044 C 
HETATM    2  C2  UNL     1      21.359   4.345  51.702  1.00  0.00    -0.011 C 
HETATM    3  C3  UNL     1      22.516   3.650  51.229  1.00  0.00     0.206 C 
HETATM    4  O1  UNL     1      23.351   2.947  52.056  1.00  0.00    -0.385 OA
HETATM    5  C4  UNL     1      24.397   2.538  51.178  1.00  0.00     0.194 C 
HETATM    6  C5  UNL     1      25.353   1.623  51.784  1.00  0.00     0.201 C 
HETATM    7  O2  UNL     1      24.726   0.395  52.159  1.00  0.00    -0.349 OA
HETATM    8  C6  UNL     1      25.207  -0.197  53.357  1.00  0.00     0.068 C 
HETATM    9  C10 UNL     1      23.955  -0.287  54.025  1.00  0.00     0.055 C 
HETATM   10  C11 UNL     1      22.674  -0.064  53.887  1.00  0.00     0.120 C 
HETATM   11  N1  UNL     1      21.427   0.256  53.492  1.00  0.00    -0.254 NA
HETATM   12  C12 UNL     1      20.760   1.157  53.045  1.00  0.00     0.234 C 
HETATM   13  N2  UNL     1      20.051   2.236  52.529  1.00  0.00    -0.225 NA
HETATM   14  C13 UNL     1      20.336   3.349  52.071  1.00  0.00     0.129 C 
ENDROOT
BRANCH  14  15
HETATM   15  N3  UNL     1      19.117   3.853  51.396  1.00  0.00    -0.371 N 
HETATM   16  H18 UNL     1      18.998   4.869  51.062  1.00  0.00     0.161 HD
BRANCH  15  17
HETATM   17  C14 UNL     1      17.945   3.089  51.064  1.00  0.00     0.148 C 
BRANCH  17  18
HETATM   18  C15 UNL     1      16.681   3.591  51.667  1.00  0.00    -0.007 C 
HETATM   19  C16 UNL     1      15.390   3.337  51.257  1.00  0.00    -0.000 C 
BRANCH  19  20
HETATM   20  C17 UNL     1      14.401   4.018  52.101  1.00  0.00     0.029 C 
HETATM   21  C18 UNL     1      15.128   4.117  53.204  1.00  0.00     0.188 C 
HETATM   22  F1  UNL     1      14.322   4.750  54.109  1.00  0.00    -0.219 F 
ENDBRANCH  19  20
ENDBRANCH  17  18
ENDBRANCH  15  17
ENDBRANCH  14  15
BRANCH   8  23
HETATM   23  C7  UNL     1      26.439  -0.534  53.668  1.00  0.00     0.036 C 
BRANCH  23  24
HETATM   24  C8  UNL     1      27.267   0.129  54.655  1.00  0.00     0.197 C 
BRANCH  24  25
HETATM   25  O3  UNL     1      28.553  -0.434  54.756  1.00  0.00    -0.392 OA
HETATM   26  C9  UNL     1      29.337   0.237  53.768  1.00  0.00     0.201 C 
ENDBRANCH  24  25
ENDBRANCH  23  24
ENDBRANCH   8  23
TORSDOF 7
ENDMDL
