MODEL 1
REMARK VINA RESULT:      -7.4      0.000      0.000
REMARK  6 active torsions:
REMARK  status: ('A' for Active; 'I' for Inactive)
REMARK    1  A    between atoms: C2_2  and  O1_4 
REMARK    2  A    between atoms: O1_4  and  C4_5 
REMARK    3  A    between atoms: C4_5  and  C5_6 
REMARK    4  A    between atoms: C5_6  and  C6_7 
REMARK    5  A    between atoms: C9_10  and  N1_11 
REMARK    6  A    between atoms: N1_11  and  C10_12 
ROOT
HETATM    1  C6  UNL     1      25.195   2.173  53.748  1.00  0.00     0.043 C 
HETATM    2  C7  UNL     1      24.594   2.761  52.726  1.00  0.00     0.042 A 
HETATM    3  C8  UNL     1      23.876   4.061  52.975  1.00  0.00     0.137 A 
HETATM    4  C9  UNL     1      23.268   4.567  51.722  1.00  0.00     0.111 A 
HETATM    5  N2  UNL     1      23.326   3.998  50.570  1.00  0.00    -0.228 NA
HETATM    6  C16 UNL     1      24.029   2.768  50.434  1.00  0.00     0.235 A 
HETATM    7  N3  UNL     1      24.632   2.169  51.433  1.00  0.00    -0.246 NA
ENDROOT
BRANCH   1   8
HETATM    8  C5  UNL     1      25.917   0.875  53.528  1.00  0.00     0.123 C 
HETATM    9  C17 UNL     1      26.510   0.459  54.843  1.00  0.00     0.212 C 
HETATM   10  O2  UNL     1      27.484  -0.513  54.601  1.00  0.00    -0.386 OA
HETATM   11  C18 UNL     1      28.555   0.026  53.912  1.00  0.00     0.194 C 
HETATM   12  C19 UNL     1      28.153   1.171  53.034  1.00  0.00     0.195 C 
HETATM   13  O3  UNL     1      26.854   1.105  52.551  1.00  0.00    -0.370 OA
BRANCH   8  14
HETATM   14  C4  UNL     1      24.869  -0.110  53.041  1.00  0.00     0.212 C 
BRANCH  14  15
HETATM   15  O1  UNL     1      23.996  -0.480  54.057  1.00  0.00    -0.383 OA
BRANCH  15  16
HETATM   16  C2  UNL     1      22.768  -0.860  53.556  1.00  0.00     0.113 C 
HETATM   17  C1  UNL     1      21.916  -1.580  54.564  1.00  0.00     0.039 C 
HETATM   18  C3  UNL     1      21.965   0.333  53.071  1.00  0.00     0.039 C 
ENDBRANCH  15  16
ENDBRANCH  14  15
ENDBRANCH   8  14
ENDBRANCH   1   8
BRANCH   4  19
HETATM   19  N1  UNL     1      22.569   5.790  51.854  1.00  0.00    -0.344 N 
HETATM   20  H13 UNL     1      21.886   6.045  52.606  1.00  0.00     0.167 HD
BRANCH  19  21
HETATM   21  C10 UNL     1      22.710   6.877  50.946  1.00  0.00     0.034 C 
HETATM   22  C11 UNL     1      21.757   7.384  50.175  1.00  0.00     0.030 C 
HETATM   23  C12 UNL     1      22.111   8.507  49.306  1.00  0.00     0.015 C 
HETATM   24  C13 UNL     1      23.385   8.775  49.072  1.00  0.00    -0.014 C 
HETATM   25  C14 UNL     1      24.298   8.417  49.900  1.00  0.00    -0.012 C 
HETATM   26  C15 UNL     1      24.039   7.517  50.835  1.00  0.00     0.042 C 
ENDBRANCH  19  21
ENDBRANCH   4  19
TORSDOF 6
ENDMDL
MODEL 2
REMARK VINA RESULT:      -7.3      2.314      4.382
REMARK  6 active torsions:
REMARK  status: ('A' for Active; 'I' for Inactive)
REMARK    1  A    between atoms: C2_2  and  O1_4 
REMARK    2  A    between atoms: O1_4  and  C4_5 
REMARK    3  A    between atoms: C4_5  and  C5_6 
REMARK    4  A    between atoms: C5_6  and  C6_7 
REMARK    5  A    between atoms: C9_10  and  N1_11 
REMARK    6  A    between atoms: N1_11  and  C10_12 
ROOT
HETATM    1  C6  UNL     1      23.193   0.769  51.706  1.00  0.00     0.043 C 
HETATM    2  C7  UNL     1      23.463   2.063  51.641  1.00  0.00     0.042 A 
HETATM    3  C8  UNL     1      23.761   2.661  50.291  1.00  0.00     0.137 A 
HETATM    4  C9  UNL     1      24.037   4.112  50.416  1.00  0.00     0.111 A 
HETATM    5  N2  UNL     1      24.032   4.792  51.507  1.00  0.00    -0.228 NA
HETATM    6  C16 UNL     1      23.738   4.137  52.735  1.00  0.00     0.235 A 
HETATM    7  N3  UNL     1      23.468   2.857  52.822  1.00  0.00    -0.246 NA
ENDROOT
BRANCH   1   8
HETATM    8  C5  UNL     1      22.893   0.148  53.039  1.00  0.00     0.123 C 
HETATM    9  C17 UNL     1      22.316  -1.215  52.783  1.00  0.00     0.212 C 
HETATM   10  O2  UNL     1      21.685  -1.654  53.950  1.00  0.00    -0.386 OA
HETATM   11  C18 UNL     1      20.577  -0.876  54.232  1.00  0.00     0.194 C 
HETATM   12  C19 UNL     1      20.723   0.529  53.733  1.00  0.00     0.195 C 
HETATM   13  O3  UNL     1      22.028   0.997  53.686  1.00  0.00    -0.370 OA
BRANCH   8  14
HETATM   14  C4  UNL     1      24.218   0.074  53.776  1.00  0.00     0.212 C 
BRANCH  14  15
HETATM   15  O1  UNL     1      25.145  -0.705  53.093  1.00  0.00    -0.383 OA
BRANCH  15  16
HETATM   16  C2  UNL     1      26.429  -0.228  53.264  1.00  0.00     0.113 C 
HETATM   17  C1  UNL     1      26.914   0.590  52.100  1.00  0.00     0.039 C 
HETATM   18  C3  UNL     1      26.544   0.649  54.497  1.00  0.00     0.039 C 
ENDBRANCH  15  16
ENDBRANCH  14  15
ENDBRANCH   8  14
ENDBRANCH   1   8
BRANCH   4  19
HETATM   19  N1  UNL     1      24.330   4.766  49.195  1.00  0.00    -0.344 N 
HETATM   20  H13 UNL     1      23.687   4.885  48.377  1.00  0.00     0.167 HD
BRANCH  19  21
HETATM   21  C10 UNL     1      25.586   5.371  48.910  1.00  0.00     0.034 C 
HETATM   22  C11 UNL     1      25.786   6.628  48.537  1.00  0.00     0.030 C 
HETATM   23  C12 UNL     1      27.163   7.054  48.291  1.00  0.00     0.015 C 
HETATM   24  C13 UNL     1      28.110   6.144  48.135  1.00  0.00    -0.014 C 
HETATM   25  C14 UNL     1      27.984   4.967  48.632  1.00  0.00    -0.012 C 
HETATM   26  C15 UNL     1      26.800   4.534  49.037  1.00  0.00     0.042 C 
ENDBRANCH  19  21
ENDBRANCH   4  19
TORSDOF 6
ENDMDL
MODEL 3
REMARK VINA RESULT:      -7.2      2.001      2.493
REMARK  6 active torsions:
REMARK  status: ('A' for Active; 'I' for Inactive)
REMARK    1  A    between atoms: C2_2  and  O1_4 
REMARK    2  A    between atoms: O1_4  and  C4_5 
REMARK    3  A    between atoms: C4_5  and  C5_6 
REMARK    4  A    between atoms: C5_6  and  C6_7 
REMARK    5  A    between atoms: C9_10  and  N1_11 
REMARK    6  A    between atoms: N1_11  and  C10_12 
ROOT
HETATM    1  C6  UNL     1      25.684   1.428  51.676  1.00  0.00     0.043 C 
HETATM    2  C7  UNL     1      25.036   2.571  51.516  1.00  0.00     0.042 A 
HETATM    3  C8  UNL     1      25.047   3.211  50.153  1.00  0.00     0.137 A 
HETATM    4  C9  UNL     1      24.274   4.475  50.166  1.00  0.00     0.111 A 
HETATM    5  N2  UNL     1      23.669   4.981  51.181  1.00  0.00    -0.228 NA
HETATM    6  C16 UNL     1      23.715   4.302  52.430  1.00  0.00     0.235 A 
HETATM    7  N3  UNL     1      24.351   3.169  52.611  1.00  0.00    -0.246 NA
ENDROOT
BRANCH   1   8
HETATM    8  C5  UNL     1      25.688   0.770  53.025  1.00  0.00     0.123 C 
HETATM    9  C17 UNL     1      26.360   1.711  53.984  1.00  0.00     0.212 C 
HETATM   10  O2  UNL     1      26.718   0.993  55.129  1.00  0.00    -0.386 OA
HETATM   11  C18 UNL     1      27.699   0.063  54.839  1.00  0.00     0.194 C 
HETATM   12  C19 UNL     1      27.621  -0.430  53.426  1.00  0.00     0.195 C 
HETATM   13  O3  UNL     1      26.346  -0.427  52.880  1.00  0.00    -0.370 OA
BRANCH   8  14
HETATM   14  C4  UNL     1      24.232   0.538  53.384  1.00  0.00     0.212 C 
BRANCH  14  15
HETATM   15  O1  UNL     1      23.934  -0.815  53.489  1.00  0.00    -0.383 OA
BRANCH  15  16
HETATM   16  C2  UNL     1      22.611  -1.067  53.190  1.00  0.00     0.113 C 
HETATM   17  C1  UNL     1      21.777  -1.361  54.405  1.00  0.00     0.039 C 
HETATM   18  C3  UNL     1      21.960   0.109  52.483  1.00  0.00     0.039 C 
ENDBRANCH  15  16
ENDBRANCH  14  15
ENDBRANCH   8  14
ENDBRANCH   1   8
BRANCH   4  19
HETATM   19  N1  UNL     1      24.226   5.153  48.924  1.00  0.00    -0.344 N 
HETATM   20  H13 UNL     1      23.496   5.050  48.180  1.00  0.00     0.167 HD
BRANCH  19  21
HETATM   21  C10 UNL     1      25.204   6.101  48.509  1.00  0.00     0.034 C 
HETATM   22  C11 UNL     1      24.970   7.247  47.884  1.00  0.00     0.030 C 
HETATM   23  C12 UNL     1      26.121   8.082  47.543  1.00  0.00     0.015 C 
HETATM   24  C13 UNL     1      27.336   7.561  47.567  1.00  0.00    -0.014 C 
HETATM   25  C14 UNL     1      27.602   6.538  48.296  1.00  0.00    -0.012 C 
HETATM   26  C15 UNL     1      26.624   5.797  48.793  1.00  0.00     0.042 C 
ENDBRANCH  19  21
ENDBRANCH   4  19
TORSDOF 6
ENDMDL
MODEL 4
REMARK VINA RESULT:      -7.2      2.961      7.355
REMARK  6 active torsions:
REMARK  status: ('A' for Active; 'I' for Inactive)
REMARK    1  A    between atoms: C2_2  and  O1_4 
REMARK    2  A    between atoms: O1_4  and  C4_5 
REMARK    3  A    between atoms: C4_5  and  C5_6 
REMARK    4  A    between atoms: C5_6  and  C6_7 
REMARK    5  A    between atoms: C9_10  and  N1_11 
REMARK    6  A    between atoms: N1_11  and  C10_12 
ROOT
HETATM    1  C6  UNL     1      24.634   3.205  50.557  1.00  0.00     0.043 C 
HETATM    2  C7  UNL     1      24.185   2.340  51.453  1.00  0.00     0.042 A 
HETATM    3  C8  UNL     1      25.108   1.238  51.902  1.00  0.00     0.137 A 
HETATM    4  C9  UNL     1      24.437   0.374  52.902  1.00  0.00     0.111 A 
HETATM    5  N2  UNL     1      23.238   0.518  53.342  1.00  0.00    -0.228 NA
HETATM    6  C16 UNL     1      22.441   1.592  52.857  1.00  0.00     0.235 A 
HETATM    7  N3  UNL     1      22.865   2.460  51.970  1.00  0.00    -0.246 NA
ENDROOT
BRANCH   1   8
HETATM    8  C5  UNL     1      23.734   4.313  50.092  1.00  0.00     0.123 C 
HETATM    9  C17 UNL     1      24.500   5.126  49.088  1.00  0.00     0.212 C 
HETATM   10  O2  UNL     1      23.852   6.353  48.926  1.00  0.00    -0.386 OA
HETATM   11  C18 UNL     1      23.927   7.105  50.085  1.00  0.00     0.194 C 
HETATM   12  C19 UNL     1      24.001   6.253  51.315  1.00  0.00     0.195 C 
HETATM   13  O3  UNL     1      23.369   5.023  51.209  1.00  0.00    -0.370 OA
BRANCH   8  14
HETATM   14  C4  UNL     1      22.525   3.638  49.470  1.00  0.00     0.212 C 
BRANCH  14  15
HETATM   15  O1  UNL     1      22.836   3.035  48.257  1.00  0.00    -0.383 OA
BRANCH  15  16
HETATM   16  C2  UNL     1      21.846   2.160  47.858  1.00  0.00     0.113 C 
HETATM   17  C1  UNL     1      21.512   1.131  48.902  1.00  0.00     0.039 C 
HETATM   18  C3  UNL     1      20.555   2.886  47.525  1.00  0.00     0.039 C 
ENDBRANCH  15  16
ENDBRANCH  14  15
ENDBRANCH   8  14
ENDBRANCH   1   8
BRANCH   4  19
HETATM   19  N1  UNL     1      25.228  -0.695  53.386  1.00  0.00    -0.344 N 
HETATM   20  H13 UNL     1      24.923  -1.687  53.530  1.00  0.00     0.167 HD
BRANCH  19  21
HETATM   21  C10 UNL     1      26.595  -0.555  53.757  1.00  0.00     0.034 C 
HETATM   22  C11 UNL     1      27.073   0.230  54.713  1.00  0.00     0.030 C 
HETATM   23  C12 UNL     1      28.519   0.228  54.935  1.00  0.00     0.015 C 
HETATM   24  C13 UNL     1      29.320  -0.281  54.014  1.00  0.00    -0.014 C 
HETATM   25  C14 UNL     1      28.895  -1.160  53.181  1.00  0.00    -0.012 C 
HETATM   26  C15 UNL     1      27.596  -1.353  53.016  1.00  0.00     0.042 C 
ENDBRANCH  19  21
ENDBRANCH   4  19
TORSDOF 6
ENDMDL
MODEL 5
REMARK VINA RESULT:      -7.1      3.179      7.855
REMARK  6 active torsions:
REMARK  status: ('A' for Active; 'I' for Inactive)
REMARK    1  A    between atoms: C2_2  and  O1_4 
REMARK    2  A    between atoms: O1_4  and  C4_5 
REMARK    3  A    between atoms: C4_5  and  C5_6 
REMARK    4  A    between atoms: C5_6  and  C6_7 
REMARK    5  A    between atoms: C9_10  and  N1_11 
REMARK    6  A    between atoms: N1_11  and  C10_12 
ROOT
HETATM    1  C6  UNL     1      23.066   3.105  51.099  1.00  0.00     0.043 C 
HETATM    2  C7  UNL     1      24.378   2.946  51.168  1.00  0.00     0.042 A 
HETATM    3  C8  UNL     1      24.965   2.433  52.457  1.00  0.00     0.137 A 
HETATM    4  C9  UNL     1      26.438   2.320  52.347  1.00  0.00     0.111 A 
HETATM    5  N2  UNL     1      27.145   2.611  51.313  1.00  0.00    -0.228 NA
HETATM    6  C16 UNL     1      26.498   3.090  50.140  1.00  0.00     0.235 A 
HETATM    7  N3  UNL     1      25.200   3.255  50.049  1.00  0.00    -0.246 NA
ENDROOT
BRANCH   1   8
HETATM    8  C5  UNL     1      22.455   3.616  49.826  1.00  0.00     0.123 C 
HETATM    9  C17 UNL     1      20.963   3.518  49.970  1.00  0.00     0.212 C 
HETATM   10  O2  UNL     1      20.390   3.618  48.700  1.00  0.00    -0.386 OA
HETATM   11  C18 UNL     1      20.718   2.520  47.925  1.00  0.00     0.194 C 
HETATM   12  C19 UNL     1      22.047   1.936  48.296  1.00  0.00     0.195 C 
HETATM   13  O3  UNL     1      22.960   2.845  48.808  1.00  0.00    -0.370 OA
BRANCH   8  14
HETATM   14  C4  UNL     1      22.918   5.055  49.686  1.00  0.00     0.212 C 
BRANCH  14  15
HETATM   15  O1  UNL     1      22.319   5.884  50.628  1.00  0.00    -0.383 OA
BRANCH  15  16
HETATM   16  C2  UNL     1      23.082   7.009  50.869  1.00  0.00     0.113 C 
HETATM   17  C1  UNL     1      24.560   6.737  50.843  1.00  0.00     0.039 C 
HETATM   18  C3  UNL     1      22.815   8.098  49.845  1.00  0.00     0.039 C 
ENDBRANCH  15  16
ENDBRANCH  14  15
ENDBRANCH   8  14
ENDBRANCH   1   8
BRANCH   4  19
HETATM   19  N1  UNL     1      27.084   1.843  53.513  1.00  0.00    -0.344 N 
HETATM   20  H13 UNL     1      27.052   2.272  54.469  1.00  0.00     0.167 HD
BRANCH  19  21
HETATM   21  C10 UNL     1      27.894   0.673  53.539  1.00  0.00     0.034 C 
HETATM   22  C11 UNL     1      29.176   0.613  53.873  1.00  0.00     0.030 C 
HETATM   23  C12 UNL     1      29.829  -0.695  53.834  1.00  0.00     0.015 C 
HETATM   24  C13 UNL     1      29.251  -1.694  53.187  1.00  0.00    -0.014 C 
HETATM   25  C14 UNL     1      27.982  -1.711  52.997  1.00  0.00    -0.012 C 
HETATM   26  C15 UNL     1      27.265  -0.611  53.160  1.00  0.00     0.042 C 
ENDBRANCH  19  21
ENDBRANCH   4  19
TORSDOF 6
ENDMDL
MODEL 6
REMARK VINA RESULT:      -7.0      3.057      7.814
REMARK  6 active torsions:
REMARK  status: ('A' for Active; 'I' for Inactive)
REMARK    1  A    between atoms: C2_2  and  O1_4 
REMARK    2  A    between atoms: O1_4  and  C4_5 
REMARK    3  A    between atoms: C4_5  and  C5_6 
REMARK    4  A    between atoms: C5_6  and  C6_7 
REMARK    5  A    between atoms: C9_10  and  N1_11 
REMARK    6  A    between atoms: N1_11  and  C10_12 
ROOT
HETATM    1  C6  UNL     1      23.992   5.271  51.512  1.00  0.00     0.043 C 
HETATM    2  C7  UNL     1      23.814   3.960  51.472  1.00  0.00     0.042 A 
HETATM    3  C8  UNL     1      24.364   3.133  52.604  1.00  0.00     0.137 A 
HETATM    4  C9  UNL     1      24.071   1.697  52.388  1.00  0.00     0.111 A 
HETATM    5  N2  UNL     1      23.441   1.196  51.385  1.00  0.00    -0.228 NA
HETATM    6  C16 UNL     1      22.959   2.059  50.362  1.00  0.00     0.235 A 
HETATM    7  N3  UNL     1      23.123   3.361  50.383  1.00  0.00    -0.246 NA
ENDROOT
BRANCH   1   8
HETATM    8  C5  UNL     1      23.454   6.118  50.395  1.00  0.00     0.123 C 
HETATM    9  C17 UNL     1      23.464   7.545  50.866  1.00  0.00     0.212 C 
HETATM   10  O2  UNL     1      22.636   8.292  50.024  1.00  0.00    -0.386 OA
HETATM   11  C18 UNL     1      21.315   7.907  50.166  1.00  0.00     0.194 C 
HETATM   12  C19 UNL     1      21.177   6.468  50.556  1.00  0.00     0.195 C 
HETATM   13  O3  UNL     1      22.199   5.644  50.106  1.00  0.00    -0.370 OA
BRANCH   8  14
HETATM   14  C4  UNL     1      24.389   5.904  49.219  1.00  0.00     0.212 C 
BRANCH  14  15
HETATM   15  O1  UNL     1      25.724   5.943  49.605  1.00  0.00    -0.383 OA
BRANCH  15  16
HETATM   16  C2  UNL     1      26.506   5.134  48.807  1.00  0.00     0.113 C 
HETATM   17  C1  UNL     1      27.825   5.758  48.446  1.00  0.00     0.039 C 
HETATM   18  C3  UNL     1      26.816   3.809  49.483  1.00  0.00     0.039 C 
ENDBRANCH  15  16
ENDBRANCH  14  15
ENDBRANCH   8  14
ENDBRANCH   1   8
BRANCH   4  19
HETATM   19  N1  UNL     1      24.549   0.835  53.404  1.00  0.00    -0.344 N 
HETATM   20  H13 UNL     1      24.014   0.485  54.234  1.00  0.00     0.167 HD
BRANCH  19  21
HETATM   21  C10 UNL     1      25.872   0.310  53.430  1.00  0.00     0.034 C 
HETATM   22  C11 UNL     1      26.303  -0.764  52.781  1.00  0.00     0.030 C 
HETATM   23  C12 UNL     1      27.708  -1.137  52.944  1.00  0.00     0.015 C 
HETATM   24  C13 UNL     1      28.411  -0.620  53.938  1.00  0.00    -0.014 C 
HETATM   25  C14 UNL     1      28.080   0.503  54.466  1.00  0.00    -0.012 C 
HETATM   26  C15 UNL     1      26.878   1.015  54.254  1.00  0.00     0.042 C 
ENDBRANCH  19  21
ENDBRANCH   4  19
TORSDOF 6
ENDMDL
MODEL 7
REMARK VINA RESULT:      -6.9      3.309      7.329
REMARK  6 active torsions:
REMARK  status: ('A' for Active; 'I' for Inactive)
REMARK    1  A    between atoms: C2_2  and  O1_4 
REMARK    2  A    between atoms: O1_4  and  C4_5 
REMARK    3  A    between atoms: C4_5  and  C5_6 
REMARK    4  A    between atoms: C5_6  and  C6_7 
REMARK    5  A    between atoms: C9_10  and  N1_11 
REMARK    6  A    between atoms: N1_11  and  C10_12 
ROOT
HETATM    1  C6  UNL     1      23.967   2.979  49.459  1.00  0.00     0.043 C 
HETATM    2  C7  UNL     1      24.370   2.835  50.712  1.00  0.00     0.042 A 
HETATM    3  C8  UNL     1      25.839   2.625  50.967  1.00  0.00     0.137 A 
HETATM    4  C9  UNL     1      26.098   2.486  52.420  1.00  0.00     0.111 A 
HETATM    5  N2  UNL     1      25.216   2.533  53.354  1.00  0.00    -0.228 NA
HETATM    6  C16 UNL     1      23.850   2.735  53.013  1.00  0.00     0.235 A 
HETATM    7  N3  UNL     1      23.430   2.880  51.779  1.00  0.00    -0.246 NA
ENDROOT
BRANCH   1   8
HETATM    8  C5  UNL     1      22.508   3.189  49.177  1.00  0.00     0.123 C 
HETATM    9  C17 UNL     1      22.380   3.596  47.737  1.00  0.00     0.212 C 
HETATM   10  O2  UNL     1      21.115   4.158  47.547  1.00  0.00    -0.386 OA
HETATM   11  C18 UNL     1      20.999   5.351  48.237  1.00  0.00     0.194 C 
HETATM   12  C19 UNL     1      21.849   5.383  49.471  1.00  0.00     0.195 C 
HETATM   13  O3  UNL     1      22.068   4.146  50.058  1.00  0.00    -0.370 OA
BRANCH   8  14
HETATM   14  C4  UNL     1      21.831   1.858  49.452  1.00  0.00     0.212 C 
BRANCH  14  15
HETATM   15  O1  UNL     1      20.512   2.023  49.856  1.00  0.00    -0.383 OA
BRANCH  15  16
HETATM   16  C2  UNL     1      20.206   1.212  50.930  1.00  0.00     0.113 C 
HETATM   17  C1  UNL     1      21.266   0.184  51.214  1.00  0.00     0.039 C 
HETATM   18  C3  UNL     1      20.017   2.014  52.205  1.00  0.00     0.039 C 
ENDBRANCH  15  16
ENDBRANCH  14  15
ENDBRANCH   8  14
ENDBRANCH   1   8
BRANCH   4  19
HETATM   19  N1  UNL     1      27.457   2.285  52.762  1.00  0.00    -0.344 N 
HETATM   20  H13 UNL     1      28.204   3.016  52.825  1.00  0.00     0.167 HD
BRANCH  19  21
HETATM   21  C10 UNL     1      28.006   1.010  53.078  1.00  0.00     0.034 C 
HETATM   22  C11 UNL     1      29.178   0.782  53.656  1.00  0.00     0.030 C 
HETATM   23  C12 UNL     1      29.559  -0.610  53.894  1.00  0.00     0.015 C 
HETATM   24  C13 UNL     1      28.912  -1.580  53.269  1.00  0.00    -0.014 C 
HETATM   25  C14 UNL     1      27.713  -1.408  52.844  1.00  0.00    -0.012 C 
HETATM   26  C15 UNL     1      27.209  -0.189  52.738  1.00  0.00     0.042 C 
ENDBRANCH  19  21
ENDBRANCH   4  19
TORSDOF 6
ENDMDL
MODEL 8
REMARK VINA RESULT:      -6.7      2.181      2.569
REMARK  6 active torsions:
REMARK  status: ('A' for Active; 'I' for Inactive)
REMARK    1  A    between atoms: C2_2  and  O1_4 
REMARK    2  A    between atoms: O1_4  and  C4_5 
REMARK    3  A    between atoms: C4_5  and  C5_6 
REMARK    4  A    between atoms: C5_6  and  C6_7 
REMARK    5  A    between atoms: C9_10  and  N1_11 
REMARK    6  A    between atoms: N1_11  and  C10_12 
ROOT
HETATM    1  C6  UNL     1      26.016   1.723  51.621  1.00  0.00     0.043 C 
HETATM    2  C7  UNL     1      25.243   2.793  51.517  1.00  0.00     0.042 A 
HETATM    3  C8  UNL     1      25.285   3.579  50.233  1.00  0.00     0.137 A 
HETATM    4  C9  UNL     1      24.359   4.733  50.301  1.00  0.00     0.111 A 
HETATM    5  N2  UNL     1      23.613   5.047  51.299  1.00  0.00    -0.228 NA
HETATM    6  C16 UNL     1      23.642   4.242  52.472  1.00  0.00     0.235 A 
HETATM    7  N3  UNL     1      24.400   3.178  52.596  1.00  0.00    -0.246 NA
ENDROOT
BRANCH   1   8
HETATM    8  C5  UNL     1      25.993   0.922  52.891  1.00  0.00     0.123 C 
HETATM    9  C17 UNL     1      26.671   1.740  53.953  1.00  0.00     0.212 C 
HETATM   10  O2  UNL     1      27.003   0.895  55.015  1.00  0.00    -0.386 OA
HETATM   11  C18 UNL     1      27.969  -0.018  54.635  1.00  0.00     0.194 C 
HETATM   12  C19 UNL     1      27.897  -0.352  53.176  1.00  0.00     0.195 C 
HETATM   13  O3  UNL     1      26.629  -0.265  52.622  1.00  0.00    -0.370 OA
BRANCH   8  14
HETATM   14  C4  UNL     1      24.528   0.683  53.209  1.00  0.00     0.212 C 
BRANCH  14  15
HETATM   15  O1  UNL     1      24.253  -0.668  53.390  1.00  0.00    -0.383 OA
BRANCH  15  16
HETATM   16  C2  UNL     1      22.896  -0.899  53.488  1.00  0.00     0.113 C 
HETATM   17  C1  UNL     1      22.447  -1.194  54.892  1.00  0.00     0.039 C 
HETATM   18  C3  UNL     1      22.087   0.292  53.007  1.00  0.00     0.039 C 
ENDBRANCH  15  16
ENDBRANCH  14  15
ENDBRANCH   8  14
ENDBRANCH   1   8
BRANCH   4  19
HETATM   19  N1  UNL     1      24.328   5.536  49.135  1.00  0.00    -0.344 N 
HETATM   20  H13 UNL     1      24.992   6.307  48.885  1.00  0.00     0.167 HD
BRANCH  19  21
HETATM   21  C10 UNL     1      23.350   5.395  48.111  1.00  0.00     0.034 C 
HETATM   22  C11 UNL     1      22.609   4.321  47.876  1.00  0.00     0.030 C 
HETATM   23  C12 UNL     1      21.657   4.382  46.766  1.00  0.00     0.015 C 
HETATM   24  C13 UNL     1      21.773   5.335  45.857  1.00  0.00    -0.014 C 
HETATM   25  C14 UNL     1      22.360   6.443  46.134  1.00  0.00    -0.012 C 
HETATM   26  C15 UNL     1      23.124   6.547  47.209  1.00  0.00     0.042 C 
ENDBRANCH  19  21
ENDBRANCH   4  19
TORSDOF 6
ENDMDL
MODEL 9
REMARK VINA RESULT:      -6.5      3.495      5.675
REMARK  6 active torsions:
REMARK  status: ('A' for Active; 'I' for Inactive)
REMARK    1  A    between atoms: C2_2  and  O1_4 
REMARK    2  A    between atoms: O1_4  and  C4_5 
REMARK    3  A    between atoms: C4_5  and  C5_6 
REMARK    4  A    between atoms: C5_6  and  C6_7 
REMARK    5  A    between atoms: C9_10  and  N1_11 
REMARK    6  A    between atoms: N1_11  and  C10_12 
ROOT
HETATM    1  C6  UNL     1      21.041   2.113  50.800  1.00  0.00     0.043 C 
HETATM    2  C7  UNL     1      22.173   2.739  51.081  1.00  0.00     0.042 A 
HETATM    3  C8  UNL     1      23.318   2.607  50.111  1.00  0.00     0.137 A 
HETATM    4  C9  UNL     1      24.494   3.371  50.590  1.00  0.00     0.111 A 
HETATM    5  N2  UNL     1      24.560   4.059  51.674  1.00  0.00    -0.228 NA
HETATM    6  C16 UNL     1      23.423   4.124  52.528  1.00  0.00     0.235 A 
HETATM    7  N3  UNL     1      22.292   3.512  52.269  1.00  0.00    -0.246 NA
ENDROOT
BRANCH   1   8
HETATM    8  C5  UNL     1      19.884   2.228  51.751  1.00  0.00     0.123 C 
HETATM    9  C17 UNL     1      18.755   1.413  51.188  1.00  0.00     0.212 C 
HETATM   10  O2  UNL     1      17.573   1.797  51.826  1.00  0.00    -0.386 OA
HETATM   11  C18 UNL     1      17.237   3.097  51.497  1.00  0.00     0.194 C 
HETATM   12  C19 UNL     1      18.438   3.939  51.192  1.00  0.00     0.195 C 
HETATM   13  O3  UNL     1      19.594   3.565  51.861  1.00  0.00    -0.370 OA
BRANCH   8  14
HETATM   14  C4  UNL     1      20.375   1.677  53.077  1.00  0.00     0.212 C 
BRANCH  14  15
HETATM   15  O1  UNL     1      20.342   0.288  53.104  1.00  0.00    -0.383 OA
BRANCH  15  16
HETATM   16  C2  UNL     1      21.262  -0.224  53.996  1.00  0.00     0.113 C 
HETATM   17  C1  UNL     1      21.063  -1.687  54.275  1.00  0.00     0.039 C 
HETATM   18  C3  UNL     1      22.685  -0.061  53.491  1.00  0.00     0.039 C 
ENDBRANCH  15  16
ENDBRANCH  14  15
ENDBRANCH   8  14
ENDBRANCH   1   8
BRANCH   4  19
HETATM   19  N1  UNL     1      25.626   3.309  49.742  1.00  0.00    -0.344 N 
HETATM   20  H13 UNL     1      26.149   2.448  49.455  1.00  0.00     0.167 HD
BRANCH  19  21
HETATM   21  C10 UNL     1      26.224   4.454  49.146  1.00  0.00     0.034 C 
HETATM   22  C11 UNL     1      27.509   4.606  48.852  1.00  0.00     0.030 C 
HETATM   23  C12 UNL     1      27.922   5.868  48.239  1.00  0.00     0.015 C 
HETATM   24  C13 UNL     1      27.111   6.912  48.285  1.00  0.00    -0.014 C 
HETATM   25  C14 UNL     1      25.843   6.758  48.415  1.00  0.00    -0.012 C 
HETATM   26  C15 UNL     1      25.347   5.599  48.815  1.00  0.00     0.042 C 
ENDBRANCH  19  21
ENDBRANCH   4  19
TORSDOF 6
ENDMDL
