MODEL 1
REMARK VINA RESULT:      -7.7      0.000      0.000
REMARK  3 active torsions:
REMARK  status: ('A' for Active; 'I' for Inactive)
REMARK    1  A    between atoms: O1_2  and  C2_3 
REMARK    2  A    between atoms: C6_8  and  C7_9 
REMARK    3  A    between atoms: C15_18  and  O2_19 
ROOT
HETATM    1  C2  UNL     1      26.062   0.258  54.661  1.00  0.00     0.103 C 
HETATM    2  C3  UNL     1      25.454  -0.768  55.293  1.00  0.00     0.067 C 
HETATM    3  C4  UNL     1      24.081  -0.839  54.853  1.00  0.00     0.049 A 
HETATM    4  N1  UNL     1      23.082  -1.425  55.459  1.00  0.00    -0.264 NA
HETATM    5  C5  UNL     1      21.880  -1.254  54.725  1.00  0.00     0.126 A 
HETATM    6  C6  UNL     1      22.089  -0.532  53.612  1.00  0.00    -0.017 A 
HETATM    7  C13 UNL     1      23.502  -0.312  53.640  1.00  0.00     0.098 A 
HETATM    8  C14 UNL     1      24.171   0.839  53.099  1.00  0.00     0.028 C 
HETATM    9  C15 UNL     1      25.406   1.061  53.600  1.00  0.00     0.098 C 
ENDROOT
BRANCH   6  10
HETATM   10  C7  UNL     1      20.958  -0.255  52.752  1.00  0.00    -0.026 A 
HETATM   11  C8  UNL     1      21.094   0.406  51.551  1.00  0.00     0.012 A 
HETATM   12  C9  UNL     1      20.048   0.699  50.700  1.00  0.00     0.002 A 
HETATM   13  C10 UNL     1      18.784   0.306  51.076  1.00  0.00     0.019 A 
HETATM   14  C11 UNL     1      18.583  -0.359  52.265  1.00  0.00     0.011 A 
HETATM   15 BR1  UNL     1      16.815  -0.885  52.746  1.00  0.00    -0.051 Br
HETATM   16  C12 UNL     1      19.673  -0.617  53.064  1.00  0.00     0.031 A 
ENDBRANCH   6  10
BRANCH   9  17
HETATM   17  O2  UNL     1      26.167   2.128  53.109  1.00  0.00    -0.353 OA
HETATM   18  C16 UNL     1      26.722   1.985  51.815  1.00  0.00     0.210 C 
ENDBRANCH   9  17
BRANCH   1  19
HETATM   19  O1  UNL     1      27.382   0.537  54.981  1.00  0.00    -0.353 OA
HETATM   20  C1  UNL     1      28.499  -0.130  54.460  1.00  0.00     0.210 C 
ENDBRANCH   1  19
TORSDOF 3
ENDMDL
MODEL 2
REMARK VINA RESULT:      -7.6      4.138      6.289
REMARK  3 active torsions:
REMARK  status: ('A' for Active; 'I' for Inactive)
REMARK    1  A    between atoms: O1_2  and  C2_3 
REMARK    2  A    between atoms: C6_8  and  C7_9 
REMARK    3  A    between atoms: C15_18  and  O2_19 
ROOT
HETATM    1  C2  UNL     1      25.487   0.112  53.881  1.00  0.00     0.103 C 
HETATM    2  C3  UNL     1      24.430  -0.012  53.050  1.00  0.00     0.067 C 
HETATM    3  C4  UNL     1      24.454   1.076  52.102  1.00  0.00     0.049 A 
HETATM    4  N1  UNL     1      23.457   1.527  51.386  1.00  0.00    -0.264 NA
HETATM    5  C5  UNL     1      23.868   2.627  50.590  1.00  0.00     0.126 A 
HETATM    6  C6  UNL     1      25.166   2.912  50.790  1.00  0.00    -0.017 A 
HETATM    7  C13 UNL     1      25.576   1.892  51.703  1.00  0.00     0.098 A 
HETATM    8  C14 UNL     1      26.604   2.035  52.696  1.00  0.00     0.028 C 
HETATM    9  C15 UNL     1      26.537   1.145  53.711  1.00  0.00     0.098 C 
ENDROOT
BRANCH   6  10
HETATM   10  C7  UNL     1      25.744   4.020  50.058  1.00  0.00    -0.026 A 
HETATM   11  C8  UNL     1      26.918   3.896  49.347  1.00  0.00     0.012 A 
HETATM   12  C9  UNL     1      27.511   4.921  48.640  1.00  0.00     0.002 A 
HETATM   13  C10 UNL     1      26.892   6.151  48.646  1.00  0.00     0.019 A 
HETATM   14  C11 UNL     1      25.716   6.338  49.339  1.00  0.00     0.011 A 
HETATM   15 BR1  UNL     1      24.892   8.056  49.320  1.00  0.00    -0.051 Br
HETATM   16  C12 UNL     1      25.181   5.269  50.022  1.00  0.00     0.031 A 
ENDBRANCH   6  10
BRANCH   9  17
HETATM   17  O2  UNL     1      27.518   1.164  54.710  1.00  0.00    -0.353 OA
HETATM   18  C16 UNL     1      28.780   0.613  54.387  1.00  0.00     0.210 C 
ENDBRANCH   9  17
BRANCH   1  19
HETATM   19  O1  UNL     1      25.625  -0.809  54.909  1.00  0.00    -0.353 OA
HETATM   20  C1  UNL     1      24.591  -1.248  55.747  1.00  0.00     0.210 C 
ENDBRANCH   1  19
TORSDOF 3
ENDMDL
MODEL 3
REMARK VINA RESULT:      -7.6      1.784      2.358
REMARK  3 active torsions:
REMARK  status: ('A' for Active; 'I' for Inactive)
REMARK    1  A    between atoms: O1_2  and  C2_3 
REMARK    2  A    between atoms: C6_8  and  C7_9 
REMARK    3  A    between atoms: C15_18  and  O2_19 
ROOT
HETATM    1  C2  UNL     1      27.707   0.771  53.273  1.00  0.00     0.103 C 
HETATM    2  C3  UNL     1      27.362  -0.210  54.133  1.00  0.00     0.067 C 
HETATM    3  C4  UNL     1      25.927  -0.369  54.107  1.00  0.00     0.049 A 
HETATM    4  N1  UNL     1      25.175  -0.929  55.017  1.00  0.00    -0.264 NA
HETATM    5  C5  UNL     1      23.807  -0.869  54.643  1.00  0.00     0.126 A 
HETATM    6  C6  UNL     1      23.654  -0.250  53.460  1.00  0.00    -0.017 A 
HETATM    7  C13 UNL     1      25.003   0.020  53.069  1.00  0.00     0.098 A 
HETATM    8  C14 UNL     1      25.424   1.135  52.268  1.00  0.00     0.028 C 
HETATM    9  C15 UNL     1      26.735   1.446  52.379  1.00  0.00     0.098 C 
ENDROOT
BRANCH   6  10
HETATM   10  C7  UNL     1      22.314  -0.095  52.937  1.00  0.00    -0.026 A 
HETATM   11  C8  UNL     1      21.201  -0.510  53.635  1.00  0.00     0.012 A 
HETATM   12  C9  UNL     1      19.905  -0.390  53.177  1.00  0.00     0.002 A 
HETATM   13  C10 UNL     1      19.709   0.180  51.940  1.00  0.00     0.019 A 
HETATM   14  C11 UNL     1      20.782   0.614  51.192  1.00  0.00     0.011 A 
HETATM   15 BR1  UNL     1      20.465   1.397  49.484  1.00  0.00    -0.051 Br
HETATM   16  C12 UNL     1      22.047   0.463  51.713  1.00  0.00     0.031 A 
ENDBRANCH   6  10
BRANCH   9  17
HETATM   17  O2  UNL     1      27.263   2.487  51.607  1.00  0.00    -0.353 OA
HETATM   18  C16 UNL     1      26.486   2.942  50.515  1.00  0.00     0.210 C 
ENDBRANCH   9  17
BRANCH   1  19
HETATM   19  O1  UNL     1      29.046   1.123  53.181  1.00  0.00    -0.353 OA
HETATM   20  C1  UNL     1      30.125   0.295  53.516  1.00  0.00     0.210 C 
ENDBRANCH   1  19
TORSDOF 3
ENDMDL
MODEL 4
REMARK VINA RESULT:      -7.6      2.687      4.474
REMARK  3 active torsions:
REMARK  status: ('A' for Active; 'I' for Inactive)
REMARK    1  A    between atoms: O1_2  and  C2_3 
REMARK    2  A    between atoms: C6_8  and  C7_9 
REMARK    3  A    between atoms: C15_18  and  O2_19 
ROOT
HETATM    1  C2  UNL     1      26.222   3.458  50.159  1.00  0.00     0.103 C 
HETATM    2  C3  UNL     1      25.073   3.653  49.478  1.00  0.00     0.067 C 
HETATM    3  C4  UNL     1      24.051   2.799  50.036  1.00  0.00     0.049 A 
HETATM    4  N1  UNL     1      22.939   2.417  49.465  1.00  0.00    -0.264 NA
HETATM    5  C5  UNL     1      22.206   1.556  50.322  1.00  0.00     0.126 A 
HETATM    6  C6  UNL     1      22.854   1.360  51.484  1.00  0.00    -0.017 A 
HETATM    7  C13 UNL     1      24.005   2.198  51.347  1.00  0.00     0.098 A 
HETATM    8  C14 UNL     1      25.286   1.947  51.946  1.00  0.00     0.028 C 
HETATM    9  C15 UNL     1      26.319   2.591  51.358  1.00  0.00     0.098 C 
ENDROOT
BRANCH   6  10
HETATM   10  C7  UNL     1      22.244   0.495  52.471  1.00  0.00    -0.026 A 
HETATM   11  C8  UNL     1      22.963  -0.051  53.512  1.00  0.00     0.012 A 
HETATM   12  C9  UNL     1      22.431  -0.885  54.473  1.00  0.00     0.002 A 
HETATM   13  C10 UNL     1      21.092  -1.195  54.386  1.00  0.00     0.019 A 
HETATM   14  C11 UNL     1      20.320  -0.681  53.368  1.00  0.00     0.011 A 
HETATM   15 BR1  UNL     1      18.471  -1.137  53.286  1.00  0.00    -0.051 Br
HETATM   16  C12 UNL     1      20.919   0.145  52.444  1.00  0.00     0.031 A 
ENDBRANCH   6  10
BRANCH   9  17
HETATM   17  O2  UNL     1      27.607   2.454  51.889  1.00  0.00    -0.353 OA
HETATM   18  C16 UNL     1      27.710   2.021  53.232  1.00  0.00     0.210 C 
ENDBRANCH   9  17
BRANCH   1  19
HETATM   19  O1  UNL     1      27.353   4.149  49.749  1.00  0.00    -0.353 OA
HETATM   20  C1  UNL     1      27.413   5.031  48.662  1.00  0.00     0.210 C 
ENDBRANCH   1  19
TORSDOF 3
ENDMDL
MODEL 5
REMARK VINA RESULT:      -7.4      1.997      2.994
REMARK  3 active torsions:
REMARK  status: ('A' for Active; 'I' for Inactive)
REMARK    1  A    between atoms: O1_2  and  C2_3 
REMARK    2  A    between atoms: C6_8  and  C7_9 
REMARK    3  A    between atoms: C15_18  and  O2_19 
ROOT
HETATM    1  C2  UNL     1      27.350   1.019  53.268  1.00  0.00     0.103 C 
HETATM    2  C3  UNL     1      26.748   2.219  53.125  1.00  0.00     0.067 C 
HETATM    3  C4  UNL     1      25.324   2.014  53.006  1.00  0.00     0.049 A 
HETATM    4  N1  UNL     1      24.443   2.839  52.505  1.00  0.00    -0.264 NA
HETATM    5  C5  UNL     1      23.145   2.268  52.539  1.00  0.00     0.126 A 
HETATM    6  C6  UNL     1      23.171   1.033  53.069  1.00  0.00    -0.017 A 
HETATM    7  C13 UNL     1      24.545   0.877  53.435  1.00  0.00     0.098 A 
HETATM    8  C14 UNL     1      25.256  -0.370  53.463  1.00  0.00     0.028 C 
HETATM    9  C15 UNL     1      26.601  -0.254  53.405  1.00  0.00     0.098 C 
ENDROOT
BRANCH   6  10
HETATM   10  C7  UNL     1      21.925   0.303  53.167  1.00  0.00    -0.026 A 
HETATM   11  C8  UNL     1      21.740  -0.712  54.080  1.00  0.00     0.012 A 
HETATM   12  C9  UNL     1      20.576  -1.441  54.209  1.00  0.00     0.002 A 
HETATM   13  C10 UNL     1      19.529  -1.136  53.368  1.00  0.00     0.019 A 
HETATM   14  C11 UNL     1      19.653  -0.133  52.433  1.00  0.00     0.011 A 
HETATM   15 BR1  UNL     1      18.179   0.256  51.289  1.00  0.00    -0.051 Br
HETATM   16  C12 UNL     1      20.844   0.553  52.362  1.00  0.00     0.031 A 
ENDBRANCH   6  10
BRANCH   9  17
HETATM   17  O2  UNL     1      27.396  -1.405  53.473  1.00  0.00    -0.353 OA
HETATM   18  C16 UNL     1      27.181  -2.398  52.489  1.00  0.00     0.210 C 
ENDBRANCH   9  17
BRANCH   1  19
HETATM   19  O1  UNL     1      28.734   0.985  53.348  1.00  0.00    -0.353 OA
HETATM   20  C1  UNL     1      29.499   1.527  54.389  1.00  0.00     0.210 C 
ENDBRANCH   1  19
TORSDOF 3
ENDMDL
MODEL 6
REMARK VINA RESULT:      -7.3      3.191      3.704
REMARK  3 active torsions:
REMARK  status: ('A' for Active; 'I' for Inactive)
REMARK    1  A    between atoms: O1_2  and  C2_3 
REMARK    2  A    between atoms: C6_8  and  C7_9 
REMARK    3  A    between atoms: C15_18  and  O2_19 
ROOT
HETATM    1  C2  UNL     1      26.855  -0.068  54.059  1.00  0.00     0.103 C 
HETATM    2  C3  UNL     1      25.894  -0.958  53.732  1.00  0.00     0.067 C 
HETATM    3  C4  UNL     1      24.708  -0.236  53.336  1.00  0.00     0.049 A 
HETATM    4  N1  UNL     1      23.481  -0.687  53.298  1.00  0.00    -0.264 NA
HETATM    5  C5  UNL     1      22.586   0.332  52.882  1.00  0.00     0.126 A 
HETATM    6  C6  UNL     1      23.236   1.484  52.647  1.00  0.00    -0.017 A 
HETATM    7  C13 UNL     1      24.603   1.125  52.868  1.00  0.00     0.098 A 
HETATM    8  C14 UNL     1      25.623   2.013  53.350  1.00  0.00     0.028 C 
HETATM    9  C15 UNL     1      26.697   1.397  53.893  1.00  0.00     0.098 C 
ENDROOT
BRANCH   6  10
HETATM   10  C7  UNL     1      22.464   2.632  52.222  1.00  0.00    -0.026 A 
HETATM   11  C8  UNL     1      21.086   2.640  52.247  1.00  0.00     0.012 A 
HETATM   12  C9  UNL     1      20.306   3.706  51.848  1.00  0.00     0.002 A 
HETATM   13  C10 UNL     1      20.945   4.837  51.393  1.00  0.00     0.019 A 
HETATM   14  C11 UNL     1      22.321   4.891  51.343  1.00  0.00     0.011 A 
HETATM   15 BR1  UNL     1      23.165   6.476  50.706  1.00  0.00    -0.051 Br
HETATM   16  C12 UNL     1      23.035   3.789  51.758  1.00  0.00     0.031 A 
ENDBRANCH   6  10
BRANCH   9  17
HETATM   17  O2  UNL     1      27.773   2.166  54.352  1.00  0.00    -0.353 OA
HETATM   18  C16 UNL     1      28.719   2.593  53.391  1.00  0.00     0.210 C 
ENDBRANCH   9  17
BRANCH   1  19
HETATM   19  O1  UNL     1      28.070  -0.555  54.521  1.00  0.00    -0.353 OA
HETATM   20  C1  UNL     1      29.084  -1.093  53.718  1.00  0.00     0.210 C 
ENDBRANCH   1  19
TORSDOF 3
ENDMDL
MODEL 7
REMARK VINA RESULT:      -7.2      3.747      6.657
REMARK  3 active torsions:
REMARK  status: ('A' for Active; 'I' for Inactive)
REMARK    1  A    between atoms: O1_2  and  C2_3 
REMARK    2  A    between atoms: C6_8  and  C7_9 
REMARK    3  A    between atoms: C15_18  and  O2_19 
ROOT
HETATM    1  C2  UNL     1      18.819  -0.239  52.386  1.00  0.00     0.103 C 
HETATM    2  C3  UNL     1      19.134  -0.688  53.619  1.00  0.00     0.067 C 
HETATM    3  C4  UNL     1      20.572  -0.712  53.752  1.00  0.00     0.049 A 
HETATM    4  N1  UNL     1      21.278  -1.397  54.613  1.00  0.00    -0.264 NA
HETATM    5  C5  UNL     1      22.665  -1.179  54.411  1.00  0.00     0.126 A 
HETATM    6  C6  UNL     1      22.879  -0.334  53.388  1.00  0.00    -0.017 A 
HETATM    7  C13 UNL     1      21.553   0.027  52.995  1.00  0.00     0.098 A 
HETATM    8  C14 UNL     1      21.153   0.376  51.660  1.00  0.00     0.028 C 
HETATM    9  C15 UNL     1      19.828   0.256  51.419  1.00  0.00     0.098 C 
ENDROOT
BRANCH   6  10
HETATM   10  C7  UNL     1      24.247  -0.011  53.041  1.00  0.00    -0.026 A 
HETATM   11  C8  UNL     1      25.315  -0.746  53.508  1.00  0.00     0.012 A 
HETATM   12  C9  UNL     1      26.635  -0.475  53.212  1.00  0.00     0.002 A 
HETATM   13  C10 UNL     1      26.905   0.601  52.397  1.00  0.00     0.019 A 
HETATM   14  C11 UNL     1      25.880   1.375  51.899  1.00  0.00     0.011 A 
HETATM   15 BR1  UNL     1      26.298   2.855  50.774  1.00  0.00    -0.051 Br
HETATM   16  C12 UNL     1      24.587   1.046  52.236  1.00  0.00     0.031 A 
ENDBRANCH   6  10
BRANCH   9  17
HETATM   17  O2  UNL     1      19.321   0.615  50.164  1.00  0.00    -0.353 OA
HETATM   18  C16 UNL     1      19.554   1.940  49.728  1.00  0.00     0.210 C 
ENDBRANCH   9  17
BRANCH   1  19
HETATM   19  O1  UNL     1      17.479  -0.187  52.030  1.00  0.00    -0.353 OA
HETATM   20  C1  UNL     1      16.486  -1.066  52.482  1.00  0.00     0.210 C 
ENDBRANCH   1  19
TORSDOF 3
ENDMDL
MODEL 8
REMARK VINA RESULT:      -7.2      2.922      4.718
REMARK  3 active torsions:
REMARK  status: ('A' for Active; 'I' for Inactive)
REMARK    1  A    between atoms: O1_2  and  C2_3 
REMARK    2  A    between atoms: C6_8  and  C7_9 
REMARK    3  A    between atoms: C15_18  and  O2_19 
ROOT
HETATM    1  C2  UNL     1      25.669   3.889  50.048  1.00  0.00     0.103 C 
HETATM    2  C3  UNL     1      26.565   2.931  50.365  1.00  0.00     0.067 C 
HETATM    3  C4  UNL     1      25.939   1.985  51.257  1.00  0.00     0.049 A 
HETATM    4  N1  UNL     1      26.530   1.144  52.064  1.00  0.00    -0.264 NA
HETATM    5  C5  UNL     1      25.574   0.397  52.800  1.00  0.00     0.126 A 
HETATM    6  C6  UNL     1      24.321   0.759  52.475  1.00  0.00    -0.017 A 
HETATM    7  C13 UNL     1      24.531   1.727  51.443  1.00  0.00     0.098 A 
HETATM    8  C14 UNL     1      23.668   2.841  51.167  1.00  0.00     0.028 C 
HETATM    9  C15 UNL     1      24.249   3.847  50.475  1.00  0.00     0.098 C 
ENDROOT
BRANCH   6  10
HETATM   10  C7  UNL     1      23.222   0.099  53.145  1.00  0.00    -0.026 A 
HETATM   11  C8  UNL     1      23.405  -0.668  54.275  1.00  0.00     0.012 A 
HETATM   12  C9  UNL     1      22.392  -1.322  54.946  1.00  0.00     0.002 A 
HETATM   13  C10 UNL     1      21.113  -1.202  54.453  1.00  0.00     0.019 A 
HETATM   14  C11 UNL     1      20.864  -0.450  53.327  1.00  0.00     0.011 A 
HETATM   15 BR1  UNL     1      19.077  -0.311  52.680  1.00  0.00    -0.051 Br
HETATM   16  C12 UNL     1      21.924   0.175  52.709  1.00  0.00     0.031 A 
ENDBRANCH   6  10
BRANCH   9  17
HETATM   17  O2  UNL     1      23.487   4.963  50.111  1.00  0.00    -0.353 OA
HETATM   18  C16 UNL     1      23.043   5.810  51.153  1.00  0.00     0.210 C 
ENDBRANCH   9  17
BRANCH   1  19
HETATM   19  O1  UNL     1      26.085   4.934  49.236  1.00  0.00    -0.353 OA
HETATM   20  C1  UNL     1      27.366   5.071  48.685  1.00  0.00     0.210 C 
ENDBRANCH   1  19
TORSDOF 3
ENDMDL
MODEL 9
REMARK VINA RESULT:      -7.2      2.016      3.132
REMARK  3 active torsions:
REMARK  status: ('A' for Active; 'I' for Inactive)
REMARK    1  A    between atoms: O1_2  and  C2_3 
REMARK    2  A    between atoms: C6_8  and  C7_9 
REMARK    3  A    between atoms: C15_18  and  O2_19 
ROOT
HETATM    1  C2  UNL     1      26.547   0.881  54.096  1.00  0.00     0.103 C 
HETATM    2  C3  UNL     1      26.670   1.948  53.279  1.00  0.00     0.067 C 
HETATM    3  C4  UNL     1      25.518   2.005  52.411  1.00  0.00     0.049 A 
HETATM    4  N1  UNL     1      25.414   2.635  51.271  1.00  0.00    -0.264 NA
HETATM    5  C5  UNL     1      24.132   2.431  50.700  1.00  0.00     0.126 A 
HETATM    6  C6  UNL     1      23.373   1.642  51.479  1.00  0.00    -0.017 A 
HETATM    7  C13 UNL     1      24.218   1.412  52.610  1.00  0.00     0.098 A 
HETATM    8  C14 UNL     1      24.209   0.225  53.420  1.00  0.00     0.028 C 
HETATM    9  C15 UNL     1      25.339   0.022  54.135  1.00  0.00     0.098 C 
ENDROOT
BRANCH   6  10
HETATM   10  C7  UNL     1      22.033   1.325  51.035  1.00  0.00    -0.026 A 
HETATM   11  C8  UNL     1      21.582   1.648  49.774  1.00  0.00     0.012 A 
HETATM   12  C9  UNL     1      20.314   1.373  49.306  1.00  0.00     0.002 A 
HETATM   13  C10 UNL     1      19.439   0.735  50.155  1.00  0.00     0.019 A 
HETATM   14  C11 UNL     1      19.829   0.386  51.429  1.00  0.00     0.011 A 
HETATM   15 BR1  UNL     1      18.585  -0.497  52.571  1.00  0.00    -0.051 Br
HETATM   16  C12 UNL     1      21.111   0.691  51.828  1.00  0.00     0.031 A 
ENDBRANCH   6  10
BRANCH   9  17
HETATM   17  O2  UNL     1      25.421  -1.079  54.995  1.00  0.00    -0.353 OA
HETATM   18  C16 UNL     1      24.238  -1.461  55.671  1.00  0.00     0.210 C 
ENDBRANCH   9  17
BRANCH   1  19
HETATM   19  O1  UNL     1      27.580   0.611  54.982  1.00  0.00    -0.353 OA
HETATM   20  C1  UNL     1      28.870   0.200  54.621  1.00  0.00     0.210 C 
ENDBRANCH   1  19
TORSDOF 3
ENDMDL
