MODEL 1
REMARK VINA RESULT:      -6.6      0.000      0.000
REMARK  2 active torsions:
REMARK  status: ('A' for Active; 'I' for Inactive)
REMARK    1  A    between atoms: C13_19  and  C14_20 
REMARK    2  A    between atoms: C15_21  and  C16_22 
ROOT
HETATM    1  O1  UNL     1      32.595   5.185  48.795  1.00  0.00     0.000 OA
HETATM    2  C1  UNL     1      33.294   6.140  48.377  1.00  0.00     0.006 A 
HETATM    3  C2  UNL     1      33.964   7.306  47.814  1.00  0.00     0.126 C 
HETATM    4  N1  UNL     1      35.195   7.137  48.275  1.00  0.00    -0.269 NA
HETATM    5  C3  UNL     1      35.231   5.870  49.084  1.00  0.00     0.179 C 
HETATM    6  C4  UNL     1      35.213   4.825  48.030  1.00  0.00     0.011 C 
HETATM    7  C5  UNL     1      34.752   3.807  47.302  1.00  0.00     0.081 C 
HETATM    8  N2  UNL     1      33.668   2.898  47.092  1.00  0.00    -0.394 N 
HETATM    9  C6  UNL     1      32.665   3.676  46.276  1.00  0.00     0.081 C 
HETATM   10  C7  UNL     1      33.343   4.593  45.386  1.00  0.00     0.030 C 
HETATM   11  C8  UNL     1      32.725   5.581  44.517  1.00  0.00     0.048 C 
HETATM   12  C9  UNL     1      33.877   6.415  43.934  1.00  0.00    -0.014 C 
HETATM   13 BR1  UNL     1      34.607   5.887  42.257  1.00  0.00    -0.056 Br
HETATM   14  C10 UNL     1      34.234   7.456  44.740  1.00  0.00     0.007 C 
HETATM   15  C11 UNL     1      34.455   8.505  45.751  1.00  0.00     0.149 C 
HETATM   16  N3  UNL     1      33.633   8.388  46.959  1.00  0.00    -0.371 N 
HETATM   17  C12 UNL     1      31.468   3.917  47.051  1.00  0.00     0.027 C 
HETATM   18  O2  UNL     1      31.580   4.681  48.177  1.00  0.00     0.000 OA
HETATM   19  C13 UNL     1      31.818   6.026  48.001  1.00  0.00     0.057 A 
HETATM   20  H5  UNL     1      33.602   1.923  47.434  1.00  0.00     0.159 HD
HETATM   21  H14 UNL     1      32.906   8.603  47.656  1.00  0.00     0.161 HD
ENDROOT
BRANCH  19  22
HETATM   22  C14 UNL     1      31.001   6.948  48.805  1.00  0.00    -0.018 C 
HETATM   23  C15 UNL     1      29.731   7.213  48.615  1.00  0.00     0.001 C 
BRANCH  23  24
HETATM   24  C16 UNL     1      28.773   6.708  47.601  1.00  0.00     0.249 C 
HETATM   25  F1  UNL     1      28.303   5.442  47.972  1.00  0.00    -0.251 F 
ENDBRANCH  23  24
ENDBRANCH  19  22
TORSDOF 2
ENDMDL
MODEL 2
REMARK VINA RESULT:      -6.5      4.362      6.095
REMARK  2 active torsions:
REMARK  status: ('A' for Active; 'I' for Inactive)
REMARK    1  A    between atoms: C13_19  and  C14_20 
REMARK    2  A    between atoms: C15_21  and  C16_22 
ROOT
HETATM    1  O1  UNL     1      29.906   8.601  49.364  1.00  0.00     0.000 OA
HETATM    2  C1  UNL     1      30.294   8.543  48.172  1.00  0.00     0.006 A 
HETATM    3  C2  UNL     1      30.693   8.637  46.774  1.00  0.00     0.126 C 
HETATM    4  N1  UNL     1      31.168   7.417  46.563  1.00  0.00    -0.269 NA
HETATM    5  C3  UNL     1      31.024   6.624  47.833  1.00  0.00     0.179 C 
HETATM    6  C4  UNL     1      29.571   6.327  47.853  1.00  0.00     0.011 C 
HETATM    7  C5  UNL     1      28.304   6.362  48.270  1.00  0.00     0.081 C 
HETATM    8  N2  UNL     1      27.390   6.887  49.237  1.00  0.00    -0.394 N 
HETATM    9  C6  UNL     1      27.055   8.272  48.738  1.00  0.00     0.081 C 
HETATM   10  C7  UNL     1      27.053   8.299  47.292  1.00  0.00     0.030 C 
HETATM   11  C8  UNL     1      26.875   9.466  46.443  1.00  0.00     0.048 C 
HETATM   12  C9  UNL     1      27.143   8.991  45.006  1.00  0.00    -0.014 C 
HETATM   13 BR1  UNL     1      25.660   8.418  43.959  1.00  0.00    -0.056 Br
HETATM   14  C10 UNL     1      28.465   9.042  44.673  1.00  0.00     0.007 C 
HETATM   15  C11 UNL     1      29.925   9.176  44.525  1.00  0.00     0.149 C 
HETATM   16  N3  UNL     1      30.636   9.601  45.735  1.00  0.00    -0.371 N 
HETATM   17  C12 UNL     1      27.584   9.271  49.641  1.00  0.00     0.027 C 
HETATM   18  O2  UNL     1      28.938   9.339  49.796  1.00  0.00     0.000 OA
HETATM   19  C13 UNL     1      29.668   9.819  48.730  1.00  0.00     0.057 A 
HETATM   20  H5  UNL     1      27.046   6.409  50.088  1.00  0.00     0.159 HD
HETATM   21  H14 UNL     1      31.173  10.199  46.378  1.00  0.00     0.161 HD
ENDROOT
BRANCH  19  22
HETATM   22  C14 UNL     1      30.704  10.817  49.040  1.00  0.00    -0.018 C 
HETATM   23  C15 UNL     1      30.568  12.118  48.944  1.00  0.00     0.001 C 
BRANCH  23  24
HETATM   24  C16 UNL     1      29.414  12.947  48.522  1.00  0.00     0.249 C 
HETATM   25  F1  UNL     1      28.537  13.136  49.598  1.00  0.00    -0.251 F 
ENDBRANCH  23  24
ENDBRANCH  19  22
TORSDOF 2
ENDMDL
MODEL 3
REMARK VINA RESULT:      -6.4      8.849     11.633
REMARK  2 active torsions:
REMARK  status: ('A' for Active; 'I' for Inactive)
REMARK    1  A    between atoms: C13_19  and  C14_20 
REMARK    2  A    between atoms: C15_21  and  C16_22 
ROOT
HETATM    1  O1  UNL     1      22.381   5.013  48.521  1.00  0.00     0.000 OA
HETATM    2  C1  UNL     1      22.520   5.264  49.742  1.00  0.00     0.006 A 
HETATM    3  C2  UNL     1      22.841   5.498  51.145  1.00  0.00     0.126 C 
HETATM    4  N1  UNL     1      21.689   5.978  51.591  1.00  0.00    -0.269 NA
HETATM    5  C3  UNL     1      20.709   6.002  50.451  1.00  0.00     0.179 C 
HETATM    6  C4  UNL     1      20.348   4.570  50.319  1.00  0.00     0.011 C 
HETATM    7  C5  UNL     1      20.262   3.358  49.767  1.00  0.00     0.081 C 
HETATM    8  N2  UNL     1      20.595   2.547  48.637  1.00  0.00    -0.394 N 
HETATM    9  C6  UNL     1      22.023   2.119  48.876  1.00  0.00     0.081 C 
HETATM   10  C7  UNL     1      22.267   1.951  50.292  1.00  0.00     0.030 C 
HETATM   11  C8  UNL     1      23.539   1.645  50.926  1.00  0.00     0.048 C 
HETATM   12  C9  UNL     1      23.298   1.760  52.440  1.00  0.00    -0.014 C 
HETATM   13 BR1  UNL     1      22.823   0.183  53.395  1.00  0.00    -0.056 Br
HETATM   14  C10 UNL     1      23.457   3.033  52.903  1.00  0.00     0.007 C 
HETATM   15  C11 UNL     1      23.677   4.463  53.186  1.00  0.00     0.149 C 
HETATM   16  N3  UNL     1      23.946   5.296  52.009  1.00  0.00    -0.371 N 
HETATM   17  C12 UNL     1      22.898   2.720  47.893  1.00  0.00     0.027 C 
HETATM   18  O2  UNL     1      23.002   4.082  47.877  1.00  0.00     0.000 OA
HETATM   19  C13 UNL     1      23.668   4.671  48.929  1.00  0.00     0.057 A 
HETATM   20  H5  UNL     1      19.980   2.316  47.837  1.00  0.00     0.159 HD
HETATM   21  H14 UNL     1      24.464   5.887  51.344  1.00  0.00     0.161 HD
ENDROOT
BRANCH  19  22
HETATM   22  C14 UNL     1      24.653   5.708  48.584  1.00  0.00    -0.018 C 
HETATM   23  C15 UNL     1      25.955   5.599  48.703  1.00  0.00     0.001 C 
BRANCH  23  24
HETATM   24  C16 UNL     1      26.798   4.480  49.190  1.00  0.00     0.249 C 
HETATM   25  F1  UNL     1      27.967   4.389  48.424  1.00  0.00    -0.251 F 
ENDBRANCH  23  24
ENDBRANCH  19  22
TORSDOF 2
ENDMDL
MODEL 4
REMARK VINA RESULT:      -6.3      8.887     11.285
REMARK  2 active torsions:
REMARK  status: ('A' for Active; 'I' for Inactive)
REMARK    1  A    between atoms: C13_19  and  C14_20 
REMARK    2  A    between atoms: C15_21  and  C16_22 
ROOT
HETATM    1  O1  UNL     1      24.757   3.204  52.472  1.00  0.00     0.000 OA
HETATM    2  C1  UNL     1      23.519   3.138  52.273  1.00  0.00     0.006 A 
HETATM    3  C2  UNL     1      22.112   2.909  51.972  1.00  0.00     0.126 C 
HETATM    4  N1  UNL     1      21.570   4.031  52.425  1.00  0.00    -0.269 NA
HETATM    5  C3  UNL     1      22.668   4.905  52.966  1.00  0.00     0.179 C 
HETATM    6  C4  UNL     1      23.301   5.415  51.725  1.00  0.00     0.011 C 
HETATM    7  C5  UNL     1      24.242   5.593  50.796  1.00  0.00     0.081 C 
HETATM    8  N2  UNL     1      25.569   5.263  50.377  1.00  0.00    -0.394 N 
HETATM    9  C6  UNL     1      25.439   3.917  49.705  1.00  0.00     0.081 C 
HETATM   10  C7  UNL     1      24.161   3.811  49.036  1.00  0.00     0.030 C 
HETATM   11  C8  UNL     1      23.624   2.639  48.365  1.00  0.00     0.048 C 
HETATM   12  C9  UNL     1      22.174   2.989  47.992  1.00  0.00    -0.014 C 
HETATM   13 BR1  UNL     1      21.843   3.717  46.264  1.00  0.00    -0.056 Br
HETATM   14  C10 UNL     1      21.294   2.724  48.999  1.00  0.00     0.007 C 
HETATM   15  C11 UNL     1      20.525   2.367  50.205  1.00  0.00     0.149 C 
HETATM   16  N3  UNL     1      21.329   1.909  51.342  1.00  0.00    -0.371 N 
HETATM   17  C12 UNL     1      26.120   2.902  50.479  1.00  0.00     0.027 C 
HETATM   18  O2  UNL     1      25.658   2.643  51.738  1.00  0.00     0.000 OA
HETATM   19  C13 UNL     1      24.443   2.002  51.840  1.00  0.00     0.057 A 
HETATM   20  H5  UNL     1      26.423   5.832  50.516  1.00  0.00     0.159 HD
HETATM   21  H14 UNL     1      21.728   1.274  52.047  1.00  0.00     0.161 HD
ENDROOT
BRANCH  19  22
HETATM   22  C14 UNL     1      24.371   0.880  52.789  1.00  0.00    -0.018 C 
HETATM   23  C15 UNL     1      25.240  -0.098  52.889  1.00  0.00     0.001 C 
BRANCH  23  24
HETATM   24  C16 UNL     1      26.486  -0.372  52.134  1.00  0.00     0.249 C 
HETATM   25  F1  UNL     1      26.700  -1.753  52.041  1.00  0.00    -0.251 F 
ENDBRANCH  23  24
ENDBRANCH  19  22
TORSDOF 2
ENDMDL
MODEL 5
REMARK VINA RESULT:      -6.3      9.911     12.089
REMARK  2 active torsions:
REMARK  status: ('A' for Active; 'I' for Inactive)
REMARK    1  A    between atoms: C13_19  and  C14_20 
REMARK    2  A    between atoms: C15_21  and  C16_22 
ROOT
HETATM    1  O1  UNL     1      23.023   3.049  52.757  1.00  0.00     0.000 OA
HETATM    2  C1  UNL     1      22.257   2.360  52.040  1.00  0.00     0.006 A 
HETATM    3  C2  UNL     1      21.509   1.501  51.131  1.00  0.00     0.126 C 
HETATM    4  N1  UNL     1      20.264   1.766  51.502  1.00  0.00    -0.269 NA
HETATM    5  C3  UNL     1      20.302   2.785  52.606  1.00  0.00     0.179 C 
HETATM    6  C4  UNL     1      20.614   4.034  51.869  1.00  0.00     0.011 C 
HETATM    7  C5  UNL     1      21.311   5.102  51.479  1.00  0.00     0.081 C 
HETATM    8  N2  UNL     1      22.533   5.832  51.616  1.00  0.00    -0.394 N 
HETATM    9  C6  UNL     1      23.516   5.112  50.724  1.00  0.00     0.081 C 
HETATM   10  C7  UNL     1      22.839   4.570  49.566  1.00  0.00     0.030 C 
HETATM   11  C8  UNL     1      23.420   3.730  48.532  1.00  0.00     0.048 C 
HETATM   12  C9  UNL     1      22.250   3.276  47.645  1.00  0.00    -0.014 C 
HETATM   13 BR1  UNL     1      21.839   4.314  46.102  1.00  0.00    -0.056 Br
HETATM   14  C10 UNL     1      21.641   2.150  48.114  1.00  0.00     0.007 C 
HETATM   15  C11 UNL     1      21.135   0.942  48.790  1.00  0.00     0.149 C 
HETATM   16  N3  UNL     1      21.793   0.618  50.059  1.00  0.00    -0.371 N 
HETATM   17  C12 UNL     1      24.549   4.485  51.520  1.00  0.00     0.027 C 
HETATM   18  O2  UNL     1      24.176   3.503  52.392  1.00  0.00     0.000 OA
HETATM   19  C13 UNL     1      23.771   2.303  51.848  1.00  0.00     0.057 A 
HETATM   20  H5  UNL     1      22.693   6.668  52.206  1.00  0.00     0.159 HD
HETATM   21  H14 UNL     1      22.379   0.117  50.741  1.00  0.00     0.161 HD
ENDROOT
BRANCH  19  22
HETATM   22  C14 UNL     1      24.329   1.086  52.458  1.00  0.00    -0.018 C 
HETATM   23  C15 UNL     1      25.568   0.669  52.344  1.00  0.00     0.001 C 
BRANCH  23  24
HETATM   24  C16 UNL     1      26.725   1.246  51.618  1.00  0.00     0.249 C 
HETATM   25  F1  UNL     1      27.192   2.388  52.283  1.00  0.00    -0.251 F 
ENDBRANCH  23  24
ENDBRANCH  19  22
TORSDOF 2
ENDMDL
MODEL 6
REMARK VINA RESULT:      -6.2      7.980     11.051
REMARK  2 active torsions:
REMARK  status: ('A' for Active; 'I' for Inactive)
REMARK    1  A    between atoms: C13_19  and  C14_20 
REMARK    2  A    between atoms: C15_21  and  C16_22 
ROOT
HETATM    1  O1  UNL     1      24.153   4.698  51.182  1.00  0.00     0.000 OA
HETATM    2  C1  UNL     1      23.452   3.913  50.498  1.00  0.00     0.006 A 
HETATM    3  C2  UNL     1      22.750   3.028  49.577  1.00  0.00     0.126 C 
HETATM    4  N1  UNL     1      21.732   2.637  50.330  1.00  0.00    -0.269 NA
HETATM    5  C3  UNL     1      21.843   3.311  51.670  1.00  0.00     0.179 C 
HETATM    6  C4  UNL     1      21.409   4.695  51.361  1.00  0.00     0.011 C 
HETATM    7  C5  UNL     1      21.499   6.016  51.200  1.00  0.00     0.081 C 
HETATM    8  N2  UNL     1      22.358   7.159  51.257  1.00  0.00    -0.394 N 
HETATM    9  C6  UNL     1      23.104   7.148  49.945  1.00  0.00     0.081 C 
HETATM   10  C7  UNL     1      22.262   6.624  48.892  1.00  0.00     0.030 C 
HETATM   11  C8  UNL     1      22.650   6.362  47.515  1.00  0.00     0.048 C 
HETATM   12  C9  UNL     1      21.457   5.642  46.867  1.00  0.00    -0.014 C 
HETATM   13 BR1  UNL     1      20.163   6.697  45.950  1.00  0.00    -0.056 Br
HETATM   14  C10 UNL     1      21.491   4.292  47.056  1.00  0.00     0.007 C 
HETATM   15  C11 UNL     1      21.722   2.872  47.374  1.00  0.00     0.149 C 
HETATM   16  N3  UNL     1      22.883   2.607  48.230  1.00  0.00    -0.371 N 
HETATM   17  C12 UNL     1      24.508   6.882  50.170  1.00  0.00     0.027 C 
HETATM   18  O2  UNL     1      24.852   5.676  50.709  1.00  0.00     0.000 OA
HETATM   19  C13 UNL     1      24.701   4.565  49.908  1.00  0.00     0.057 A 
HETATM   20  H5  UNL     1      22.439   7.835  52.038  1.00  0.00     0.159 HD
HETATM   21  H14 UNL     1      23.817   2.281  48.514  1.00  0.00     0.161 HD
ENDROOT
BRANCH  19  22
HETATM   22  C14 UNL     1      25.824   3.616  49.884  1.00  0.00    -0.018 C 
HETATM   23  C15 UNL     1      26.991   3.821  49.321  1.00  0.00     0.001 C 
BRANCH  23  24
HETATM   24  C16 UNL     1      27.521   4.992  48.580  1.00  0.00     0.249 C 
HETATM   25  F1  UNL     1      28.821   4.728  48.128  1.00  0.00    -0.251 F 
ENDBRANCH  23  24
ENDBRANCH  19  22
TORSDOF 2
ENDMDL
MODEL 7
REMARK VINA RESULT:      -6.2     10.147     12.536
REMARK  2 active torsions:
REMARK  status: ('A' for Active; 'I' for Inactive)
REMARK    1  A    between atoms: C13_19  and  C14_20 
REMARK    2  A    between atoms: C15_21  and  C16_22 
ROOT
HETATM    1  O1  UNL     1      21.425   1.091  50.976  1.00  0.00     0.000 OA
HETATM    2  C1  UNL     1      22.194   1.703  50.196  1.00  0.00     0.006 A 
HETATM    3  C2  UNL     1      23.169   2.470  49.430  1.00  0.00     0.126 C 
HETATM    4  N1  UNL     1      22.763   2.228  48.191  1.00  0.00    -0.269 NA
HETATM    5  C3  UNL     1      21.550   1.342  48.252  1.00  0.00     0.179 C 
HETATM    6  C4  UNL     1      20.492   2.288  48.682  1.00  0.00     0.011 C 
HETATM    7  C5  UNL     1      19.565   2.837  49.469  1.00  0.00     0.081 C 
HETATM    8  N2  UNL     1      18.896   2.774  50.732  1.00  0.00    -0.394 N 
HETATM    9  C6  UNL     1      19.835   3.453  51.700  1.00  0.00     0.081 C 
HETATM   10  C7  UNL     1      20.553   4.521  51.039  1.00  0.00     0.030 C 
HETATM   11  C8  UNL     1      21.614   5.338  51.605  1.00  0.00     0.048 C 
HETATM   12  C9  UNL     1      22.162   6.185  50.445  1.00  0.00    -0.014 C 
HETATM   13 BR1  UNL     1      21.426   7.921  50.176  1.00  0.00    -0.056 Br
HETATM   14  C10 UNL     1      23.136   5.543  49.739  1.00  0.00     0.007 C 
HETATM   15  C11 UNL     1      24.155   4.676  49.121  1.00  0.00     0.149 C 
HETATM   16  N3  UNL     1      24.261   3.332  49.699  1.00  0.00    -0.371 N 
HETATM   17  C12 UNL     1      20.354   2.494  52.651  1.00  0.00     0.027 C 
HETATM   18  O2  UNL     1      21.121   1.471  52.172  1.00  0.00     0.000 OA
HETATM   19  C13 UNL     1      22.378   1.794  51.709  1.00  0.00     0.057 A 
HETATM   20  H5  UNL     1      17.972   2.349  50.924  1.00  0.00     0.159 HD
HETATM   21  H14 UNL     1      24.652   2.534  50.218  1.00  0.00     0.161 HD
ENDROOT
BRANCH  19  22
HETATM   22  C14 UNL     1      23.483   0.930  52.154  1.00  0.00    -0.018 C 
HETATM   23  C15 UNL     1      24.535   1.319  52.834  1.00  0.00     0.001 C 
BRANCH  23  24
HETATM   24  C16 UNL     1      24.927   2.656  53.340  1.00  0.00     0.249 C 
HETATM   25  F1  UNL     1      26.050   2.548  54.170  1.00  0.00    -0.251 F 
ENDBRANCH  23  24
ENDBRANCH  19  22
TORSDOF 2
ENDMDL
MODEL 8
REMARK VINA RESULT:      -6.0      3.462      5.607
REMARK  2 active torsions:
REMARK  status: ('A' for Active; 'I' for Inactive)
REMARK    1  A    between atoms: C13_19  and  C14_20 
REMARK    2  A    between atoms: C15_21  and  C16_22 
ROOT
HETATM    1  O1  UNL     1      32.436   9.002  48.155  1.00  0.00     0.000 OA
HETATM    2  C1  UNL     1      31.268   8.866  48.594  1.00  0.00     0.006 A 
HETATM    3  C2  UNL     1      29.915   8.552  49.036  1.00  0.00     0.126 C 
HETATM    4  N1  UNL     1      29.574   9.686  49.632  1.00  0.00    -0.269 NA
HETATM    5  C3  UNL     1      30.722  10.650  49.514  1.00  0.00     0.179 C 
HETATM    6  C4  UNL     1      30.629  11.075  48.096  1.00  0.00     0.011 C 
HETATM    7  C5  UNL     1      30.981  11.208  46.816  1.00  0.00     0.081 C 
HETATM    8  N2  UNL     1      31.959  10.899  45.819  1.00  0.00    -0.394 N 
HETATM    9  C6  UNL     1      31.627   9.495  45.374  1.00  0.00     0.081 C 
HETATM   10  C7  UNL     1      30.198   9.277  45.427  1.00  0.00     0.030 C 
HETATM   11  C8  UNL     1      29.498   8.028  45.173  1.00  0.00     0.048 C 
HETATM   12  C9  UNL     1      28.028   8.282  45.541  1.00  0.00    -0.014 C 
HETATM   13 BR1  UNL     1      26.840   8.839  44.161  1.00  0.00    -0.056 Br
HETATM   14  C10 UNL     1      27.772   8.070  46.864  1.00  0.00     0.007 C 
HETATM   15  C11 UNL     1      27.718   7.789  48.310  1.00  0.00     0.149 C 
HETATM   16  N3  UNL     1      29.008   7.467  48.929  1.00  0.00    -0.371 N 
HETATM   17  C12 UNL     1      32.677   8.583  45.771  1.00  0.00     0.027 C 
HETATM   18  O2  UNL     1      32.909   8.416  47.106  1.00  0.00     0.000 OA
HETATM   19  C13 UNL     1      31.952   7.736  47.828  1.00  0.00     0.057 A 
HETATM   20  H5  UNL     1      32.723  11.515  45.489  1.00  0.00     0.159 HD
HETATM   21  H14 UNL     1      29.749   6.915  49.382  1.00  0.00     0.161 HD
ENDROOT
BRANCH  19  22
HETATM   22  C14 UNL     1      32.441   6.701  48.751  1.00  0.00    -0.018 C 
HETATM   23  C15 UNL     1      32.288   5.406  48.603  1.00  0.00     0.001 C 
BRANCH  23  24
HETATM   24  C16 UNL     1      31.622   4.621  47.536  1.00  0.00     0.249 C 
HETATM   25  F1  UNL     1      30.231   4.754  47.637  1.00  0.00    -0.251 F 
ENDBRANCH  23  24
ENDBRANCH  19  22
TORSDOF 2
ENDMDL
MODEL 9
REMARK VINA RESULT:      -6.0      1.961      3.250
REMARK  2 active torsions:
REMARK  status: ('A' for Active; 'I' for Inactive)
REMARK    1  A    between atoms: C13_19  and  C14_20 
REMARK    2  A    between atoms: C15_21  and  C16_22 
ROOT
HETATM    1  O1  UNL     1      32.034   8.598  48.714  1.00  0.00     0.000 OA
HETATM    2  C1  UNL     1      31.867   8.903  47.508  1.00  0.00     0.006 A 
HETATM    3  C2  UNL     1      31.572   9.119  46.098  1.00  0.00     0.126 C 
HETATM    4  N1  UNL     1      32.280  10.213  45.856  1.00  0.00    -0.269 NA
HETATM    5  C3  UNL     1      32.991  10.610  47.121  1.00  0.00     0.179 C 
HETATM    6  C4  UNL     1      34.087   9.612  47.189  1.00  0.00     0.011 C 
HETATM    7  C5  UNL     1      34.800   8.584  47.652  1.00  0.00     0.081 C 
HETATM    8  N2  UNL     1      34.903   7.572  48.657  1.00  0.00    -0.394 N 
HETATM    9  C6  UNL     1      33.986   6.468  48.188  1.00  0.00     0.081 C 
HETATM   10  C7  UNL     1      33.983   6.398  46.743  1.00  0.00     0.030 C 
HETATM   11  C8  UNL     1      33.155   5.537  45.914  1.00  0.00     0.048 C 
HETATM   12  C9  UNL     1      33.398   5.981  44.463  1.00  0.00    -0.014 C 
HETATM   13 BR1  UNL     1      34.746   5.083  43.463  1.00  0.00    -0.056 Br
HETATM   14  C10 UNL     1      32.582   7.006  44.083  1.00  0.00     0.007 C 
HETATM   15  C11 UNL     1      31.615   8.101  43.885  1.00  0.00     0.149 C 
HETATM   16  N3  UNL     1      30.839   8.468  45.074  1.00  0.00    -0.371 N 
HETATM   17  C12 UNL     1      32.857   6.339  49.083  1.00  0.00     0.027 C 
HETATM   18  O2  UNL     1      32.003   7.398  49.189  1.00  0.00     0.000 OA
HETATM   19  C13 UNL     1      31.198   7.666  48.104  1.00  0.00     0.057 A 
HETATM   20  H5  UNL     1      35.481   7.606  49.515  1.00  0.00     0.159 HD
HETATM   21  H14 UNL     1      30.032   8.573  45.703  1.00  0.00     0.161 HD
ENDROOT
BRANCH  19  22
HETATM   22  C14 UNL     1      29.778   7.925  48.388  1.00  0.00    -0.018 C 
HETATM   23  C15 UNL     1      28.825   7.024  48.421  1.00  0.00     0.001 C 
BRANCH  23  24
HETATM   24  C16 UNL     1      28.864   5.559  48.200  1.00  0.00     0.249 C 
HETATM   25  F1  UNL     1      27.576   5.019  48.313  1.00  0.00    -0.251 F 
ENDBRANCH  23  24
ENDBRANCH  19  22
TORSDOF 2
ENDMDL
