MODEL 1
REMARK VINA RESULT:      -8.4      0.000      0.000
REMARK  5 active torsions:
REMARK  status: ('A' for Active; 'I' for Inactive)
REMARK    1  A    between atoms: C7_8  and  N2_9 
REMARK    2  A    between atoms: C8_10  and  N3_11 
REMARK    3  A    between atoms: N4_16  and  C13_17 
REMARK    4  A    between atoms: C13_17  and  C14_18 
REMARK    5  A    between atoms: C14_18  and  C15_19 
ROOT
HETATM    1  N3  UNL     1      23.564   0.296  53.818  1.00  0.00    -0.245 NA
HETATM    2  C9  UNL     1      22.435   0.556  53.259  1.00  0.00     0.081 A 
HETATM    3  C10 UNL     1      21.143   1.015  53.008  1.00  0.00     0.148 A 
HETATM    4  C11 UNL     1      20.673  -0.172  52.885  1.00  0.00     0.025 A 
HETATM    5  C12 UNL     1      21.714   0.318  51.958  1.00  0.00     0.169 A 
HETATM    6  N4  UNL     1      21.474   1.389  51.127  1.00  0.00    -0.378 N 
HETATM    7  C21 UNL     1      20.424   2.306  51.362  1.00  0.00     0.290 C 
HETATM    8  O1  UNL     1      20.342   2.192  52.863  1.00  0.00    -0.349 OA
ENDROOT
BRANCH   1   9
HETATM    9  C8  UNL     1      24.579  -0.434  53.128  1.00  0.00     0.229 C 
HETATM   10  N2  UNL     1      25.623   0.236  53.509  1.00  0.00    -0.257 NA
BRANCH  10  11
HETATM   11  C7  UNL     1      26.953  -0.127  53.061  1.00  0.00     0.213 C 
HETATM   12  C2  UNL     1      27.960   0.613  53.875  1.00  0.00     0.048 C 
HETATM   13  C1  UNL     1      27.762   2.118  53.686  1.00  0.00     0.018 C 
HETATM   14  C3  UNL     1      29.355   0.221  53.698  1.00  0.00    -0.019 C 
HETATM   15  C4  UNL     1      30.067  -0.869  53.464  1.00  0.00    -0.002 C 
HETATM   16  C5  UNL     1      29.407  -2.179  53.306  1.00  0.00     0.016 C 
HETATM   17  C6  UNL     1      28.146  -2.520  53.075  1.00  0.00     0.085 C 
HETATM   18  N1  UNL     1      27.136  -1.527  52.932  1.00  0.00    -0.376 N 
HETATM   19  H9  UNL     1      26.206  -1.947  52.630  1.00  0.00     0.161 HD
ENDBRANCH  10  11
ENDBRANCH   1   9
BRANCH   6  20
HETATM   20  C13 UNL     1      22.158   1.446  49.883  1.00  0.00     0.122 C 
BRANCH  20  21
HETATM   21  C14 UNL     1      22.609   2.817  49.479  1.00  0.00     0.055 C 
BRANCH  21  22
HETATM   22  C15 UNL     1      24.047   3.126  49.602  1.00  0.00     0.225 C 
HETATM   23  N5  UNL     1      24.216   4.570  49.498  1.00  0.00     0.088 N 
HETATM   24  C16 UNL     1      25.582   4.976  49.687  1.00  0.00     0.270 C 
HETATM   25  H19 UNL     1      23.726   4.980  48.701  1.00  0.00     0.316 HD
HETATM   26  C17 UNL     1      26.554   3.830  49.641  1.00  0.00     0.030 C 
HETATM   27  C18 UNL     1      26.225   2.672  50.518  1.00  0.00     0.008 C 
HETATM   28  C19 UNL     1      24.744   2.590  50.826  1.00  0.00     0.015 C 
HETATM   29  C20 UNL     1      24.486   3.432  52.051  1.00  0.00     0.012 C 
ENDBRANCH  21  22
ENDBRANCH  20  21
ENDBRANCH   6  20
TORSDOF 5
ENDMDL
MODEL 2
REMARK VINA RESULT:      -8.0      2.708      6.674
REMARK  5 active torsions:
REMARK  status: ('A' for Active; 'I' for Inactive)
REMARK    1  A    between atoms: C7_8  and  N2_9 
REMARK    2  A    between atoms: C8_10  and  N3_11 
REMARK    3  A    between atoms: N4_16  and  C13_17 
REMARK    4  A    between atoms: C13_17  and  C14_18 
REMARK    5  A    between atoms: C14_18  and  C15_19 
ROOT
HETATM    1  N3  UNL     1      23.560   6.246  51.163  1.00  0.00    -0.245 NA
HETATM    2  C9  UNL     1      24.317   6.320  50.127  1.00  0.00     0.081 A 
HETATM    3  C10 UNL     1      25.113   6.794  49.085  1.00  0.00     0.148 A 
HETATM    4  C11 UNL     1      24.305   6.367  48.184  1.00  0.00     0.025 A 
HETATM    5  C12 UNL     1      24.963   5.419  49.107  1.00  0.00     0.169 A 
HETATM    6  N4  UNL     1      26.332   5.277  49.119  1.00  0.00    -0.378 N 
HETATM    7  C21 UNL     1      27.196   6.254  48.574  1.00  0.00     0.290 C 
HETATM    8  O1  UNL     1      26.334   7.474  48.780  1.00  0.00    -0.349 OA
ENDROOT
BRANCH   1   9
HETATM    9  C8  UNL     1      23.095   4.986  51.650  1.00  0.00     0.229 C 
HETATM   10  N2  UNL     1      22.263   4.682  50.700  1.00  0.00    -0.257 NA
BRANCH  10  11
HETATM   11  C7  UNL     1      21.506   3.446  50.732  1.00  0.00     0.213 C 
HETATM   12  C2  UNL     1      22.281   2.383  50.030  1.00  0.00     0.048 C 
HETATM   13  C1  UNL     1      22.506   2.794  48.573  1.00  0.00     0.018 C 
HETATM   14  C3  UNL     1      21.764   1.022  50.138  1.00  0.00    -0.019 C 
HETATM   15  C4  UNL     1      21.145   0.253  51.018  1.00  0.00    -0.002 C 
HETATM   16  C5  UNL     1      20.793   0.771  52.354  1.00  0.00     0.016 C 
HETATM   17  C6  UNL     1      20.717   2.002  52.840  1.00  0.00     0.085 C 
HETATM   18  N1  UNL     1      21.008   3.130  52.022  1.00  0.00    -0.376 N 
HETATM   19  H9  UNL     1      20.785   4.047  52.514  1.00  0.00     0.161 HD
ENDBRANCH  10  11
ENDBRANCH   1   9
BRANCH   6  20
HETATM   20  C13 UNL     1      26.879   4.020  49.488  1.00  0.00     0.122 C 
BRANCH  20  21
HETATM   21  C14 UNL     1      25.902   3.069  50.111  1.00  0.00     0.055 C 
BRANCH  21  22
HETATM   22  C15 UNL     1      26.422   2.109  51.104  1.00  0.00     0.225 C 
HETATM   23  N5  UNL     1      27.189   2.850  52.099  1.00  0.00     0.088 N 
HETATM   24  C16 UNL     1      27.670   2.005  53.157  1.00  0.00     0.270 C 
HETATM   25  H19 UNL     1      27.864   3.498  51.690  1.00  0.00     0.316 HD
HETATM   26  C17 UNL     1      27.547   0.539  52.851  1.00  0.00     0.030 C 
HETATM   27  C18 UNL     1      26.203   0.089  52.393  1.00  0.00     0.008 C 
HETATM   28  C19 UNL     1      25.406   1.214  51.766  1.00  0.00     0.015 C 
HETATM   29  C20 UNL     1      24.657   1.913  52.874  1.00  0.00     0.012 C 
ENDBRANCH  21  22
ENDBRANCH  20  21
ENDBRANCH   6  20
TORSDOF 5
ENDMDL
MODEL 3
REMARK VINA RESULT:      -7.9      1.970      5.813
REMARK  5 active torsions:
REMARK  status: ('A' for Active; 'I' for Inactive)
REMARK    1  A    between atoms: C7_8  and  N2_9 
REMARK    2  A    between atoms: C8_10  and  N3_11 
REMARK    3  A    between atoms: N4_16  and  C13_17 
REMARK    4  A    between atoms: C13_17  and  C14_18 
REMARK    5  A    between atoms: C14_18  and  C15_19 
ROOT
HETATM    1  N3  UNL     1      22.534   4.952  50.485  1.00  0.00    -0.245 NA
HETATM    2  C9  UNL     1      22.007   3.913  51.031  1.00  0.00     0.081 A 
HETATM    3  C10 UNL     1      21.145   2.866  51.355  1.00  0.00     0.148 A 
HETATM    4  C11 UNL     1      20.940   3.313  52.540  1.00  0.00     0.025 A 
HETATM    5  C12 UNL     1      22.298   2.912  52.118  1.00  0.00     0.169 A 
HETATM    6  N4  UNL     1      22.574   1.610  51.764  1.00  0.00    -0.378 N 
HETATM    7  C21 UNL     1      21.558   0.694  51.408  1.00  0.00     0.290 C 
HETATM    8  O1  UNL     1      20.546   1.667  50.858  1.00  0.00    -0.349 OA
ENDROOT
BRANCH   1   9
HETATM    9  C8  UNL     1      23.801   5.450  50.917  1.00  0.00     0.229 C 
HETATM   10  N2  UNL     1      24.486   5.267  49.829  1.00  0.00    -0.257 NA
BRANCH  10  11
HETATM   11  C7  UNL     1      25.887   5.629  49.755  1.00  0.00     0.213 C 
HETATM   12  C2  UNL     1      26.610   4.611  48.938  1.00  0.00     0.048 C 
HETATM   13  C1  UNL     1      26.483   3.240  49.604  1.00  0.00     0.018 C 
HETATM   14  C3  UNL     1      27.993   4.920  48.589  1.00  0.00    -0.019 C 
HETATM   15  C4  UNL     1      28.738   5.969  48.283  1.00  0.00    -0.002 C 
HETATM   16  C5  UNL     1      28.150   7.322  48.235  1.00  0.00     0.016 C 
HETATM   17  C6  UNL     1      27.014   7.816  48.706  1.00  0.00     0.085 C 
HETATM   18  N1  UNL     1      26.095   6.990  49.413  1.00  0.00    -0.376 N 
HETATM   19  H9  UNL     1      25.295   7.553  49.832  1.00  0.00     0.161 HD
ENDBRANCH  10  11
ENDBRANCH   1   9
BRANCH   6  20
HETATM   20  C13 UNL     1      23.888   1.115  51.977  1.00  0.00     0.122 C 
BRANCH  20  21
HETATM   21  C14 UNL     1      24.775   2.015  52.784  1.00  0.00     0.055 C 
BRANCH  21  22
HETATM   22  C15 UNL     1      26.189   1.620  52.937  1.00  0.00     0.225 C 
HETATM   23  N5  UNL     1      26.857   2.621  53.759  1.00  0.00     0.088 N 
HETATM   24  C16 UNL     1      28.226   2.279  54.032  1.00  0.00     0.270 C 
HETATM   25  H19 UNL     1      26.679   3.580  53.456  1.00  0.00     0.316 HD
HETATM   26  C17 UNL     1      28.740   1.156  53.176  1.00  0.00     0.030 C 
HETATM   27  C18 UNL     1      27.891  -0.068  53.143  1.00  0.00     0.008 C 
HETATM   28  C19 UNL     1      26.443   0.232  53.468  1.00  0.00     0.015 C 
HETATM   29  C20 UNL     1      26.285   0.150  54.966  1.00  0.00     0.012 C 
ENDBRANCH  21  22
ENDBRANCH  20  21
ENDBRANCH   6  20
TORSDOF 5
ENDMDL
MODEL 4
REMARK VINA RESULT:      -7.9      2.149      6.308
REMARK  5 active torsions:
REMARK  status: ('A' for Active; 'I' for Inactive)
REMARK    1  A    between atoms: C7_8  and  N2_9 
REMARK    2  A    between atoms: C8_10  and  N3_11 
REMARK    3  A    between atoms: N4_16  and  C13_17 
REMARK    4  A    between atoms: C13_17  and  C14_18 
REMARK    5  A    between atoms: C14_18  and  C15_19 
ROOT
HETATM    1  N3  UNL     1      27.174   1.753  52.179  1.00  0.00    -0.245 NA
HETATM    2  C9  UNL     1      26.830   0.711  52.849  1.00  0.00     0.081 A 
HETATM    3  C10 UNL     1      26.735  -0.275  53.830  1.00  0.00     0.148 A 
HETATM    4  C11 UNL     1      27.139  -1.198  53.036  1.00  0.00     0.025 A 
HETATM    5  C12 UNL     1      25.890  -0.462  52.751  1.00  0.00     0.169 A 
HETATM    6  N4  UNL     1      24.818  -0.527  53.612  1.00  0.00    -0.378 N 
HETATM    7  C21 UNL     1      24.954  -0.947  54.955  1.00  0.00     0.290 C 
HETATM    8  O1  UNL     1      26.379  -0.519  55.194  1.00  0.00    -0.349 OA
ENDROOT
BRANCH   1   9
HETATM    9  C8  UNL     1      26.567   2.056  50.922  1.00  0.00     0.229 C 
HETATM   10  N2  UNL     1      26.865   3.317  50.837  1.00  0.00    -0.257 NA
BRANCH  10  11
HETATM   11  C7  UNL     1      26.455   4.109  49.695  1.00  0.00     0.213 C 
HETATM   12  C2  UNL     1      25.299   4.967  50.086  1.00  0.00     0.048 C 
HETATM   13  C1  UNL     1      24.132   4.079  50.524  1.00  0.00     0.018 C 
HETATM   14  C3  UNL     1      24.882   5.978  49.121  1.00  0.00    -0.019 C 
HETATM   15  C4  UNL     1      25.419   6.787  48.223  1.00  0.00    -0.002 C 
HETATM   16  C5  UNL     1      26.877   6.801  47.999  1.00  0.00     0.016 C 
HETATM   17  C6  UNL     1      27.838   5.949  48.331  1.00  0.00     0.085 C 
HETATM   18  N1  UNL     1      27.539   4.753  49.044  1.00  0.00    -0.376 N 
HETATM   19  H9  UNL     1      28.388   4.118  49.129  1.00  0.00     0.161 HD
ENDBRANCH  10  11
ENDBRANCH   1   9
BRANCH   6  20
HETATM   20  C13 UNL     1      23.510  -0.380  53.077  1.00  0.00     0.122 C 
BRANCH  20  21
HETATM   21  C14 UNL     1      22.990   1.026  53.068  1.00  0.00     0.055 C 
BRANCH  21  22
HETATM   22  C15 UNL     1      21.622   1.243  52.559  1.00  0.00     0.225 C 
HETATM   23  N5  UNL     1      21.426   2.675  52.369  1.00  0.00     0.088 N 
HETATM   24  C16 UNL     1      20.143   2.980  51.797  1.00  0.00     0.270 C 
HETATM   25  H19 UNL     1      21.709   3.233  53.175  1.00  0.00     0.316 HD
HETATM   26  C17 UNL     1      19.194   1.815  51.811  1.00  0.00     0.030 C 
HETATM   27  C18 UNL     1      19.728   0.543  51.250  1.00  0.00     0.008 C 
HETATM   28  C19 UNL     1      21.240   0.478  51.318  1.00  0.00     0.015 C 
HETATM   29  C20 UNL     1      21.780   1.114  50.060  1.00  0.00     0.012 C 
ENDBRANCH  21  22
ENDBRANCH  20  21
ENDBRANCH   6  20
TORSDOF 5
ENDMDL
MODEL 5
REMARK VINA RESULT:      -7.9      2.439      5.108
REMARK  5 active torsions:
REMARK  status: ('A' for Active; 'I' for Inactive)
REMARK    1  A    between atoms: C7_8  and  N2_9 
REMARK    2  A    between atoms: C8_10  and  N3_11 
REMARK    3  A    between atoms: N4_16  and  C13_17 
REMARK    4  A    between atoms: C13_17  and  C14_18 
REMARK    5  A    between atoms: C14_18  and  C15_19 
ROOT
HETATM    1  N3  UNL     1      26.988   3.839  49.433  1.00  0.00    -0.245 NA
HETATM    2  C9  UNL     1      26.165   4.820  49.312  1.00  0.00     0.081 A 
HETATM    3  C10 UNL     1      25.595   6.056  49.012  1.00  0.00     0.148 A 
HETATM    4  C11 UNL     1      25.400   6.342  50.247  1.00  0.00     0.025 A 
HETATM    5  C12 UNL     1      24.737   5.170  49.638  1.00  0.00     0.169 A 
HETATM    6  N4  UNL     1      23.838   5.322  48.606  1.00  0.00    -0.378 N 
HETATM    7  C21 UNL     1      23.783   6.496  47.821  1.00  0.00     0.290 C 
HETATM    8  O1  UNL     1      25.223   6.928  47.941  1.00  0.00    -0.349 OA
ENDROOT
BRANCH   1   9
HETATM    9  C8  UNL     1      26.588   2.609  50.038  1.00  0.00     0.229 C 
HETATM   10  N2  UNL     1      26.799   2.904  51.285  1.00  0.00    -0.257 NA
BRANCH  10  11
HETATM   11  C7  UNL     1      26.535   1.944  52.338  1.00  0.00     0.213 C 
HETATM   12  C2  UNL     1      25.061   1.822  52.528  1.00  0.00     0.048 C 
HETATM   13  C1  UNL     1      24.485   3.180  52.933  1.00  0.00     0.018 C 
HETATM   14  C3  UNL     1      24.604   0.752  53.409  1.00  0.00    -0.019 C 
HETATM   15  C4  UNL     1      24.938  -0.484  53.740  1.00  0.00    -0.002 C 
HETATM   16  C5  UNL     1      26.109  -1.138  53.123  1.00  0.00     0.016 C 
HETATM   17  C6  UNL     1      27.141  -0.659  52.443  1.00  0.00     0.085 C 
HETATM   18  N1  UNL     1      27.264   0.737  52.189  1.00  0.00    -0.376 N 
HETATM   19  H9  UNL     1      28.200   0.979  51.744  1.00  0.00     0.161 HD
ENDBRANCH  10  11
ENDBRANCH   1   9
BRANCH   6  20
HETATM   20  C13 UNL     1      22.796   4.367  48.470  1.00  0.00     0.122 C 
BRANCH  20  21
HETATM   21  C14 UNL     1      23.168   2.971  48.871  1.00  0.00     0.055 C 
BRANCH  21  22
HETATM   22  C15 UNL     1      22.465   2.384  50.028  1.00  0.00     0.225 C 
HETATM   23  N5  UNL     1      21.598   3.405  50.604  1.00  0.00     0.088 N 
HETATM   24  C16 UNL     1      20.808   2.900  51.693  1.00  0.00     0.270 C 
HETATM   25  H19 UNL     1      22.070   4.297  50.759  1.00  0.00     0.316 HD
HETATM   26  C17 UNL     1      21.264   1.555  52.185  1.00  0.00     0.030 C 
HETATM   27  C18 UNL     1      21.436   0.512  51.136  1.00  0.00     0.008 C 
HETATM   28  C19 UNL     1      21.698   1.112  49.770  1.00  0.00     0.015 C 
HETATM   29  C20 UNL     1      20.361   1.366  49.120  1.00  0.00     0.012 C 
ENDBRANCH  21  22
ENDBRANCH  20  21
ENDBRANCH   6  20
TORSDOF 5
ENDMDL
MODEL 6
REMARK VINA RESULT:      -7.8      3.053      4.866
REMARK  5 active torsions:
REMARK  status: ('A' for Active; 'I' for Inactive)
REMARK    1  A    between atoms: C7_8  and  N2_9 
REMARK    2  A    between atoms: C8_10  and  N3_11 
REMARK    3  A    between atoms: N4_16  and  C13_17 
REMARK    4  A    between atoms: C13_17  and  C14_18 
REMARK    5  A    between atoms: C14_18  and  C15_19 
ROOT
HETATM    1  N3  UNL     1      23.554   3.737  52.465  1.00  0.00    -0.245 NA
HETATM    2  C9  UNL     1      23.174   4.628  51.619  1.00  0.00     0.081 A 
HETATM    3  C10 UNL     1      22.425   5.576  50.923  1.00  0.00     0.148 A 
HETATM    4  C11 UNL     1      22.417   4.877  49.847  1.00  0.00     0.025 A 
HETATM    5  C12 UNL     1      23.693   5.364  50.412  1.00  0.00     0.169 A 
HETATM    6  N4  UNL     1      23.952   6.712  50.516  1.00  0.00    -0.378 N 
HETATM    7  C21 UNL     1      22.926   7.683  50.473  1.00  0.00     0.290 C 
HETATM    8  O1  UNL     1      21.795   6.856  51.028  1.00  0.00    -0.349 OA
ENDROOT
BRANCH   1   9
HETATM    9  C8  UNL     1      24.857   3.157  52.391  1.00  0.00     0.229 C 
HETATM   10  N2  UNL     1      24.853   2.475  53.496  1.00  0.00    -0.257 NA
BRANCH  10  11
HETATM   11  C7  UNL     1      25.998   1.680  53.892  1.00  0.00     0.213 C 
HETATM   12  C2  UNL     1      25.994   0.403  53.121  1.00  0.00     0.048 C 
HETATM   13  C1  UNL     1      24.714  -0.375  53.430  1.00  0.00     0.018 C 
HETATM   14  C3  UNL     1      27.183  -0.434  53.243  1.00  0.00    -0.019 C 
HETATM   15  C4  UNL     1      28.492  -0.301  53.379  1.00  0.00    -0.002 C 
HETATM   16  C5  UNL     1      29.110   1.037  53.445  1.00  0.00     0.016 C 
HETATM   17  C6  UNL     1      28.603   2.242  53.671  1.00  0.00     0.085 C 
HETATM   18  N1  UNL     1      27.210   2.416  53.907  1.00  0.00    -0.376 N 
HETATM   19  H9  UNL     1      26.977   3.414  54.192  1.00  0.00     0.161 HD
ENDBRANCH  10  11
ENDBRANCH   1   9
BRANCH   6  20
HETATM   20  C13 UNL     1      25.302   7.149  50.443  1.00  0.00     0.122 C 
BRANCH  20  21
HETATM   21  C14 UNL     1      26.109   6.510  49.353  1.00  0.00     0.055 C 
BRANCH  21  22
HETATM   22  C15 UNL     1      27.096   7.355  48.652  1.00  0.00     0.225 C 
HETATM   23  N5  UNL     1      27.870   8.082  49.651  1.00  0.00     0.088 N 
HETATM   24  C16 UNL     1      28.915   8.874  49.063  1.00  0.00     0.270 C 
HETATM   25  H19 UNL     1      27.291   8.542  50.355  1.00  0.00     0.316 HD
HETATM   26  C17 UNL     1      28.785   9.018  47.573  1.00  0.00     0.030 C 
HETATM   27  C18 UNL     1      28.604   7.747  46.818  1.00  0.00     0.008 C 
HETATM   28  C19 UNL     1      28.005   6.652  47.676  1.00  0.00     0.015 C 
HETATM   29  C20 UNL     1      29.143   5.937  48.361  1.00  0.00     0.012 C 
ENDBRANCH  21  22
ENDBRANCH  20  21
ENDBRANCH   6  20
TORSDOF 5
ENDMDL
MODEL 7
REMARK VINA RESULT:      -7.8      2.445      6.270
REMARK  5 active torsions:
REMARK  status: ('A' for Active; 'I' for Inactive)
REMARK    1  A    between atoms: C7_8  and  N2_9 
REMARK    2  A    between atoms: C8_10  and  N3_11 
REMARK    3  A    between atoms: N4_16  and  C13_17 
REMARK    4  A    between atoms: C13_17  and  C14_18 
REMARK    5  A    between atoms: C14_18  and  C15_19 
ROOT
HETATM    1  N3  UNL     1      23.213  -1.191  54.748  1.00  0.00    -0.245 NA
HETATM    2  C9  UNL     1      24.396  -0.821  54.405  1.00  0.00     0.081 A 
HETATM    3  C10 UNL     1      25.763  -0.801  54.134  1.00  0.00     0.148 A 
HETATM    4  C11 UNL     1      25.998   0.077  55.040  1.00  0.00     0.025 A 
HETATM    5  C12 UNL     1      25.118   0.400  53.897  1.00  0.00     0.169 A 
HETATM    6  N4  UNL     1      25.602   0.397  52.609  1.00  0.00    -0.378 N 
HETATM    7  C21 UNL     1      26.798  -0.267  52.253  1.00  0.00     0.290 C 
HETATM    8  O1  UNL     1      26.785  -1.353  53.299  1.00  0.00    -0.349 OA
ENDROOT
BRANCH   1   9
HETATM    9  C8  UNL     1      22.109  -0.288  54.683  1.00  0.00     0.229 C 
HETATM   10  N2  UNL     1      21.438  -0.838  53.716  1.00  0.00    -0.257 NA
BRANCH  10  11
HETATM   11  C7  UNL     1      20.186  -0.272  53.255  1.00  0.00     0.213 C 
HETATM   12  C2  UNL     1      20.270  -0.038  51.784  1.00  0.00     0.048 C 
HETATM   13  C1  UNL     1      21.403   0.948  51.489  1.00  0.00     0.018 C 
HETATM   14  C3  UNL     1      19.031   0.341  51.113  1.00  0.00    -0.019 C 
HETATM   15  C4  UNL     1      17.735   0.091  51.189  1.00  0.00    -0.002 C 
HETATM   16  C5  UNL     1      17.205  -0.834  52.209  1.00  0.00     0.016 C 
HETATM   17  C6  UNL     1      17.729  -1.325  53.324  1.00  0.00     0.085 C 
HETATM   18  N1  UNL     1      19.048  -0.974  53.727  1.00  0.00    -0.376 N 
HETATM   19  H9  UNL     1      19.280  -1.347  54.697  1.00  0.00     0.161 HD
ENDBRANCH  10  11
ENDBRANCH   1   9
BRANCH   6  20
HETATM   20  C13 UNL     1      25.002   1.266  51.659  1.00  0.00     0.122 C 
BRANCH  20  21
HETATM   21  C14 UNL     1      24.749   2.658  52.154  1.00  0.00     0.055 C 
BRANCH  21  22
HETATM   22  C15 UNL     1      24.252   3.649  51.180  1.00  0.00     0.225 C 
HETATM   23  N5  UNL     1      24.562   4.982  51.682  1.00  0.00     0.088 N 
HETATM   24  C16 UNL     1      24.185   6.016  50.758  1.00  0.00     0.270 C 
HETATM   25  H19 UNL     1      24.290   5.121  52.657  1.00  0.00     0.316 HD
HETATM   26  C17 UNL     1      23.298   5.527  49.648  1.00  0.00     0.030 C 
HETATM   27  C18 UNL     1      23.786   4.324  48.917  1.00  0.00     0.008 C 
HETATM   28  C19 UNL     1      24.727   3.487  49.758  1.00  0.00     0.015 C 
HETATM   29  C20 UNL     1      26.122   4.024  49.552  1.00  0.00     0.012 C 
ENDBRANCH  21  22
ENDBRANCH  20  21
ENDBRANCH   6  20
TORSDOF 5
ENDMDL
MODEL 8
REMARK VINA RESULT:      -7.8      1.984      4.585
REMARK  5 active torsions:
REMARK  status: ('A' for Active; 'I' for Inactive)
REMARK    1  A    between atoms: C7_8  and  N2_9 
REMARK    2  A    between atoms: C8_10  and  N3_11 
REMARK    3  A    between atoms: N4_16  and  C13_17 
REMARK    4  A    between atoms: C13_17  and  C14_18 
REMARK    5  A    between atoms: C14_18  and  C15_19 
ROOT
HETATM    1  N3  UNL     1      24.605   2.705  50.137  1.00  0.00    -0.245 NA
HETATM    2  C9  UNL     1      23.508   3.308  49.842  1.00  0.00     0.081 A 
HETATM    3  C10 UNL     1      22.374   3.766  49.173  1.00  0.00     0.148 A 
HETATM    4  C11 UNL     1      22.775   4.985  49.188  1.00  0.00     0.025 A 
HETATM    5  C12 UNL     1      22.521   4.266  50.454  1.00  0.00     0.169 A 
HETATM    6  N4  UNL     1      21.261   3.810  50.768  1.00  0.00    -0.378 N 
HETATM    7  C21 UNL     1      20.254   3.642  49.791  1.00  0.00     0.290 C 
HETATM    8  O1  UNL     1      21.130   3.361  48.596  1.00  0.00    -0.349 OA
ENDROOT
BRANCH   1   9
HETATM    9  C8  UNL     1      25.220   2.876  51.415  1.00  0.00     0.229 C 
HETATM   10  N2  UNL     1      25.752   1.700  51.557  1.00  0.00    -0.257 NA
BRANCH  10  11
HETATM   11  C7  UNL     1      26.515   1.359  52.741  1.00  0.00     0.213 C 
HETATM   12  C2  UNL     1      27.051  -0.026  52.593  1.00  0.00     0.048 C 
HETATM   13  C1  UNL     1      25.888  -1.009  52.448  1.00  0.00     0.018 C 
HETATM   14  C3  UNL     1      28.011  -0.463  53.601  1.00  0.00    -0.019 C 
HETATM   15  C4  UNL     1      28.988   0.038  54.337  1.00  0.00    -0.002 C 
HETATM   16  C5  UNL     1      29.354   1.464  54.233  1.00  0.00     0.016 C 
HETATM   17  C6  UNL     1      28.723   2.510  53.717  1.00  0.00     0.085 C 
HETATM   18  N1  UNL     1      27.439   2.366  53.118  1.00  0.00    -0.376 N 
HETATM   19  H9  UNL     1      27.012   3.307  52.864  1.00  0.00     0.161 HD
ENDBRANCH  10  11
ENDBRANCH   1   9
BRANCH   6  20
HETATM   20  C13 UNL     1      20.897   3.717  52.138  1.00  0.00     0.122 C 
BRANCH  20  21
HETATM   21  C14 UNL     1      20.065   2.519  52.486  1.00  0.00     0.055 C 
BRANCH  21  22
HETATM   22  C15 UNL     1      20.740   1.395  53.163  1.00  0.00     0.225 C 
HETATM   23  N5  UNL     1      19.835   0.252  53.166  1.00  0.00     0.088 N 
HETATM   24  C16 UNL     1      20.438  -0.922  53.735  1.00  0.00     0.270 C 
HETATM   25  H19 UNL     1      18.893   0.481  53.487  1.00  0.00     0.316 HD
HETATM   26  C17 UNL     1      21.721  -0.637  54.465  1.00  0.00     0.030 C 
HETATM   27  C18 UNL     1      22.729   0.154  53.706  1.00  0.00     0.008 C 
HETATM   28  C19 UNL     1      22.094   1.006  52.627  1.00  0.00     0.015 C 
HETATM   29  C20 UNL     1      22.000   0.164  51.378  1.00  0.00     0.012 C 
ENDBRANCH  21  22
ENDBRANCH  20  21
ENDBRANCH   6  20
TORSDOF 5
ENDMDL
MODEL 9
REMARK VINA RESULT:      -7.7      2.497      4.222
REMARK  5 active torsions:
REMARK  status: ('A' for Active; 'I' for Inactive)
REMARK    1  A    between atoms: C7_8  and  N2_9 
REMARK    2  A    between atoms: C8_10  and  N3_11 
REMARK    3  A    between atoms: N4_16  and  C13_17 
REMARK    4  A    between atoms: C13_17  and  C14_18 
REMARK    5  A    between atoms: C14_18  and  C15_19 
ROOT
HETATM    1  N3  UNL     1      23.228   2.378  52.033  1.00  0.00    -0.245 NA
HETATM    2  C9  UNL     1      23.030   3.024  50.939  1.00  0.00     0.081 A 
HETATM    3  C10 UNL     1      22.525   3.449  49.711  1.00  0.00     0.148 A 
HETATM    4  C11 UNL     1      23.621   3.193  49.095  1.00  0.00     0.025 A 
HETATM    5  C12 UNL     1      23.589   4.198  50.178  1.00  0.00     0.169 A 
HETATM    6  N4  UNL     1      22.827   5.338  50.063  1.00  0.00    -0.378 N 
HETATM    7  C21 UNL     1      21.764   5.445  49.138  1.00  0.00     0.290 C 
HETATM    8  O1  UNL     1      21.372   3.991  49.060  1.00  0.00    -0.349 OA
ENDROOT
BRANCH   1   9
HETATM    9  C8  UNL     1      24.261   2.763  52.941  1.00  0.00     0.229 C 
HETATM   10  N2  UNL     1      24.876   1.626  53.062  1.00  0.00    -0.257 NA
BRANCH  10  11
HETATM   11  C7  UNL     1      26.042   1.490  53.912  1.00  0.00     0.213 C 
HETATM   12  C2  UNL     1      26.462   0.059  53.939  1.00  0.00     0.048 C 
HETATM   13  C1  UNL     1      25.326  -0.795  54.507  1.00  0.00     0.018 C 
HETATM   14  C3  UNL     1      27.738  -0.233  54.583  1.00  0.00    -0.019 C 
HETATM   15  C4  UNL     1      28.931   0.315  54.736  1.00  0.00    -0.002 C 
HETATM   16  C5  UNL     1      29.241   1.626  54.133  1.00  0.00     0.016 C 
HETATM   17  C6  UNL     1      28.467   2.585  53.642  1.00  0.00     0.085 C 
HETATM   18  N1  UNL     1      27.050   2.449  53.635  1.00  0.00    -0.376 N 
HETATM   19  H9  UNL     1      26.566   3.345  53.327  1.00  0.00     0.161 HD
ENDBRANCH  10  11
ENDBRANCH   1   9
BRANCH   6  20
HETATM   20  C13 UNL     1      23.261   6.512  50.735  1.00  0.00     0.122 C 
BRANCH  20  21
HETATM   21  C14 UNL     1      24.749   6.655  50.852  1.00  0.00     0.055 C 
BRANCH  21  22
HETATM   22  C15 UNL     1      25.420   7.583  49.921  1.00  0.00     0.225 C 
HETATM   23  N5  UNL     1      26.653   8.047  50.545  1.00  0.00     0.088 N 
HETATM   24  C16 UNL     1      27.420   8.897  49.677  1.00  0.00     0.270 C 
HETATM   25  H19 UNL     1      26.524   8.373  51.504  1.00  0.00     0.316 HD
HETATM   26  C17 UNL     1      26.654   9.359  48.469  1.00  0.00     0.030 C 
HETATM   27  C18 UNL     1      25.978   8.285  47.688  1.00  0.00     0.008 C 
HETATM   28  C19 UNL     1      25.685   7.062  48.531  1.00  0.00     0.015 C 
HETATM   29  C20 UNL     1      26.898   6.167  48.473  1.00  0.00     0.012 C 
ENDBRANCH  21  22
ENDBRANCH  20  21
ENDBRANCH   6  20
TORSDOF 5
ENDMDL
