MODEL 1
REMARK VINA RESULT:      -7.7      0.000      0.000
REMARK  2 active torsions:
REMARK  status: ('A' for Active; 'I' for Inactive)
REMARK    1  A    between atoms: C3_3  and  C4_4 
REMARK    2  A    between atoms: C9_12  and  N4_13 
ROOT
HETATM    1  C4  UNL     1      26.089  -0.471  52.754  1.00  0.00     0.050 C 
HETATM    2  C5  UNL     1      26.021   0.840  52.079  1.00  0.00     0.130 C 
HETATM    3  N1  UNL     1      24.732   1.332  51.725  1.00  0.00    -0.383 N 
HETATM    4  C6  UNL     1      23.491   1.079  52.387  1.00  0.00     0.128 A 
HETATM    5  C7  UNL     1      23.193   0.151  53.392  1.00  0.00     0.196 A 
HETATM    6  N2  UNL     1      21.926   0.081  53.884  1.00  0.00    -0.216 NA
HETATM    7  C8  UNL     1      20.997   0.927  53.371  1.00  0.00     0.238 A 
HETATM    8  N3  UNL     1      21.260   1.830  52.401  1.00  0.00    -0.221 NA
HETATM    9  C9  UNL     1      22.514   1.927  51.888  1.00  0.00     0.166 A 
HETATM   10  O1  UNL     1      24.021  -0.774  54.018  1.00  0.00    -0.332 OA
HETATM   11  C15 UNL     1      25.430  -0.613  54.068  1.00  0.00     0.187 C 
HETATM   12  H9  UNL     1      24.694   1.953  50.875  1.00  0.00     0.160 HD
ENDROOT
BRANCH   9  13
HETATM   13  N4  UNL     1      22.849   2.857  50.868  1.00  0.00    -0.315 N 
HETATM   14  C10 UNL     1      22.774   2.556  49.468  1.00  0.00     0.094 A 
HETATM   15  C11 UNL     1      23.120   3.532  48.643  1.00  0.00    -0.004 A 
HETATM   16  C12 UNL     1      23.568   4.881  48.990  1.00  0.00     0.076 A 
HETATM   17  C13 UNL     1      23.602   5.065  50.474  1.00  0.00     0.008 A 
HETATM   18 BR1  UNL     1      24.178   6.804  51.020  1.00  0.00    -0.054 Br
HETATM   19  C14 UNL     1      23.266   4.120  51.340  1.00  0.00     0.113 A 
ENDBRANCH   9  13
BRANCH   1  20
HETATM   20  C3  UNL     1      27.523  -0.831  52.966  1.00  0.00    -0.023 C 
HETATM   21  C2  UNL     1      28.633  -0.531  53.633  1.00  0.00    -0.034 C 
HETATM   22  C1  UNL     1      30.027  -1.053  53.689  1.00  0.00     0.036 C 
ENDBRANCH   1  20
TORSDOF 2
ENDMDL
MODEL 2
REMARK VINA RESULT:      -7.3      1.521      1.869
REMARK  2 active torsions:
REMARK  status: ('A' for Active; 'I' for Inactive)
REMARK    1  A    between atoms: C3_3  and  C4_4 
REMARK    2  A    between atoms: C9_12  and  N4_13 
ROOT
HETATM    1  C4  UNL     1      25.845  -0.576  53.178  1.00  0.00     0.050 C 
HETATM    2  C5  UNL     1      25.646   0.750  52.560  1.00  0.00     0.130 C 
HETATM    3  N1  UNL     1      24.309   1.154  52.288  1.00  0.00    -0.383 N 
HETATM    4  C6  UNL     1      23.124   0.784  52.997  1.00  0.00     0.128 A 
HETATM    5  C7  UNL     1      22.947  -0.200  53.977  1.00  0.00     0.196 A 
HETATM    6  N2  UNL     1      21.715  -0.383  54.526  1.00  0.00    -0.216 NA
HETATM    7  C8  UNL     1      20.702   0.407  54.092  1.00  0.00     0.238 A 
HETATM    8  N3  UNL     1      20.848   1.363  53.148  1.00  0.00    -0.221 NA
HETATM    9  C9  UNL     1      22.064   1.573  52.580  1.00  0.00     0.166 A 
HETATM   10  O1  UNL     1      23.872  -1.082  54.526  1.00  0.00    -0.332 OA
HETATM   11  C15 UNL     1      25.266  -0.816  54.515  1.00  0.00     0.187 C 
HETATM   12  H9  UNL     1      24.182   1.802  51.466  1.00  0.00     0.160 HD
ENDROOT
BRANCH   9  13
HETATM   13  N4  UNL     1      22.277   2.563  51.583  1.00  0.00    -0.315 N 
HETATM   14  C10 UNL     1      22.581   3.932  51.881  1.00  0.00     0.094 A 
HETATM   15  C11 UNL     1      22.752   4.730  50.839  1.00  0.00    -0.004 A 
HETATM   16  C12 UNL     1      22.666   4.383  49.421  1.00  0.00     0.076 A 
HETATM   17  C13 UNL     1      22.344   2.932  49.247  1.00  0.00     0.008 A 
HETATM   18 BR1  UNL     1      22.213   2.387  47.420  1.00  0.00    -0.054 Br
HETATM   19  C14 UNL     1      22.165   2.093  50.257  1.00  0.00     0.113 A 
ENDBRANCH   9  13
BRANCH   1  20
HETATM   20  C3  UNL     1      27.311  -0.834  53.307  1.00  0.00    -0.023 C 
HETATM   21  C2  UNL     1      28.503  -0.273  53.488  1.00  0.00    -0.034 C 
HETATM   22  C1  UNL     1      29.910  -0.751  53.589  1.00  0.00     0.036 C 
ENDBRANCH   1  20
TORSDOF 2
ENDMDL
MODEL 3
REMARK VINA RESULT:      -6.9      3.052      4.777
REMARK  2 active torsions:
REMARK  status: ('A' for Active; 'I' for Inactive)
REMARK    1  A    between atoms: C3_3  and  C4_4 
REMARK    2  A    between atoms: C9_12  and  N4_13 
ROOT
HETATM    1  C4  UNL     1      25.961   2.866  50.098  1.00  0.00     0.050 C 
HETATM    2  C5  UNL     1      24.622   3.421  50.376  1.00  0.00     0.130 C 
HETATM    3  N1  UNL     1      23.677   2.569  51.015  1.00  0.00    -0.383 N 
HETATM    4  C6  UNL     1      23.943   1.502  51.928  1.00  0.00     0.128 A 
HETATM    5  C7  UNL     1      25.163   0.900  52.260  1.00  0.00     0.196 A 
HETATM    6  N2  UNL     1      25.184  -0.114  53.168  1.00  0.00    -0.216 NA
HETATM    7  C8  UNL     1      24.005  -0.500  53.717  1.00  0.00     0.238 A 
HETATM    8  N3  UNL     1      22.816   0.065  53.413  1.00  0.00    -0.221 NA
HETATM    9  C9  UNL     1      22.759   1.079  52.511  1.00  0.00     0.166 A 
HETATM   10  O1  UNL     1      26.444   1.176  51.794  1.00  0.00    -0.332 OA
HETATM   11  C15 UNL     1      26.790   2.437  51.242  1.00  0.00     0.187 C 
HETATM   12  H9  UNL     1      22.665   2.749  50.785  1.00  0.00     0.160 HD
ENDROOT
BRANCH   9  13
HETATM   13  N4  UNL     1      21.537   1.710  52.153  1.00  0.00    -0.315 N 
HETATM   14  C10 UNL     1      21.288   3.111  52.335  1.00  0.00     0.094 A 
HETATM   15  C11 UNL     1      20.098   3.545  51.949  1.00  0.00    -0.004 A 
HETATM   16  C12 UNL     1      19.008   2.766  51.360  1.00  0.00     0.076 A 
HETATM   17  C13 UNL     1      19.395   1.327  51.225  1.00  0.00     0.008 A 
HETATM   18 BR1  UNL     1      18.027   0.233  50.462  1.00  0.00    -0.054 Br
HETATM   19  C14 UNL     1      20.572   0.845  51.596  1.00  0.00     0.113 A 
ENDBRANCH   9  13
BRANCH   1  20
HETATM   20  C3  UNL     1      26.764   3.889  49.363  1.00  0.00    -0.023 C 
HETATM   21  C2  UNL     1      26.816   5.161  48.977  1.00  0.00    -0.034 C 
HETATM   22  C1  UNL     1      27.766   6.011  48.208  1.00  0.00     0.036 C 
ENDBRANCH   1  20
TORSDOF 2
ENDMDL
MODEL 4
REMARK VINA RESULT:      -6.9      2.107      4.873
REMARK  2 active torsions:
REMARK  status: ('A' for Active; 'I' for Inactive)
REMARK    1  A    between atoms: C3_3  and  C4_4 
REMARK    2  A    between atoms: C9_12  and  N4_13 
ROOT
HETATM    1  C4  UNL     1      21.642  -0.248  53.774  1.00  0.00     0.050 C 
HETATM    2  C5  UNL     1      22.132   0.441  52.564  1.00  0.00     0.130 C 
HETATM    3  N1  UNL     1      23.430   1.023  52.620  1.00  0.00    -0.383 N 
HETATM    4  C6  UNL     1      24.547   0.591  53.401  1.00  0.00     0.128 A 
HETATM    5  C7  UNL     1      24.597  -0.354  54.432  1.00  0.00     0.196 A 
HETATM    6  N2  UNL     1      25.784  -0.613  55.045  1.00  0.00    -0.216 NA
HETATM    7  C8  UNL     1      26.880   0.065  54.622  1.00  0.00     0.238 A 
HETATM    8  N3  UNL     1      26.857   0.981  53.629  1.00  0.00    -0.221 NA
HETATM    9  C9  UNL     1      25.689   1.264  52.995  1.00  0.00     0.166 A 
HETATM   10  O1  UNL     1      23.577  -1.126  54.977  1.00  0.00    -0.332 OA
HETATM   11  C15 UNL     1      22.391  -1.425  54.258  1.00  0.00     0.187 C 
HETATM   12  H9  UNL     1      23.581   1.873  52.015  1.00  0.00     0.160 HD
ENDROOT
BRANCH   9  13
HETATM   13  N4  UNL     1      25.605   2.217  51.945  1.00  0.00    -0.315 N 
HETATM   14  C10 UNL     1      26.441   2.186  50.780  1.00  0.00     0.094 A 
HETATM   15  C11 UNL     1      26.238   3.146  49.892  1.00  0.00    -0.004 A 
HETATM   16  C12 UNL     1      25.263   4.235  49.958  1.00  0.00     0.076 A 
HETATM   17  C13 UNL     1      24.458   4.154  51.216  1.00  0.00     0.008 A 
HETATM   18 BR1  UNL     1      23.156   5.542  51.386  1.00  0.00    -0.054 Br
HETATM   19  C14 UNL     1      24.623   3.214  52.135  1.00  0.00     0.113 A 
ENDBRANCH   9  13
BRANCH   1  20
HETATM   20  C3  UNL     1      20.244  -0.715  53.530  1.00  0.00    -0.023 C 
HETATM   21  C2  UNL     1      19.116  -0.475  52.868  1.00  0.00    -0.034 C 
HETATM   22  C1  UNL     1      17.771  -1.108  52.772  1.00  0.00     0.036 C 
ENDBRANCH   1  20
TORSDOF 2
ENDMDL
MODEL 5
REMARK VINA RESULT:      -6.8      3.030      5.927
REMARK  2 active torsions:
REMARK  status: ('A' for Active; 'I' for Inactive)
REMARK    1  A    between atoms: C3_3  and  C4_4 
REMARK    2  A    between atoms: C9_12  and  N4_13 
ROOT
HETATM    1  C4  UNL     1      25.706   4.551  49.911  1.00  0.00     0.050 C 
HETATM    2  C5  UNL     1      26.597   3.405  50.180  1.00  0.00     0.130 C 
HETATM    3  N1  UNL     1      26.169   2.453  51.149  1.00  0.00    -0.383 N 
HETATM    4  C6  UNL     1      24.827   2.095  51.485  1.00  0.00     0.128 A 
HETATM    5  C7  UNL     1      23.625   2.709  51.117  1.00  0.00     0.196 A 
HETATM    6  N2  UNL     1      22.445   2.191  51.557  1.00  0.00    -0.216 NA
HETATM    7  C8  UNL     1      22.491   1.087  52.344  1.00  0.00     0.238 A 
HETATM    8  N3  UNL     1      23.638   0.477  52.713  1.00  0.00    -0.221 NA
HETATM    9  C9  UNL     1      24.833   0.967  52.291  1.00  0.00     0.166 A 
HETATM   10  O1  UNL     1      23.409   3.832  50.325  1.00  0.00    -0.332 OA
HETATM   11  C15 UNL     1      24.360   4.275  49.370  1.00  0.00     0.187 C 
HETATM   12  H9  UNL     1      26.935   1.958  51.678  1.00  0.00     0.160 HD
ENDROOT
BRANCH   9  13
HETATM   13  N4  UNL     1      26.070   0.366  52.648  1.00  0.00    -0.315 N 
HETATM   14  C10 UNL     1      26.400  -0.998  52.355  1.00  0.00     0.094 A 
HETATM   15  C11 UNL     1      27.594  -1.406  52.754  1.00  0.00    -0.004 A 
HETATM   16  C12 UNL     1      28.617  -0.632  53.457  1.00  0.00     0.076 A 
HETATM   17  C13 UNL     1      28.150   0.768  53.701  1.00  0.00     0.008 A 
HETATM   18 BR1  UNL     1      29.426   1.856  54.618  1.00  0.00    -0.054 Br
HETATM   19  C14 UNL     1      26.965   1.224  53.322  1.00  0.00     0.113 A 
ENDBRANCH   9  13
BRANCH   1  20
HETATM   20  C3  UNL     1      26.372   5.460  48.930  1.00  0.00    -0.023 C 
HETATM   21  C2  UNL     1      27.527   6.008  48.564  1.00  0.00    -0.034 C 
HETATM   22  C1  UNL     1      27.983   6.938  47.494  1.00  0.00     0.036 C 
ENDBRANCH   1  20
TORSDOF 2
ENDMDL
MODEL 6
REMARK VINA RESULT:      -6.7      1.847      4.593
REMARK  2 active torsions:
REMARK  status: ('A' for Active; 'I' for Inactive)
REMARK    1  A    between atoms: C3_3  and  C4_4 
REMARK    2  A    between atoms: C9_12  and  N4_13 
ROOT
HETATM    1  C4  UNL     1      21.624   0.210  53.123  1.00  0.00     0.050 C 
HETATM    2  C5  UNL     1      21.522   1.053  51.915  1.00  0.00     0.130 C 
HETATM    3  N1  UNL     1      22.651   1.849  51.572  1.00  0.00    -0.383 N 
HETATM    4  C6  UNL     1      24.028   1.569  51.834  1.00  0.00     0.128 A 
HETATM    5  C7  UNL     1      24.594   0.582  52.650  1.00  0.00     0.196 A 
HETATM    6  N2  UNL     1      25.948   0.495  52.754  1.00  0.00    -0.216 NA
HETATM    7  C8  UNL     1      26.697   1.382  52.053  1.00  0.00     0.238 A 
HETATM    8  N3  UNL     1      26.175   2.343  51.260  1.00  0.00    -0.221 NA
HETATM    9  C9  UNL     1      24.827   2.458  51.132  1.00  0.00     0.166 A 
HETATM   10  O1  UNL     1      23.972  -0.392  53.424  1.00  0.00    -0.332 OA
HETATM   11  C15 UNL     1      22.656  -0.846  53.150  1.00  0.00     0.187 C 
HETATM   12  H9  UNL     1      22.443   2.750  51.066  1.00  0.00     0.160 HD
ENDROOT
BRANCH   9  13
HETATM   13  N4  UNL     1      24.222   3.449  50.313  1.00  0.00    -0.315 N 
HETATM   14  C10 UNL     1      23.594   3.160  49.057  1.00  0.00     0.094 A 
HETATM   15  C11 UNL     1      23.076   4.195  48.414  1.00  0.00    -0.004 A 
HETATM   16  C12 UNL     1      23.069   5.597  48.832  1.00  0.00     0.076 A 
HETATM   17  C13 UNL     1      23.753   5.762  50.153  1.00  0.00     0.008 A 
HETATM   18 BR1  UNL     1      23.790   7.567  50.778  1.00  0.00    -0.054 Br
HETATM   19  C14 UNL     1      24.286   4.759  50.834  1.00  0.00     0.113 A 
ENDBRANCH   9  13
BRANCH   1  20
HETATM   20  C3  UNL     1      20.317  -0.478  53.344  1.00  0.00    -0.023 C 
HETATM   21  C2  UNL     1      19.050  -0.562  52.947  1.00  0.00    -0.034 C 
HETATM   22  C1  UNL     1      17.856  -1.364  53.331  1.00  0.00     0.036 C 
ENDBRANCH   1  20
TORSDOF 2
ENDMDL
MODEL 7
REMARK VINA RESULT:      -6.6      4.872      6.779
REMARK  2 active torsions:
REMARK  status: ('A' for Active; 'I' for Inactive)
REMARK    1  A    between atoms: C3_3  and  C4_4 
REMARK    2  A    between atoms: C9_12  and  N4_13 
ROOT
HETATM    1  C4  UNL     1      28.505   5.790  48.693  1.00  0.00     0.050 C 
HETATM    2  C5  UNL     1      27.538   4.675  48.723  1.00  0.00     0.130 C 
HETATM    3  N1  UNL     1      26.370   4.841  49.520  1.00  0.00    -0.383 N 
HETATM    4  C6  UNL     1      25.692   6.060  49.832  1.00  0.00     0.128 A 
HETATM    5  C7  UNL     1      26.100   7.382  49.620  1.00  0.00     0.196 A 
HETATM    6  N2  UNL     1      25.285   8.403  50.000  1.00  0.00    -0.216 NA
HETATM    7  C8  UNL     1      24.097   8.088  50.575  1.00  0.00     0.238 A 
HETATM    8  N3  UNL     1      23.682   6.821  50.791  1.00  0.00    -0.221 NA
HETATM    9  C9  UNL     1      24.470   5.778  50.423  1.00  0.00     0.166 A 
HETATM   10  O1  UNL     1      27.272   7.868  49.049  1.00  0.00    -0.332 OA
HETATM   11  C15 UNL     1      28.055   7.090  48.157  1.00  0.00     0.187 C 
HETATM   12  H9  UNL     1      25.960   3.958  49.926  1.00  0.00     0.160 HD
ENDROOT
BRANCH   9  13
HETATM   13  N4  UNL     1      24.085   4.425  50.625  1.00  0.00    -0.315 N 
HETATM   14  C10 UNL     1      24.413   3.678  51.804  1.00  0.00     0.094 A 
HETATM   15  C11 UNL     1      23.980   2.427  51.839  1.00  0.00    -0.004 A 
HETATM   16  C12 UNL     1      23.207   1.718  50.819  1.00  0.00     0.076 A 
HETATM   17  C13 UNL     1      22.934   2.605  49.646  1.00  0.00     0.008 A 
HETATM   18 BR1  UNL     1      21.926   1.758  48.261  1.00  0.00    -0.054 Br
HETATM   19  C14 UNL     1      23.345   3.862  49.564  1.00  0.00     0.113 A 
ENDBRANCH   9  13
BRANCH   1  20
HETATM   20  C3  UNL     1      29.683   5.385  47.868  1.00  0.00    -0.023 C 
HETATM   21  C2  UNL     1      31.007   5.267  47.846  1.00  0.00    -0.034 C 
HETATM   22  C1  UNL     1      32.029   4.816  46.861  1.00  0.00     0.036 C 
ENDBRANCH   1  20
TORSDOF 2
ENDMDL
MODEL 8
REMARK VINA RESULT:      -6.6      8.809     11.052
REMARK  2 active torsions:
REMARK  status: ('A' for Active; 'I' for Inactive)
REMARK    1  A    between atoms: C3_3  and  C4_4 
REMARK    2  A    between atoms: C9_12  and  N4_13 
ROOT
HETATM    1  C4  UNL     1      28.010   6.317  48.179  1.00  0.00     0.050 C 
HETATM    2  C5  UNL     1      29.285   5.592  48.344  1.00  0.00     0.130 C 
HETATM    3  N1  UNL     1      30.476   6.255  47.933  1.00  0.00    -0.383 N 
HETATM    4  C6  UNL     1      30.733   7.661  47.923  1.00  0.00     0.128 A 
HETATM    5  C7  UNL     1      29.845   8.727  48.108  1.00  0.00     0.196 A 
HETATM    6  N2  UNL     1      30.313  10.004  48.058  1.00  0.00    -0.216 NA
HETATM    7  C8  UNL     1      31.637  10.187  47.827  1.00  0.00     0.238 A 
HETATM    8  N3  UNL     1      32.513   9.175  47.645  1.00  0.00    -0.221 NA
HETATM    9  C9  UNL     1      32.080   7.888  47.689  1.00  0.00     0.166 A 
HETATM   10  O1  UNL     1      28.476   8.708  48.353  1.00  0.00    -0.332 OA
HETATM   11  C15 UNL     1      27.826   7.581  48.920  1.00  0.00     0.187 C 
HETATM   12  H9  UNL     1      31.257   5.632  47.596  1.00  0.00     0.160 HD
ENDROOT
BRANCH   9  13
HETATM   13  N4  UNL     1      32.956   6.784  47.504  1.00  0.00    -0.315 N 
HETATM   14  C10 UNL     1      33.634   6.125  48.582  1.00  0.00     0.094 A 
HETATM   15  C11 UNL     1      34.416   5.111  48.244  1.00  0.00    -0.004 A 
HETATM   16  C12 UNL     1      34.669   4.584  46.903  1.00  0.00     0.076 A 
HETATM   17  C13 UNL     1      33.905   5.357  45.874  1.00  0.00     0.008 A 
HETATM   18 BR1  UNL     1      34.177   4.735  44.087  1.00  0.00    -0.054 Br
HETATM   19  C14 UNL     1      33.111   6.378  46.162  1.00  0.00     0.113 A 
ENDBRANCH   9  13
BRANCH   1  20
HETATM   20  C3  UNL     1      26.889   5.423  48.597  1.00  0.00    -0.023 C 
HETATM   21  C2  UNL     1      26.555   4.366  49.332  1.00  0.00    -0.034 C 
HETATM   22  C1  UNL     1      25.307   3.606  49.615  1.00  0.00     0.036 C 
ENDBRANCH   1  20
TORSDOF 2
ENDMDL
MODEL 9
REMARK VINA RESULT:      -6.5      2.237      5.173
REMARK  2 active torsions:
REMARK  status: ('A' for Active; 'I' for Inactive)
REMARK    1  A    between atoms: C3_3  and  C4_4 
REMARK    2  A    between atoms: C9_12  and  N4_13 
ROOT
HETATM    1  C4  UNL     1      20.515  -0.490  53.724  1.00  0.00     0.050 C 
HETATM    2  C5  UNL     1      20.671   0.556  52.694  1.00  0.00     0.130 C 
HETATM    3  N1  UNL     1      21.870   1.323  52.714  1.00  0.00    -0.383 N 
HETATM    4  C6  UNL     1      23.162   0.911  53.166  1.00  0.00     0.128 A 
HETATM    5  C7  UNL     1      23.530  -0.238  53.874  1.00  0.00     0.196 A 
HETATM    6  N2  UNL     1      24.836  -0.432  54.204  1.00  0.00    -0.216 NA
HETATM    7  C8  UNL     1      25.734   0.513  53.826  1.00  0.00     0.238 A 
HETATM    8  N3  UNL     1      25.403   1.630  53.143  1.00  0.00    -0.221 NA
HETATM    9  C9  UNL     1      24.109   1.854  52.797  1.00  0.00     0.166 A 
HETATM   10  O1  UNL     1      22.742  -1.290  54.329  1.00  0.00    -0.332 OA
HETATM   11  C15 UNL     1      21.488  -1.601  53.743  1.00  0.00     0.187 C 
HETATM   12  H9  UNL     1      21.791   2.311  52.353  1.00  0.00     0.160 HD
ENDROOT
BRANCH   9  13
HETATM   13  N4  UNL     1      23.703   3.011  52.078  1.00  0.00    -0.315 N 
HETATM   14  C10 UNL     1      23.568   4.307  52.678  1.00  0.00     0.094 A 
HETATM   15  C11 UNL     1      23.180   5.283  51.872  1.00  0.00    -0.004 A 
HETATM   16  C12 UNL     1      22.874   5.197  50.444  1.00  0.00     0.076 A 
HETATM   17  C13 UNL     1      23.054   3.799  49.944  1.00  0.00     0.008 A 
HETATM   18 BR1  UNL     1      22.675   3.594  48.082  1.00  0.00    -0.054 Br
HETATM   19  C14 UNL     1      23.439   2.789  50.710  1.00  0.00     0.113 A 
ENDBRANCH   9  13
BRANCH   1  20
HETATM   20  C3  UNL     1      19.168  -1.119  53.573  1.00  0.00    -0.023 C 
HETATM   21  C2  UNL     1      18.029  -1.101  52.886  1.00  0.00    -0.034 C 
HETATM   22  C1  UNL     1      16.749  -1.861  52.910  1.00  0.00     0.036 C 
ENDBRANCH   1  20
TORSDOF 2
ENDMDL
