MODEL 1
REMARK VINA RESULT:      -8.3      0.000      0.000
REMARK  3 active torsions:
REMARK  status: ('A' for Active; 'I' for Inactive)
REMARK    1  A    between atoms: C2_2  and  N1_3 
REMARK    2  A    between atoms: C16_21  and  C17_22 
REMARK    3  A    between atoms: C18_23  and  C19_24 
ROOT
HETATM    1  C19 UNL     1      21.686  -0.126  53.939  1.00  0.00     0.007 C 
HETATM    2  C20 UNL     1      20.891  -1.124  54.217  1.00  0.00     0.093 C 
HETATM    3  C21 UNL     1      19.587  -0.994  53.597  1.00  0.00     0.087 C 
HETATM    4  N6  UNL     1      18.541  -0.902  53.084  1.00  0.00    -0.192 NA
ENDROOT
BRANCH   1   5
HETATM    5  C18 UNL     1      21.254   1.003  53.071  1.00  0.00    -0.016 C 
HETATM    6  C17 UNL     1      22.322   1.050  52.239  1.00  0.00     0.051 C 
BRANCH   6   7
HETATM    7  C16 UNL     1      22.758   1.812  51.105  1.00  0.00    -0.045 C 
HETATM    8  C15 UNL     1      22.731   2.684  50.066  1.00  0.00     0.038 C 
HETATM    9  C14 UNL     1      21.500   3.472  49.730  1.00  0.00     0.077 A 
HETATM   10  C13 UNL     1      20.324   3.402  49.027  1.00  0.00     0.052 A 
HETATM   11  N5  UNL     1      21.686   4.574  50.345  1.00  0.00    -0.063 NA
HETATM   12  C12 UNL     1      19.568   4.536  49.116  1.00  0.00     0.139 A 
HETATM   13  N4  UNL     1      19.894   5.641  49.811  1.00  0.00    -0.075 NA
HETATM   14  C11 UNL     1      21.055   5.677  50.493  1.00  0.00     0.727 A 
HETATM   15  N3  UNL     1      21.855   6.577  51.360  1.00  0.00    -0.188 N 
HETATM   16  C8  UNL     1      23.092   5.817  51.619  1.00  0.00     0.049 A 
HETATM   17  H14 UNL     1      21.425   7.502  51.618  1.00  0.00     0.184 HD
HETATM   18  C7  UNL     1      22.700   5.102  52.674  1.00  0.00     0.032 A 
HETATM   19  C9  UNL     1      23.753   6.211  50.496  1.00  0.00     0.032 A 
HETATM   20  C6  UNL     1      23.574   4.077  52.411  1.00  0.00     0.031 A 
HETATM   21  C5  UNL     1      24.429   4.084  51.341  1.00  0.00     0.030 A 
HETATM   22  N2  UNL     1      25.034   2.797  51.145  1.00  0.00    -0.369 N 
HETATM   23  C10 UNL     1      24.544   5.091  50.409  1.00  0.00     0.031 A 
HETATM   24  C4  UNL     1      26.445   2.475  50.833  1.00  0.00     0.143 C 
HETATM   25  C22 UNL     1      24.246   1.527  51.204  1.00  0.00     0.132 C 
HETATM   26  C3  UNL     1      27.005   1.592  51.883  1.00  0.00     0.136 C 
HETATM   27  N1  UNL     1      26.069   1.014  52.764  1.00  0.00    -0.409 N 
HETATM   28  C23 UNL     1      24.717   0.851  52.419  1.00  0.00     0.146 C 
BRANCH  27  29
HETATM   29  C2  UNL     1      26.309   1.315  54.151  1.00  0.00     0.112 C 
HETATM   30  C1  UNL     1      26.984   0.238  54.929  1.00  0.00     0.026 C 
ENDBRANCH  27  29
ENDBRANCH   6   7
ENDBRANCH   1   5
TORSDOF 3
ENDMDL
MODEL 2
REMARK VINA RESULT:      -8.1      2.032      5.001
REMARK  3 active torsions:
REMARK  status: ('A' for Active; 'I' for Inactive)
REMARK    1  A    between atoms: C2_2  and  N1_3 
REMARK    2  A    between atoms: C16_21  and  C17_22 
REMARK    3  A    between atoms: C18_23  and  C19_24 
ROOT
HETATM    1  C19 UNL     1      26.342   0.811  51.695  1.00  0.00     0.007 C 
HETATM    2  C20 UNL     1      27.227   0.485  52.598  1.00  0.00     0.093 C 
HETATM    3  C21 UNL     1      27.773   1.636  53.291  1.00  0.00     0.087 C 
HETATM    4  N6  UNL     1      28.203   2.558  53.865  1.00  0.00    -0.192 NA
ENDROOT
BRANCH   1   5
HETATM    5  C18 UNL     1      25.966   2.229  51.441  1.00  0.00    -0.016 C 
HETATM    6  C17 UNL     1      24.621   2.112  51.541  1.00  0.00     0.051 C 
BRANCH   6   7
HETATM    7  C16 UNL     1      23.466   2.958  51.453  1.00  0.00    -0.045 C 
HETATM    8  C15 UNL     1      22.597   3.886  50.980  1.00  0.00     0.038 C 
HETATM    9  C14 UNL     1      22.848   4.620  49.698  1.00  0.00     0.077 A 
HETATM   10  C13 UNL     1      23.492   5.717  49.181  1.00  0.00     0.052 A 
HETATM   11  N5  UNL     1      22.210   3.926  48.837  1.00  0.00    -0.063 NA
HETATM   12  C12 UNL     1      23.325   5.861  47.833  1.00  0.00     0.139 A 
HETATM   13  N4  UNL     1      22.615   5.040  47.040  1.00  0.00    -0.075 NA
HETATM   14  C11 UNL     1      21.996   3.971  47.577  1.00  0.00     0.727 A 
HETATM   15  N3  UNL     1      21.139   2.822  47.194  1.00  0.00    -0.188 N 
HETATM   16  C8  UNL     1      20.841   2.155  48.475  1.00  0.00     0.049 A 
HETATM   17  H14 UNL     1      20.931   2.698  46.169  1.00  0.00     0.184 HD
HETATM   18  C7  UNL     1      21.908   1.363  48.570  1.00  0.00     0.032 A 
HETATM   19  C9  UNL     1      19.767   2.926  48.803  1.00  0.00     0.032 A 
HETATM   20  C6  UNL     1      21.866   1.330  49.941  1.00  0.00     0.031 A 
HETATM   21  C5  UNL     1      20.922   1.997  50.674  1.00  0.00     0.030 A 
HETATM   22  N2  UNL     1      21.257   2.016  52.069  1.00  0.00    -0.369 N 
HETATM   23  C10 UNL     1      19.900   2.765  50.161  1.00  0.00     0.031 A 
HETATM   24  C4  UNL     1      20.374   1.790  53.237  1.00  0.00     0.143 C 
HETATM   25  C22 UNL     1      22.638   2.322  52.555  1.00  0.00     0.132 C 
HETATM   26  C3  UNL     1      20.882   0.652  54.040  1.00  0.00     0.136 C 
HETATM   27  N1  UNL     1      22.187   0.219  53.735  1.00  0.00    -0.409 N 
HETATM   28  C23 UNL     1      23.128   1.054  53.111  1.00  0.00     0.146 C 
BRANCH  27  29
HETATM   29  C2  UNL     1      22.271  -1.170  53.366  1.00  0.00     0.112 C 
HETATM   30  C1  UNL     1      21.485  -2.105  54.220  1.00  0.00     0.026 C 
ENDBRANCH  27  29
ENDBRANCH   6   7
ENDBRANCH   1   5
TORSDOF 3
ENDMDL
MODEL 3
REMARK VINA RESULT:      -8.1      7.612      9.857
REMARK  3 active torsions:
REMARK  status: ('A' for Active; 'I' for Inactive)
REMARK    1  A    between atoms: C2_2  and  N1_3 
REMARK    2  A    between atoms: C16_21  and  C17_22 
REMARK    3  A    between atoms: C18_23  and  C19_24 
ROOT
HETATM    1  C19 UNL     1      28.046   5.154  48.523  1.00  0.00     0.007 C 
HETATM    2  C20 UNL     1      27.148   4.343  49.016  1.00  0.00     0.093 C 
HETATM    3  C21 UNL     1      25.871   4.991  49.242  1.00  0.00     0.087 C 
HETATM    4  N6  UNL     1      24.834   5.503  49.409  1.00  0.00    -0.192 NA
ENDROOT
BRANCH   1   5
HETATM    5  C18 UNL     1      27.742   6.583  48.241  1.00  0.00    -0.016 C 
HETATM    6  C17 UNL     1      28.820   6.881  47.478  1.00  0.00     0.051 C 
BRANCH   6   7
HETATM    7  C16 UNL     1      29.347   8.012  46.770  1.00  0.00    -0.045 C 
HETATM    8  C15 UNL     1      29.455   9.270  46.273  1.00  0.00     0.038 C 
HETATM    9  C14 UNL     1      28.421  10.319  46.553  1.00  0.00     0.077 A 
HETATM   10  C13 UNL     1      27.217  10.805  46.107  1.00  0.00     0.052 A 
HETATM   11  N5  UNL     1      28.897  10.931  47.567  1.00  0.00    -0.063 NA
HETATM   12  C12 UNL     1      26.753  11.861  46.837  1.00  0.00     0.139 A 
HETATM   13  N4  UNL     1      27.370  12.411  47.898  1.00  0.00    -0.075 NA
HETATM   14  C11 UNL     1      28.550  11.910  48.313  1.00  0.00     0.727 A 
HETATM   15  N3  UNL     1      29.592  12.119  49.348  1.00  0.00    -0.188 N 
HETATM   16  C8  UNL     1      30.632  11.130  49.014  1.00  0.00     0.049 A 
HETATM   17  H14 UNL     1      29.405  12.859  50.074  1.00  0.00     0.184 HD
HETATM   18  C7  UNL     1      30.155  10.071  49.667  1.00  0.00     0.032 A 
HETATM   19  C9  UNL     1      31.292  11.903  48.107  1.00  0.00     0.032 A 
HETATM   20  C6  UNL     1      30.748   9.173  48.816  1.00  0.00     0.031 A 
HETATM   21  C5  UNL     1      31.510   9.554  47.744  1.00  0.00     0.030 A 
HETATM   22  N2  UNL     1      31.786   8.445  46.875  1.00  0.00    -0.369 N 
HETATM   23  C10 UNL     1      31.795  10.851  47.379  1.00  0.00     0.031 A 
HETATM   24  C4  UNL     1      33.061   8.079  46.217  1.00  0.00     0.143 C 
HETATM   25  C22 UNL     1      30.731   7.465  46.472  1.00  0.00     0.132 C 
HETATM   26  C3  UNL     1      33.468   6.715  46.628  1.00  0.00     0.136 C 
HETATM   27  N1  UNL     1      32.483   5.951  47.285  1.00  0.00    -0.409 N 
HETATM   28  C23 UNL     1      31.111   6.212  47.138  1.00  0.00     0.146 C 
BRANCH  27  29
HETATM   29  C2  UNL     1      32.876   5.490  48.591  1.00  0.00     0.112 C 
HETATM   30  C1  UNL     1      31.959   5.870  49.702  1.00  0.00     0.026 C 
ENDBRANCH  27  29
ENDBRANCH   6   7
ENDBRANCH   1   5
TORSDOF 3
ENDMDL
MODEL 4
REMARK VINA RESULT:      -8.1      2.085      5.224
REMARK  3 active torsions:
REMARK  status: ('A' for Active; 'I' for Inactive)
REMARK    1  A    between atoms: C2_2  and  N1_3 
REMARK    2  A    between atoms: C16_21  and  C17_22 
REMARK    3  A    between atoms: C18_23  and  C19_24 
ROOT
HETATM    1  C19 UNL     1      26.234   1.191  51.646  1.00  0.00     0.007 C 
HETATM    2  C20 UNL     1      27.111   0.726  52.495  1.00  0.00     0.093 C 
HETATM    3  C21 UNL     1      28.022   1.746  52.977  1.00  0.00     0.087 C 
HETATM    4  N6  UNL     1      28.747   2.567  53.382  1.00  0.00    -0.192 NA
ENDROOT
BRANCH   1   5
HETATM    5  C18 UNL     1      26.212   2.625  51.248  1.00  0.00    -0.016 C 
HETATM    6  C17 UNL     1      24.953   2.934  51.640  1.00  0.00     0.051 C 
BRANCH   6   7
HETATM    7  C16 UNL     1      24.090   4.080  51.653  1.00  0.00    -0.045 C 
HETATM    8  C15 UNL     1      23.613   5.322  51.388  1.00  0.00     0.038 C 
HETATM    9  C14 UNL     1      24.352   6.276  50.498  1.00  0.00     0.077 A 
HETATM   10  C13 UNL     1      25.344   7.225  50.507  1.00  0.00     0.052 A 
HETATM   11  N5  UNL     1      23.815   6.082  49.357  1.00  0.00    -0.063 NA
HETATM   12  C12 UNL     1      25.570   7.788  49.284  1.00  0.00     0.139 A 
HETATM   13  N4  UNL     1      24.918   7.481  48.149  1.00  0.00    -0.075 NA
HETATM   14  C11 UNL     1      23.950   6.544  48.172  1.00  0.00     0.727 A 
HETATM   15  N3  UNL     1      22.978   5.867  47.278  1.00  0.00    -0.188 N 
HETATM   16  C8  UNL     1      22.213   4.989  48.181  1.00  0.00     0.049 A 
HETATM   17  H14 UNL     1      23.021   6.108  46.254  1.00  0.00     0.184 HD
HETATM   18  C7  UNL     1      23.005   3.917  48.178  1.00  0.00     0.032 A 
HETATM   19  C9  UNL     1      21.300   5.924  48.567  1.00  0.00     0.032 A 
HETATM   20  C6  UNL     1      22.603   3.512  49.425  1.00  0.00     0.031 A 
HETATM   21  C5  UNL     1      21.683   4.199  50.171  1.00  0.00     0.030 A 
HETATM   22  N2  UNL     1      21.640   3.720  51.524  1.00  0.00    -0.369 N 
HETATM   23  C10 UNL     1      21.036   5.353  49.789  1.00  0.00     0.031 A 
HETATM   24  C4  UNL     1      20.458   3.452  52.375  1.00  0.00     0.143 C 
HETATM   25  C22 UNL     1      22.881   3.441  52.311  1.00  0.00     0.132 C 
HETATM   26  C3  UNL     1      20.461   2.035  52.811  1.00  0.00     0.136 C 
HETATM   27  N1  UNL     1      21.663   1.330  52.602  1.00  0.00    -0.409 N 
HETATM   28  C23 UNL     1      22.901   1.981  52.472  1.00  0.00     0.146 C 
BRANCH  27  29
HETATM   29  C2  UNL     1      21.514   0.146  51.798  1.00  0.00     0.112 C 
HETATM   30  C1  UNL     1      21.130   0.385  50.378  1.00  0.00     0.026 C 
ENDBRANCH  27  29
ENDBRANCH   6   7
ENDBRANCH   1   5
TORSDOF 3
ENDMDL
MODEL 5
REMARK VINA RESULT:      -8.0      2.168      5.263
REMARK  3 active torsions:
REMARK  status: ('A' for Active; 'I' for Inactive)
REMARK    1  A    between atoms: C2_2  and  N1_3 
REMARK    2  A    between atoms: C16_21  and  C17_22 
REMARK    3  A    between atoms: C18_23  and  C19_24 
ROOT
HETATM    1  C19 UNL     1      26.521   4.069  49.431  1.00  0.00     0.007 C 
HETATM    2  C20 UNL     1      27.493   4.718  48.848  1.00  0.00     0.093 C 
HETATM    3  C21 UNL     1      27.097   6.040  48.403  1.00  0.00     0.087 C 
HETATM    4  N6  UNL     1      26.789   7.113  48.058  1.00  0.00    -0.192 NA
ENDROOT
BRANCH   1   5
HETATM    5  C18 UNL     1      25.168   4.665  49.598  1.00  0.00    -0.016 C 
HETATM    6  C17 UNL     1      24.676   3.816  50.531  1.00  0.00     0.051 C 
BRANCH   6   7
HETATM    7  C16 UNL     1      23.465   3.637  51.278  1.00  0.00    -0.045 C 
HETATM    8  C15 UNL     1      22.152   3.698  51.616  1.00  0.00     0.038 C 
HETATM    9  C14 UNL     1      21.141   4.360  50.729  1.00  0.00     0.077 A 
HETATM   10  C13 UNL     1      20.587   5.581  50.434  1.00  0.00     0.052 A 
HETATM   11  N5  UNL     1      20.677   3.388  50.044  1.00  0.00    -0.063 NA
HETATM   12  C12 UNL     1      19.635   5.525  49.457  1.00  0.00     0.139 A 
HETATM   13  N4  UNL     1      19.241   4.413  48.811  1.00  0.00    -0.075 NA
HETATM   14  C11 UNL     1      19.805   3.229  49.122  1.00  0.00     0.727 A 
HETATM   15  N3  UNL     1      19.749   1.793  48.754  1.00  0.00    -0.188 N 
HETATM   16  C8  UNL     1      20.693   1.149  49.684  1.00  0.00     0.049 A 
HETATM   17  H14 UNL     1      19.113   1.526  47.959  1.00  0.00     0.184 HD
HETATM   18  C7  UNL     1      21.827   1.308  49.001  1.00  0.00     0.032 A 
HETATM   19  C9  UNL     1      19.812   0.984  50.709  1.00  0.00     0.032 A 
HETATM   20  C6  UNL     1      22.607   1.303  50.130  1.00  0.00     0.031 A 
HETATM   21  C5  UNL     1      22.091   1.165  51.391  1.00  0.00     0.030 A 
HETATM   22  N2  UNL     1      23.075   1.457  52.396  1.00  0.00    -0.369 N 
HETATM   23  C10 UNL     1      20.760   1.005  51.704  1.00  0.00     0.031 A 
HETATM   24  C4  UNL     1      23.360   0.728  53.652  1.00  0.00     0.143 C 
HETATM   25  C22 UNL     1      23.981   2.644  52.304  1.00  0.00     0.132 C 
HETATM   26  C3  UNL     1      24.772   0.277  53.665  1.00  0.00     0.136 C 
HETATM   27  N1  UNL     1      25.608   0.847  52.684  1.00  0.00    -0.409 N 
HETATM   28  C23 UNL     1      25.316   2.078  52.074  1.00  0.00     0.146 C 
BRANCH  27  29
HETATM   29  C2  UNL     1      26.246  -0.118  51.827  1.00  0.00     0.112 C 
HETATM   30  C1  UNL     1      26.667  -1.382  52.494  1.00  0.00     0.026 C 
ENDBRANCH  27  29
ENDBRANCH   6   7
ENDBRANCH   1   5
TORSDOF 3
ENDMDL
MODEL 6
REMARK VINA RESULT:      -8.0      2.103      2.981
REMARK  3 active torsions:
REMARK  status: ('A' for Active; 'I' for Inactive)
REMARK    1  A    between atoms: C2_2  and  N1_3 
REMARK    2  A    between atoms: C16_21  and  C17_22 
REMARK    3  A    between atoms: C18_23  and  C19_24 
ROOT
HETATM    1  C19 UNL     1      18.612  -0.051  50.854  1.00  0.00     0.007 C 
HETATM    2  C20 UNL     1      17.472  -0.029  51.491  1.00  0.00     0.093 C 
HETATM    3  C21 UNL     1      16.887   1.296  51.551  1.00  0.00     0.087 C 
HETATM    4  N6  UNL     1      16.403   2.358  51.587  1.00  0.00    -0.192 NA
ENDROOT
BRANCH   1   5
HETATM    5  C18 UNL     1      19.207   1.181  50.268  1.00  0.00    -0.016 C 
HETATM    6  C17 UNL     1      20.516   0.904  50.478  1.00  0.00     0.051 C 
BRANCH   6   7
HETATM    7  C16 UNL     1      21.789   1.515  50.230  1.00  0.00    -0.045 C 
HETATM    8  C15 UNL     1      22.717   2.390  49.766  1.00  0.00     0.038 C 
HETATM    9  C14 UNL     1      22.332   3.581  48.941  1.00  0.00     0.077 A 
HETATM   10  C13 UNL     1      22.075   3.973  47.651  1.00  0.00     0.052 A 
HETATM   11  N5  UNL     1      22.231   4.513  49.808  1.00  0.00    -0.063 NA
HETATM   12  C12 UNL     1      21.757   5.296  47.536  1.00  0.00     0.139 A 
HETATM   13  N4  UNL     1      21.687   6.175  48.552  1.00  0.00    -0.075 NA
HETATM   14  C11 UNL     1      21.944   5.759  49.808  1.00  0.00     0.727 A 
HETATM   15  N3  UNL     1      22.010   6.268  51.200  1.00  0.00    -0.188 N 
HETATM   16  C8  UNL     1      22.460   5.105  51.985  1.00  0.00     0.049 A 
HETATM   17  H14 UNL     1      21.736   7.272  51.357  1.00  0.00     0.184 HD
HETATM   18  C7  UNL     1      21.284   4.525  52.223  1.00  0.00     0.032 A 
HETATM   19  C9  UNL     1      23.794   5.292  51.787  1.00  0.00     0.032 A 
HETATM   20  C6  UNL     1      21.828   3.270  52.332  1.00  0.00     0.031 A 
HETATM   21  C5  UNL     1      23.167   3.024  52.187  1.00  0.00     0.030 A 
HETATM   22  N2  UNL     1      23.435   1.618  52.082  1.00  0.00    -0.369 N 
HETATM   23  C10 UNL     1      24.136   3.969  51.932  1.00  0.00     0.031 A 
HETATM   24  C4  UNL     1      24.508   0.829  52.728  1.00  0.00     0.143 C 
HETATM   25  C22 UNL     1      22.618   0.713  51.216  1.00  0.00     0.132 C 
HETATM   26  C3  UNL     1      23.915  -0.248  53.556  1.00  0.00     0.136 C 
HETATM   27  N1  UNL     1      22.543  -0.496  53.350  1.00  0.00    -0.409 N 
HETATM   28  C23 UNL     1      21.889  -0.147  52.157  1.00  0.00     0.146 C 
BRANCH  27  29
HETATM   29  C2  UNL     1      21.741  -0.371  54.539  1.00  0.00     0.112 C 
HETATM   30  C1  UNL     1      20.417   0.285  54.348  1.00  0.00     0.026 C 
ENDBRANCH  27  29
ENDBRANCH   6   7
ENDBRANCH   1   5
TORSDOF 3
ENDMDL
MODEL 7
REMARK VINA RESULT:      -8.0      8.292     11.631
REMARK  3 active torsions:
REMARK  status: ('A' for Active; 'I' for Inactive)
REMARK    1  A    between atoms: C2_2  and  N1_3 
REMARK    2  A    between atoms: C16_21  and  C17_22 
REMARK    3  A    between atoms: C18_23  and  C19_24 
ROOT
HETATM    1  C19 UNL     1      27.214   6.972  48.197  1.00  0.00     0.007 C 
HETATM    2  C20 UNL     1      26.267   6.166  48.596  1.00  0.00     0.093 C 
HETATM    3  C21 UNL     1      26.767   4.864  48.994  1.00  0.00     0.087 C 
HETATM    4  N6  UNL     1      27.167   3.820  49.333  1.00  0.00    -0.192 NA
ENDROOT
BRANCH   1   5
HETATM    5  C18 UNL     1      28.641   6.553  48.172  1.00  0.00    -0.016 C 
HETATM    6  C17 UNL     1      29.207   7.706  48.603  1.00  0.00     0.051 C 
BRANCH   6   7
HETATM    7  C16 UNL     1      30.520   8.209  48.887  1.00  0.00    -0.045 C 
HETATM    8  C15 UNL     1      31.872   8.267  48.982  1.00  0.00     0.038 C 
HETATM    9  C14 UNL     1      32.743   7.132  48.534  1.00  0.00     0.077 A 
HETATM   10  C13 UNL     1      33.283   5.944  48.958  1.00  0.00     0.052 A 
HETATM   11  N5  UNL     1      33.048   7.457  47.338  1.00  0.00    -0.063 NA
HETATM   12  C12 UNL     1      34.054   5.329  48.013  1.00  0.00     0.139 A 
HETATM   13  N4  UNL     1      34.292   5.794  46.774  1.00  0.00    -0.075 NA
HETATM   14  C11 UNL     1      33.746   6.963  46.386  1.00  0.00     0.727 A 
HETATM   15  N3  UNL     1      33.686   7.877  45.220  1.00  0.00    -0.188 N 
HETATM   16  C8  UNL     1      32.889   9.020  45.702  1.00  0.00     0.049 A 
HETATM   17  H14 UNL     1      34.168   7.563  44.339  1.00  0.00     0.184 HD
HETATM   18  C7  UNL     1      31.663   8.565  45.444  1.00  0.00     0.032 A 
HETATM   19  C9  UNL     1      33.925   9.704  46.263  1.00  0.00     0.032 A 
HETATM   20  C6  UNL     1      31.085   9.308  46.443  1.00  0.00     0.031 A 
HETATM   21  C5  UNL     1      31.801  10.139  47.262  1.00  0.00     0.030 A 
HETATM   22  N2  UNL     1      31.013  10.585  48.376  1.00  0.00    -0.369 N 
HETATM   23  C10 UNL     1      33.159  10.357  47.200  1.00  0.00     0.031 A 
HETATM   24  C4  UNL     1      30.917  11.943  48.958  1.00  0.00     0.143 C 
HETATM   25  C22 UNL     1      30.149   9.655  49.166  1.00  0.00     0.132 C 
HETATM   26  C3  UNL     1      29.512  12.414  48.914  1.00  0.00     0.136 C 
HETATM   27  N1  UNL     1      28.544  11.431  48.627  1.00  0.00    -0.409 N 
HETATM   28  C23 UNL     1      28.774  10.064  48.851  1.00  0.00     0.146 C 
BRANCH  27  29
HETATM   29  C2  UNL     1      27.736  11.728  47.473  1.00  0.00     0.112 C 
HETATM   30  C1  UNL     1      27.535  10.594  46.527  1.00  0.00     0.026 C 
ENDBRANCH  27  29
ENDBRANCH   6   7
ENDBRANCH   1   5
TORSDOF 3
ENDMDL
MODEL 8
REMARK VINA RESULT:      -7.9      2.058      5.317
REMARK  3 active torsions:
REMARK  status: ('A' for Active; 'I' for Inactive)
REMARK    1  A    between atoms: C2_2  and  N1_3 
REMARK    2  A    between atoms: C16_21  and  C17_22 
REMARK    3  A    between atoms: C18_23  and  C19_24 
ROOT
HETATM    1  C19 UNL     1      24.144   1.774  52.978  1.00  0.00     0.007 C 
HETATM    2  C20 UNL     1      25.164   1.035  52.633  1.00  0.00     0.093 C 
HETATM    3  C21 UNL     1      26.294   1.817  52.173  1.00  0.00     0.087 C 
HETATM    4  N6  UNL     1      27.214   2.442  51.818  1.00  0.00    -0.192 NA
ENDROOT
BRANCH   1   5
HETATM    5  C18 UNL     1      24.186   3.259  52.890  1.00  0.00    -0.016 C 
HETATM    6  C17 UNL     1      22.986   3.470  52.299  1.00  0.00     0.051 C 
BRANCH   6   7
HETATM    7  C16 UNL     1      22.197   4.581  51.851  1.00  0.00    -0.045 C 
HETATM    8  C15 UNL     1      21.875   5.776  51.294  1.00  0.00     0.038 C 
HETATM    9  C14 UNL     1      22.915   6.668  50.687  1.00  0.00     0.077 A 
HETATM   10  C13 UNL     1      23.824   7.648  51.001  1.00  0.00     0.052 A 
HETATM   11  N5  UNL     1      22.885   6.350  49.452  1.00  0.00    -0.063 NA
HETATM   12  C12 UNL     1      24.529   8.103  49.924  1.00  0.00     0.139 A 
HETATM   13  N4  UNL     1      24.390   7.669  48.658  1.00  0.00    -0.075 NA
HETATM   14  C11 UNL     1      23.490   6.705  48.382  1.00  0.00     0.727 A 
HETATM   15  N3  UNL     1      22.959   5.915  47.244  1.00  0.00    -0.188 N 
HETATM   16  C8  UNL     1      21.889   5.098  47.844  1.00  0.00     0.049 A 
HETATM   17  H14 UNL     1      23.413   6.061  46.306  1.00  0.00     0.184 HD
HETATM   18  C7  UNL     1      22.609   4.058  48.267  1.00  0.00     0.032 A 
HETATM   19  C9  UNL     1      20.904   6.031  47.736  1.00  0.00     0.032 A 
HETATM   20  C6  UNL     1      21.735   3.757  49.281  1.00  0.00     0.031 A 
HETATM   21  C5  UNL     1      20.595   4.477  49.521  1.00  0.00     0.030 A 
HETATM   22  N2  UNL     1      20.007   4.124  50.781  1.00  0.00    -0.369 N 
HETATM   23  C10 UNL     1      20.165   5.567  48.798  1.00  0.00     0.031 A 
HETATM   24  C4  UNL     1      18.581   3.895  51.106  1.00  0.00     0.143 C 
HETATM   25  C22 UNL     1      20.822   3.964  52.025  1.00  0.00     0.132 C 
HETATM   26  C3  UNL     1      18.399   2.526  51.645  1.00  0.00     0.136 C 
HETATM   27  N1  UNL     1      19.579   1.848  52.009  1.00  0.00    -0.409 N 
HETATM   28  C23 UNL     1      20.767   2.527  52.325  1.00  0.00     0.146 C 
BRANCH  27  29
HETATM   29  C2  UNL     1      19.762   0.589  51.334  1.00  0.00     0.112 C 
HETATM   30  C1  UNL     1      21.149   0.314  50.864  1.00  0.00     0.026 C 
ENDBRANCH  27  29
ENDBRANCH   6   7
ENDBRANCH   1   5
TORSDOF 3
ENDMDL
MODEL 9
REMARK VINA RESULT:      -7.6      8.184     10.996
REMARK  3 active torsions:
REMARK  status: ('A' for Active; 'I' for Inactive)
REMARK    1  A    between atoms: C2_2  and  N1_3 
REMARK    2  A    between atoms: C16_21  and  C17_22 
REMARK    3  A    between atoms: C18_23  and  C19_24 
ROOT
HETATM    1  C19 UNL     1      33.240   5.157  48.244  1.00  0.00     0.007 C 
HETATM    2  C20 UNL     1      34.024   4.150  47.967  1.00  0.00     0.093 C 
HETATM    3  C21 UNL     1      33.308   3.015  47.417  1.00  0.00     0.087 C 
HETATM    4  N6  UNL     1      32.739   2.105  46.957  1.00  0.00    -0.192 NA
ENDROOT
BRANCH   1   5
HETATM    5  C18 UNL     1      31.772   5.098  48.003  1.00  0.00    -0.016 C 
HETATM    6  C17 UNL     1      31.603   6.313  47.431  1.00  0.00     0.051 C 
BRANCH   6   7
HETATM    7  C16 UNL     1      30.534   7.093  46.878  1.00  0.00    -0.045 C 
HETATM    8  C15 UNL     1      29.316   7.675  46.743  1.00  0.00     0.038 C 
HETATM    9  C14 UNL     1      28.238   7.493  47.769  1.00  0.00     0.077 A 
HETATM   10  C13 UNL     1      27.217   6.651  48.136  1.00  0.00     0.052 A 
HETATM   11  N5  UNL     1      28.381   8.512  48.523  1.00  0.00    -0.063 NA
HETATM   12  C12 UNL     1      26.541   7.067  49.247  1.00  0.00     0.139 A 
HETATM   13  N4  UNL     1      26.805   8.180  49.952  1.00  0.00    -0.075 NA
HETATM   14  C11 UNL     1      27.815   8.986  49.568  1.00  0.00     0.727 A 
HETATM   15  N3  UNL     1      28.491  10.250  49.950  1.00  0.00    -0.188 N 
HETATM   16  C8  UNL     1      29.497  10.452  48.892  1.00  0.00     0.049 A 
HETATM   17  H14 UNL     1      28.166  10.720  50.835  1.00  0.00     0.184 HD
HETATM   18  C7  UNL     1      30.500   9.730  49.394  1.00  0.00     0.032 A 
HETATM   19  C9  UNL     1      28.672  11.087  48.015  1.00  0.00     0.032 A 
HETATM   20  C6  UNL     1      31.035   9.460  48.159  1.00  0.00     0.031 A 
HETATM   21  C5  UNL     1      30.486   9.920  46.993  1.00  0.00     0.030 A 
HETATM   22  N2  UNL     1      31.074   9.283  45.848  1.00  0.00    -0.369 N 
HETATM   23  C10 UNL     1      29.359  10.705  46.887  1.00  0.00     0.031 A 
HETATM   24  C4  UNL     1      31.503   9.892  44.568  1.00  0.00     0.143 C 
HETATM   25  C22 UNL     1      31.317   7.808  45.792  1.00  0.00     0.132 C 
HETATM   26  C3  UNL     1      32.945   9.634  44.345  1.00  0.00     0.136 C 
HETATM   27  N1  UNL     1      33.534   8.666  45.183  1.00  0.00    -0.409 N 
HETATM   28  C23 UNL     1      32.779   7.669  45.821  1.00  0.00     0.146 C 
BRANCH  27  29
HETATM   29  C2  UNL     1      34.657   9.154  45.940  1.00  0.00     0.112 C 
HETATM   30  C1  UNL     1      34.749   8.649  47.339  1.00  0.00     0.026 C 
ENDBRANCH  27  29
ENDBRANCH   6   7
ENDBRANCH   1   5
TORSDOF 3
ENDMDL
