MODEL 1
REMARK VINA RESULT:      -9.3      0.000      0.000
REMARK  6 active torsions:
REMARK  status: ('A' for Active; 'I' for Inactive)
REMARK    1  A    between atoms: O1_2  and  C2_3 
REMARK    2  A    between atoms: C4_5  and  N1_6 
REMARK    3  A    between atoms: N1_6  and  C5_7 
REMARK    4  A    between atoms: C8_12  and  N3_13 
REMARK    5  A    between atoms: N3_13  and  C9_14 
REMARK    6  A    between atoms: C21_30  and  O4_31 
ROOT
HETATM    1  C2  UNL     1      30.280   5.875  48.492  1.00  0.00     0.106 A 
HETATM    2  C3  UNL     1      28.949   5.541  48.417  1.00  0.00     0.069 A 
HETATM    3  C4  UNL     1      27.914   6.445  48.440  1.00  0.00     0.054 A 
HETATM    4  C18 UNL     1      28.316   7.756  48.546  1.00  0.00     0.069 A 
HETATM    5  C19 UNL     1      29.632   8.222  48.629  1.00  0.00     0.106 A 
HETATM    6  O3  UNL     1      29.909   9.446  48.724  1.00  0.00    -0.353 OA
HETATM    7  C20 UNL     1      30.175  10.700  48.820  1.00  0.00     0.210 C 
HETATM    8  C21 UNL     1      30.588   7.223  48.597  1.00  0.00     0.135 A 
ENDROOT
BRANCH   8   9
HETATM    9  O4  UNL     1      31.913   7.633  48.678  1.00  0.00    -0.351 OA
HETATM   10  C22 UNL     1      32.696   8.029  47.583  1.00  0.00     0.210 C 
ENDBRANCH   8   9
BRANCH   3  11
HETATM   11  N1  UNL     1      26.581   5.977  48.366  1.00  0.00    -0.188 N 
HETATM   12  H5  UNL     1      26.221   5.725  47.401  1.00  0.00     0.184 HD
BRANCH  11  13
HETATM   13  C5  UNL     1      25.659   5.801  49.428  1.00  0.00     0.728 A 
HETATM   14  N2  UNL     1      25.095   6.782  50.139  1.00  0.00    -0.072 NA
HETATM   15  C6  UNL     1      24.222   6.648  51.142  1.00  0.00     0.182 A 
HETATM   16  C7  UNL     1      23.848   5.379  51.504  1.00  0.00     0.180 A 
HETATM   17  F1  UNL     1      22.971   5.256  52.509  1.00  0.00    -0.200 F 
HETATM   18  C8  UNL     1      24.417   4.352  50.788  1.00  0.00     0.187 A 
HETATM   19  N5  UNL     1      25.277   4.567  49.803  1.00  0.00    -0.042 NA
BRANCH  18  20
HETATM   20  N3  UNL     1      24.051   3.027  51.148  1.00  0.00    -0.339 N 
HETATM   21  H7  UNL     1      23.361   2.492  50.548  1.00  0.00     0.167 HD
BRANCH  20  22
HETATM   22  C9  UNL     1      24.562   2.345  52.288  1.00  0.00     0.057 A 
HETATM   23  C10 UNL     1      24.811   1.158  53.039  1.00  0.00     0.008 A 
HETATM   24  C11 UNL     1      24.749  -0.310  53.262  1.00  0.00     0.036 C 
HETATM   25  C17 UNL     1      25.195   2.451  53.466  1.00  0.00     0.306 A 
HETATM   26  C12 UNL     1      25.796  -1.080  53.644  1.00  0.00     0.136 C 
HETATM   27  O2  UNL     1      27.155  -0.843  53.940  1.00  0.00    -0.356 OA
HETATM   28  C13 UNL     1      27.896   0.332  54.422  1.00  0.00     0.156 C 
HETATM   29  C14 UNL     1      29.294   0.146  53.813  1.00  0.00     0.042 C 
HETATM   30  C15 UNL     1      27.115   1.383  53.856  1.00  0.00     0.246 C 
HETATM   31  C16 UNL     1      27.263   1.057  52.433  1.00  0.00     0.045 C 
HETATM   32  N4  UNL     1      26.628   2.636  53.831  1.00  0.00     0.105 N 
HETATM   33  H18 UNL     1      27.009   3.283  53.115  1.00  0.00     0.317 HD
ENDBRANCH  20  22
ENDBRANCH  18  20
ENDBRANCH  11  13
ENDBRANCH   3  11
BRANCH   1  34
HETATM   34  O1  UNL     1      31.321   4.965  48.468  1.00  0.00    -0.353 OA
HETATM   35  C1  UNL     1      31.694   4.390  47.234  1.00  0.00     0.210 C 
ENDBRANCH   1  34
TORSDOF 6
ENDMDL
MODEL 2
REMARK VINA RESULT:      -9.2      0.328      2.220
REMARK  6 active torsions:
REMARK  status: ('A' for Active; 'I' for Inactive)
REMARK    1  A    between atoms: O1_2  and  C2_3 
REMARK    2  A    between atoms: C4_5  and  N1_6 
REMARK    3  A    between atoms: N1_6  and  C5_7 
REMARK    4  A    between atoms: C8_12  and  N3_13 
REMARK    5  A    between atoms: N3_13  and  C9_14 
REMARK    6  A    between atoms: C21_30  and  O4_31 
ROOT
HETATM    1  C2  UNL     1      29.716   8.276  48.953  1.00  0.00     0.106 A 
HETATM    2  C3  UNL     1      28.411   7.858  48.843  1.00  0.00     0.069 A 
HETATM    3  C4  UNL     1      28.024   6.593  48.471  1.00  0.00     0.054 A 
HETATM    4  C18 UNL     1      29.070   5.740  48.209  1.00  0.00     0.069 A 
HETATM    5  C19 UNL     1      30.434   6.043  48.285  1.00  0.00     0.106 A 
HETATM    6  O3  UNL     1      31.328   5.196  48.026  1.00  0.00    -0.353 OA
HETATM    7  C20 UNL     1      32.229   4.319  47.758  1.00  0.00     0.210 C 
HETATM    8  C21 UNL     1      30.703   7.344  48.669  1.00  0.00     0.135 A 
ENDROOT
BRANCH   8   9
HETATM    9  O4  UNL     1      32.044   7.697  48.758  1.00  0.00    -0.351 OA
HETATM   10  C22 UNL     1      32.799   8.241  47.708  1.00  0.00     0.210 C 
ENDBRANCH   8   9
BRANCH   3  11
HETATM   11  N1  UNL     1      26.646   6.285  48.384  1.00  0.00    -0.188 N 
HETATM   12  H5  UNL     1      26.232   6.236  47.409  1.00  0.00     0.184 HD
BRANCH  11  13
HETATM   13  C5  UNL     1      25.741   6.029  49.446  1.00  0.00     0.728 A 
HETATM   14  N2  UNL     1      25.150   6.957  50.203  1.00  0.00    -0.072 NA
HETATM   15  C6  UNL     1      24.293   6.748  51.206  1.00  0.00     0.182 A 
HETATM   16  C7  UNL     1      23.968   5.451  51.515  1.00  0.00     0.180 A 
HETATM   17  F1  UNL     1      23.106   5.253  52.522  1.00  0.00    -0.200 F 
HETATM   18  C8  UNL     1      24.565   4.478  50.751  1.00  0.00     0.187 A 
HETATM   19  N5  UNL     1      25.408   4.767  49.768  1.00  0.00    -0.042 NA
BRANCH  18  20
HETATM   20  N3  UNL     1      24.251   3.126  51.054  1.00  0.00    -0.339 N 
HETATM   21  H7  UNL     1      23.686   2.552  50.367  1.00  0.00     0.167 HD
BRANCH  20  22
HETATM   22  C9  UNL     1      24.654   2.468  52.251  1.00  0.00     0.057 A 
HETATM   23  C10 UNL     1      24.741   1.314  53.086  1.00  0.00     0.008 A 
HETATM   24  C11 UNL     1      24.494  -0.116  53.405  1.00  0.00     0.036 C 
HETATM   25  C17 UNL     1      25.275   2.578  53.434  1.00  0.00     0.306 A 
HETATM   26  C12 UNL     1      25.431  -0.980  53.864  1.00  0.00     0.136 C 
HETATM   27  O2  UNL     1      26.803  -0.891  54.178  1.00  0.00    -0.356 OA
HETATM   28  C13 UNL     1      27.676   0.216  54.598  1.00  0.00     0.156 C 
HETATM   29  C14 UNL     1      29.050  -0.182  54.039  1.00  0.00     0.042 C 
HETATM   30  C15 UNL     1      27.041   1.312  53.945  1.00  0.00     0.246 C 
HETATM   31  C16 UNL     1      27.172   0.872  52.550  1.00  0.00     0.045 C 
HETATM   32  N4  UNL     1      26.714   2.611  53.823  1.00  0.00     0.105 N 
HETATM   33  H18 UNL     1      27.184   3.155  53.075  1.00  0.00     0.317 HD
ENDBRANCH  20  22
ENDBRANCH  18  20
ENDBRANCH  11  13
ENDBRANCH   3  11
BRANCH   1  34
HETATM   34  O1  UNL     1      30.104   9.549  49.328  1.00  0.00    -0.353 OA
HETATM   35  C1  UNL     1      29.837  10.626  48.456  1.00  0.00     0.210 C 
ENDBRANCH   1  34
TORSDOF 6
ENDMDL
MODEL 3
REMARK VINA RESULT:      -8.4      1.889      8.814
REMARK  6 active torsions:
REMARK  status: ('A' for Active; 'I' for Inactive)
REMARK    1  A    between atoms: O1_2  and  C2_3 
REMARK    2  A    between atoms: C4_5  and  N1_6 
REMARK    3  A    between atoms: N1_6  and  C5_7 
REMARK    4  A    between atoms: C8_12  and  N3_13 
REMARK    5  A    between atoms: N3_13  and  C9_14 
REMARK    6  A    between atoms: C21_30  and  O4_31 
ROOT
HETATM    1  C2  UNL     1      25.994   0.292  52.994  1.00  0.00     0.106 A 
HETATM    2  C3  UNL     1      25.664   1.200  52.015  1.00  0.00     0.069 A 
HETATM    3  C4  UNL     1      24.381   1.566  51.688  1.00  0.00     0.054 A 
HETATM    4  C18 UNL     1      23.411   0.940  52.434  1.00  0.00     0.069 A 
HETATM    5  C19 UNL     1      23.616   0.003  53.454  1.00  0.00     0.106 A 
HETATM    6  O3  UNL     1      22.664  -0.522  54.088  1.00  0.00    -0.353 OA
HETATM    7  C20 UNL     1      21.681  -1.048  54.727  1.00  0.00     0.210 C 
HETATM    8  C21 UNL     1      24.946  -0.287  53.695  1.00  0.00     0.135 A 
ENDROOT
BRANCH   8   9
HETATM    9  O4  UNL     1      25.205  -1.214  54.697  1.00  0.00    -0.351 OA
HETATM   10  C22 UNL     1      25.280  -0.911  56.065  1.00  0.00     0.210 C 
ENDBRANCH   8   9
BRANCH   3  11
HETATM   11  N1  UNL     1      24.169   2.505  50.651  1.00  0.00    -0.188 N 
HETATM   12  H5  UNL     1      24.128   2.121  49.664  1.00  0.00     0.184 HD
BRANCH  11  13
HETATM   13  C5  UNL     1      24.001   3.909  50.769  1.00  0.00     0.728 A 
HETATM   14  N2  UNL     1      22.877   4.529  51.137  1.00  0.00    -0.072 NA
HETATM   15  C6  UNL     1      22.690   5.846  51.259  1.00  0.00     0.182 A 
HETATM   16  C7  UNL     1      23.747   6.675  50.981  1.00  0.00     0.180 A 
HETATM   17  F1  UNL     1      23.548   7.994  51.109  1.00  0.00    -0.200 F 
HETATM   18  C8  UNL     1      24.914   6.060  50.598  1.00  0.00     0.187 A 
HETATM   19  N5  UNL     1      25.022   4.742  50.501  1.00  0.00    -0.042 NA
BRANCH  18  20
HETATM   20  N3  UNL     1      26.023   6.896  50.298  1.00  0.00    -0.339 N 
HETATM   21  H7  UNL     1      26.288   7.676  50.964  1.00  0.00     0.167 HD
BRANCH  20  22
HETATM   22  C9  UNL     1      26.829   6.756  49.133  1.00  0.00     0.057 A 
HETATM   23  C10 UNL     1      27.283   7.199  47.854  1.00  0.00     0.008 A 
HETATM   24  C11 UNL     1      27.299   8.138  46.703  1.00  0.00     0.036 C 
HETATM   25  C17 UNL     1      27.753   6.026  48.492  1.00  0.00     0.306 A 
HETATM   26  C12 UNL     1      28.418   8.644  46.132  1.00  0.00     0.136 C 
HETATM   27  O2  UNL     1      29.804   8.510  46.360  1.00  0.00    -0.356 OA
HETATM   28  C13 UNL     1      30.635   7.451  46.953  1.00  0.00     0.156 C 
HETATM   29  C14 UNL     1      31.819   8.223  47.553  1.00  0.00     0.042 C 
HETATM   30  C15 UNL     1      29.719   6.900  47.897  1.00  0.00     0.246 C 
HETATM   31  C16 UNL     1      29.483   8.085  48.729  1.00  0.00     0.045 C 
HETATM   32  N4  UNL     1      29.230   5.899  48.651  1.00  0.00     0.105 N 
HETATM   33  H18 UNL     1      29.398   5.944  49.674  1.00  0.00     0.317 HD
ENDBRANCH  20  22
ENDBRANCH  18  20
ENDBRANCH  11  13
ENDBRANCH   3  11
BRANCH   1  34
HETATM   34  O1  UNL     1      27.285  -0.074  53.323  1.00  0.00    -0.353 OA
HETATM   35  C1  UNL     1      28.059   0.800  54.117  1.00  0.00     0.210 C 
ENDBRANCH   1  34
TORSDOF 6
ENDMDL
MODEL 4
REMARK VINA RESULT:      -8.3      4.679      9.807
REMARK  6 active torsions:
REMARK  status: ('A' for Active; 'I' for Inactive)
REMARK    1  A    between atoms: O1_2  and  C2_3 
REMARK    2  A    between atoms: C4_5  and  N1_6 
REMARK    3  A    between atoms: N1_6  and  C5_7 
REMARK    4  A    between atoms: C8_12  and  N3_13 
REMARK    5  A    between atoms: N3_13  and  C9_14 
REMARK    6  A    between atoms: C21_30  and  O4_31 
ROOT
HETATM    1  C2  UNL     1      19.138  -0.139  52.335  1.00  0.00     0.106 A 
HETATM    2  C3  UNL     1      20.259  -0.061  53.128  1.00  0.00     0.069 A 
HETATM    3  C4  UNL     1      21.440   0.533  52.754  1.00  0.00     0.054 A 
HETATM    4  C18 UNL     1      21.425   1.065  51.487  1.00  0.00     0.069 A 
HETATM    5  C19 UNL     1      20.353   1.051  50.587  1.00  0.00     0.106 A 
HETATM    6  O3  UNL     1      20.428   1.565  49.441  1.00  0.00    -0.353 OA
HETATM    7  C20 UNL     1      20.521   2.096  48.274  1.00  0.00     0.210 C 
HETATM    8  C21 UNL     1      19.218   0.427  51.072  1.00  0.00     0.135 A 
ENDROOT
BRANCH   8   9
HETATM    9  O4  UNL     1      18.124   0.385  50.216  1.00  0.00    -0.351 OA
HETATM   10  C22 UNL     1      17.129   1.372  50.141  1.00  0.00     0.210 C 
ENDBRANCH   8   9
BRANCH   3  11
HETATM   11  N1  UNL     1      22.529   0.541  53.657  1.00  0.00    -0.188 N 
HETATM   12  H5  UNL     1      22.292   0.648  54.685  1.00  0.00     0.184 HD
BRANCH  11  13
HETATM   13  C5  UNL     1      23.910   0.422  53.358  1.00  0.00     0.728 A 
HETATM   14  N2  UNL     1      24.659  -0.666  53.562  1.00  0.00    -0.072 NA
HETATM   15  C6  UNL     1      25.958  -0.809  53.288  1.00  0.00     0.182 A 
HETATM   16  C7  UNL     1      26.622   0.258  52.739  1.00  0.00     0.180 A 
HETATM   17  F1  UNL     1      27.925   0.102  52.467  1.00  0.00    -0.200 F 
HETATM   18  C8  UNL     1      25.874   1.390  52.522  1.00  0.00     0.187 A 
HETATM   19  N5  UNL     1      24.584   1.454  52.821  1.00  0.00    -0.042 NA
BRANCH  18  20
HETATM   20  N3  UNL     1      26.539   2.513  51.960  1.00  0.00    -0.339 N 
HETATM   21  H7  UNL     1      27.336   2.969  52.488  1.00  0.00     0.167 HD
BRANCH  20  22
HETATM   22  C9  UNL     1      26.203   3.086  50.701  1.00  0.00     0.057 A 
HETATM   23  C10 UNL     1      25.260   3.447  49.693  1.00  0.00     0.008 A 
HETATM   24  C11 UNL     1      23.890   3.528  49.124  1.00  0.00     0.036 C 
HETATM   25  C17 UNL     1      26.649   3.702  49.597  1.00  0.00     0.306 A 
HETATM   26  C12 UNL     1      23.337   4.644  48.591  1.00  0.00     0.136 C 
HETATM   27  O2  UNL     1      23.766   5.972  48.389  1.00  0.00    -0.356 OA
HETATM   28  C13 UNL     1      25.088   6.595  48.219  1.00  0.00     0.156 C 
HETATM   29  C14 UNL     1      24.894   8.005  48.795  1.00  0.00     0.042 C 
HETATM   30  C15 UNL     1      25.893   5.716  49.002  1.00  0.00     0.246 C 
HETATM   31  C16 UNL     1      25.250   5.899  50.309  1.00  0.00     0.045 C 
HETATM   32  N4  UNL     1      27.051   5.110  49.317  1.00  0.00     0.105 N 
HETATM   33  H18 UNL     1      27.540   5.428  50.175  1.00  0.00     0.317 HD
ENDBRANCH  20  22
ENDBRANCH  18  20
ENDBRANCH  11  13
ENDBRANCH   3  11
BRANCH   1  34
HETATM   34  O1  UNL     1      17.949  -0.735  52.712  1.00  0.00    -0.353 OA
HETATM   35  C1  UNL     1      17.995  -1.939  53.449  1.00  0.00     0.210 C 
ENDBRANCH   1  34
TORSDOF 6
ENDMDL
MODEL 5
REMARK VINA RESULT:      -8.3      1.940      2.845
REMARK  6 active torsions:
REMARK  status: ('A' for Active; 'I' for Inactive)
REMARK    1  A    between atoms: O1_2  and  C2_3 
REMARK    2  A    between atoms: C4_5  and  N1_6 
REMARK    3  A    between atoms: N1_6  and  C5_7 
REMARK    4  A    between atoms: C8_12  and  N3_13 
REMARK    5  A    between atoms: N3_13  and  C9_14 
REMARK    6  A    between atoms: C21_30  and  O4_31 
ROOT
HETATM    1  C2  UNL     1      27.118   9.134  46.580  1.00  0.00     0.106 A 
HETATM    2  C3  UNL     1      26.834   7.975  47.263  1.00  0.00     0.069 A 
HETATM    3  C4  UNL     1      27.466   7.571  48.414  1.00  0.00     0.054 A 
HETATM    4  C18 UNL     1      28.439   8.438  48.853  1.00  0.00     0.069 A 
HETATM    5  C19 UNL     1      28.820   9.642  48.251  1.00  0.00     0.106 A 
HETATM    6  O3  UNL     1      29.725  10.377  48.725  1.00  0.00    -0.353 OA
HETATM    7  C20 UNL     1      30.651  11.116  49.223  1.00  0.00     0.210 C 
HETATM    8  C21 UNL     1      28.115   9.945  47.100  1.00  0.00     0.135 A 
ENDROOT
BRANCH   8   9
HETATM    9  O4  UNL     1      28.455  11.131  46.461  1.00  0.00    -0.351 OA
HETATM   10  C22 UNL     1      27.932  12.392  46.785  1.00  0.00     0.210 C 
ENDBRANCH   8   9
BRANCH   3  11
HETATM   11  N1  UNL     1      27.091   6.350  49.022  1.00  0.00    -0.188 N 
HETATM   12  H5  UNL     1      27.725   5.519  48.845  1.00  0.00     0.184 HD
BRANCH  11  13
HETATM   13  C5  UNL     1      25.965   6.097  49.846  1.00  0.00     0.728 A 
HETATM   14  N2  UNL     1      25.185   7.026  50.404  1.00  0.00    -0.072 NA
HETATM   15  C6  UNL     1      24.119   6.819  51.181  1.00  0.00     0.182 A 
HETATM   16  C7  UNL     1      23.764   5.522  51.454  1.00  0.00     0.180 A 
HETATM   17  F1  UNL     1      22.691   5.326  52.233  1.00  0.00    -0.200 F 
HETATM   18  C8  UNL     1      24.552   4.547  50.892  1.00  0.00     0.187 A 
HETATM   19  N5  UNL     1      25.597   4.835  50.129  1.00  0.00    -0.042 NA
BRANCH  18  20
HETATM   20  N3  UNL     1      24.210   3.195  51.164  1.00  0.00    -0.339 N 
HETATM   21  H7  UNL     1      23.611   2.657  50.476  1.00  0.00     0.167 HD
BRANCH  20  22
HETATM   22  C9  UNL     1      24.627   2.491  52.329  1.00  0.00     0.057 A 
HETATM   23  C10 UNL     1      24.724   1.305  53.117  1.00  0.00     0.008 A 
HETATM   24  C11 UNL     1      24.483  -0.137  53.382  1.00  0.00     0.036 C 
HETATM   25  C17 UNL     1      25.261   2.555  53.509  1.00  0.00     0.306 A 
HETATM   26  C12 UNL     1      25.425  -1.016  53.796  1.00  0.00     0.136 C 
HETATM   27  O2  UNL     1      26.801  -0.938  54.098  1.00  0.00    -0.356 OA
HETATM   28  C13 UNL     1      27.677   0.152  54.553  1.00  0.00     0.156 C 
HETATM   29  C14 UNL     1      29.045  -0.221  53.963  1.00  0.00     0.042 C 
HETATM   30  C15 UNL     1      27.033   1.272  53.950  1.00  0.00     0.246 C 
HETATM   31  C16 UNL     1      27.150   0.889  52.538  1.00  0.00     0.045 C 
HETATM   32  N4  UNL     1      26.704   2.575  53.883  1.00  0.00     0.105 N 
HETATM   33  H18 UNL     1      27.165   3.149  53.152  1.00  0.00     0.317 HD
ENDBRANCH  20  22
ENDBRANCH  18  20
ENDBRANCH  11  13
ENDBRANCH   3  11
BRANCH   1  34
HETATM   34  O1  UNL     1      26.480   9.539  45.422  1.00  0.00    -0.353 OA
HETATM   35  C1  UNL     1      25.073   9.442  45.350  1.00  0.00     0.210 C 
ENDBRANCH   1  34
TORSDOF 6
ENDMDL
MODEL 6
REMARK VINA RESULT:      -8.3      2.275      3.249
REMARK  6 active torsions:
REMARK  status: ('A' for Active; 'I' for Inactive)
REMARK    1  A    between atoms: O1_2  and  C2_3 
REMARK    2  A    between atoms: C4_5  and  N1_6 
REMARK    3  A    between atoms: N1_6  and  C5_7 
REMARK    4  A    between atoms: C8_12  and  N3_13 
REMARK    5  A    between atoms: N3_13  and  C9_14 
REMARK    6  A    between atoms: C21_30  and  O4_31 
ROOT
HETATM    1  C2  UNL     1      28.442  10.063  48.877  1.00  0.00     0.106 A 
HETATM    2  C3  UNL     1      27.647   9.093  49.440  1.00  0.00     0.069 A 
HETATM    3  C4  UNL     1      26.440   8.679  48.932  1.00  0.00     0.054 A 
HETATM    4  C18 UNL     1      26.066   9.324  47.777  1.00  0.00     0.069 A 
HETATM    5  C19 UNL     1      26.782  10.324  47.109  1.00  0.00     0.106 A 
HETATM    6  O3  UNL     1      26.362  10.862  46.052  1.00  0.00    -0.353 OA
HETATM    7  C20 UNL     1      25.919  11.402  44.972  1.00  0.00     0.210 C 
HETATM    8  C21 UNL     1      27.981  10.658  47.712  1.00  0.00     0.135 A 
ENDROOT
BRANCH   8   9
HETATM    9  O4  UNL     1      28.732  11.648  47.089  1.00  0.00    -0.351 OA
HETATM   10  C22 UNL     1      29.648  11.421  46.051  1.00  0.00     0.210 C 
ENDBRANCH   8   9
BRANCH   3  11
HETATM   11  N1  UNL     1      25.708   7.675  49.609  1.00  0.00    -0.188 N 
HETATM   12  H5  UNL     1      24.871   7.999  50.174  1.00  0.00     0.184 HD
BRANCH  11  13
HETATM   13  C5  UNL     1      25.954   6.279  49.626  1.00  0.00     0.728 A 
HETATM   14  N2  UNL     1      26.960   5.659  49.003  1.00  0.00    -0.072 NA
HETATM   15  C6  UNL     1      27.219   4.348  49.002  1.00  0.00     0.182 A 
HETATM   16  C7  UNL     1      26.378   3.526  49.708  1.00  0.00     0.180 A 
HETATM   17  F1  UNL     1      26.648   2.214  49.703  1.00  0.00    -0.200 F 
HETATM   18  C8  UNL     1      25.334   4.140  50.357  1.00  0.00     0.187 A 
HETATM   19  N5  UNL     1      25.144   5.452  50.310  1.00  0.00    -0.042 NA
BRANCH  18  20
HETATM   20  N3  UNL     1      24.443   3.310  51.090  1.00  0.00    -0.339 N 
HETATM   21  H7  UNL     1      23.447   3.183  50.754  1.00  0.00     0.167 HD
BRANCH  20  22
HETATM   22  C9  UNL     1      24.805   2.616  52.279  1.00  0.00     0.057 A 
HETATM   23  C10 UNL     1      24.820   1.450  53.102  1.00  0.00     0.008 A 
HETATM   24  C11 UNL     1      24.486   0.034  53.406  1.00  0.00     0.036 C 
HETATM   25  C17 UNL     1      25.430   2.675  53.465  1.00  0.00     0.306 A 
HETATM   26  C12 UNL     1      25.367  -0.890  53.856  1.00  0.00     0.136 C 
HETATM   27  O2  UNL     1      26.742  -0.888  54.171  1.00  0.00    -0.356 OA
HETATM   28  C13 UNL     1      27.681   0.158  54.604  1.00  0.00     0.156 C 
HETATM   29  C14 UNL     1      29.028  -0.318  54.041  1.00  0.00     0.042 C 
HETATM   30  C15 UNL     1      27.114   1.298  53.962  1.00  0.00     0.246 C 
HETATM   31  C16 UNL     1      27.220   0.866  52.563  1.00  0.00     0.045 C 
HETATM   32  N4  UNL     1      26.868   2.615  53.854  1.00  0.00     0.105 N 
HETATM   33  H18 UNL     1      27.371   3.138  53.112  1.00  0.00     0.317 HD
ENDBRANCH  20  22
ENDBRANCH  18  20
ENDBRANCH  11  13
ENDBRANCH   3  11
BRANCH   1  34
HETATM   34  O1  UNL     1      29.657  10.478  49.389  1.00  0.00    -0.353 OA
HETATM   35  C1  UNL     1      30.780   9.634  49.247  1.00  0.00     0.210 C 
ENDBRANCH   1  34
TORSDOF 6
ENDMDL
MODEL 7
REMARK VINA RESULT:      -8.2      4.894      8.072
REMARK  6 active torsions:
REMARK  status: ('A' for Active; 'I' for Inactive)
REMARK    1  A    between atoms: O1_2  and  C2_3 
REMARK    2  A    between atoms: C4_5  and  N1_6 
REMARK    3  A    between atoms: N1_6  and  C5_7 
REMARK    4  A    between atoms: C8_12  and  N3_13 
REMARK    5  A    between atoms: N3_13  and  C9_14 
REMARK    6  A    between atoms: C21_30  and  O4_31 
ROOT
HETATM    1  C2  UNL     1      24.347   0.318  53.287  1.00  0.00     0.106 A 
HETATM    2  C3  UNL     1      23.919   1.617  53.144  1.00  0.00     0.069 A 
HETATM    3  C4  UNL     1      24.722   2.724  53.277  1.00  0.00     0.054 A 
HETATM    4  C18 UNL     1      26.032   2.434  53.573  1.00  0.00     0.069 A 
HETATM    5  C19 UNL     1      26.590   1.162  53.742  1.00  0.00     0.106 A 
HETATM    6  O3  UNL     1      27.806   0.990  54.014  1.00  0.00    -0.353 OA
HETATM    7  C20 UNL     1      29.052   0.831  54.289  1.00  0.00     0.210 C 
HETATM    8  C21 UNL     1      25.688   0.125  53.585  1.00  0.00     0.135 A 
ENDROOT
BRANCH   8   9
HETATM    9  O4  UNL     1      26.190  -1.160  53.745  1.00  0.00    -0.351 OA
HETATM   10  C22 UNL     1      26.822  -1.902  52.736  1.00  0.00     0.210 C 
ENDBRANCH   8   9
BRANCH   3  11
HETATM   11  N1  UNL     1      24.161   4.013  53.115  1.00  0.00    -0.188 N 
HETATM   12  H5  UNL     1      23.939   4.548  54.003  1.00  0.00     0.184 HD
BRANCH  11  13
HETATM   13  C5  UNL     1      23.856   4.685  51.904  1.00  0.00     0.728 A 
HETATM   14  N2  UNL     1      24.035   5.989  51.673  1.00  0.00    -0.072 NA
HETATM   15  C6  UNL     1      23.761   6.649  50.544  1.00  0.00     0.182 A 
HETATM   16  C7  UNL     1      23.238   5.938  49.494  1.00  0.00     0.180 A 
HETATM   17  F1  UNL     1      22.970   6.610  48.366  1.00  0.00    -0.200 F 
HETATM   18  C8  UNL     1      23.044   4.595  49.708  1.00  0.00     0.187 A 
HETATM   19  N5  UNL     1      23.343   4.011  50.860  1.00  0.00    -0.042 NA
BRANCH  18  20
HETATM   20  N3  UNL     1      22.497   3.837  48.638  1.00  0.00    -0.339 N 
HETATM   21  H7  UNL     1      22.725   4.101  47.638  1.00  0.00     0.167 HD
BRANCH  20  22
HETATM   22  C9  UNL     1      21.641   2.714  48.818  1.00  0.00     0.057 A 
HETATM   23  C10 UNL     1      21.221   1.552  49.532  1.00  0.00     0.008 A 
HETATM   24  C11 UNL     1      21.315   0.570  50.643  1.00  0.00     0.036 C 
HETATM   25  C17 UNL     1      20.593   2.019  48.353  1.00  0.00     0.306 A 
HETATM   26  C12 UNL     1      20.271   0.155  51.400  1.00  0.00     0.136 C 
HETATM   27  O2  UNL     1      18.890   0.439  51.439  1.00  0.00    -0.356 OA
HETATM   28  C13 UNL     1      17.923   0.901  50.432  1.00  0.00     0.156 C 
HETATM   29  C14 UNL     1      16.895   1.686  51.260  1.00  0.00     0.042 C 
HETATM   30  C15 UNL     1      18.771   1.688  49.598  1.00  0.00     0.246 C 
HETATM   31  C16 UNL     1      19.218   2.685  50.578  1.00  0.00     0.045 C 
HETATM   32  N4  UNL     1      19.121   2.241  48.423  1.00  0.00     0.105 N 
HETATM   33  H18 UNL     1      18.996   3.266  48.321  1.00  0.00     0.317 HD
ENDBRANCH  20  22
ENDBRANCH  18  20
ENDBRANCH  11  13
ENDBRANCH   3  11
BRANCH   1  34
HETATM   34  O1  UNL     1      23.539  -0.795  53.151  1.00  0.00    -0.353 OA
HETATM   35  C1  UNL     1      22.543  -1.035  54.122  1.00  0.00     0.210 C 
ENDBRANCH   1  34
TORSDOF 6
ENDMDL
MODEL 8
REMARK VINA RESULT:      -8.2      2.554      8.511
REMARK  6 active torsions:
REMARK  status: ('A' for Active; 'I' for Inactive)
REMARK    1  A    between atoms: O1_2  and  C2_3 
REMARK    2  A    between atoms: C4_5  and  N1_6 
REMARK    3  A    between atoms: N1_6  and  C5_7 
REMARK    4  A    between atoms: C8_12  and  N3_13 
REMARK    5  A    between atoms: N3_13  and  C9_14 
REMARK    6  A    between atoms: C21_30  and  O4_31 
ROOT
HETATM    1  C2  UNL     1      24.218   1.504  51.882  1.00  0.00     0.106 A 
HETATM    2  C3  UNL     1      24.251   2.440  50.875  1.00  0.00     0.069 A 
HETATM    3  C4  UNL     1      25.376   3.120  50.476  1.00  0.00     0.054 A 
HETATM    4  C18 UNL     1      26.511   2.788  51.178  1.00  0.00     0.069 A 
HETATM    5  C19 UNL     1      26.608   1.857  52.218  1.00  0.00     0.106 A 
HETATM    6  O3  UNL     1      27.694   1.615  52.806  1.00  0.00    -0.353 OA
HETATM    7  C20 UNL     1      28.811   1.378  53.397  1.00  0.00     0.210 C 
HETATM    8  C21 UNL     1      25.414   1.235  52.532  1.00  0.00     0.135 A 
ENDROOT
BRANCH   8   9
HETATM    9  O4  UNL     1      25.455   0.301  53.560  1.00  0.00    -0.351 OA
HETATM   10  C22 UNL     1      25.826  -1.043  53.405  1.00  0.00     0.210 C 
ENDBRANCH   8   9
BRANCH   3  11
HETATM   11  N1  UNL     1      25.280   4.069  49.432  1.00  0.00    -0.188 N 
HETATM   12  H5  UNL     1      24.609   3.840  48.643  1.00  0.00     0.184 HD
BRANCH  11  13
HETATM   13  C5  UNL     1      25.974   5.300  49.306  1.00  0.00     0.728 A 
HETATM   14  N2  UNL     1      25.639   6.446  49.903  1.00  0.00    -0.072 NA
HETATM   15  C6  UNL     1      26.272   7.618  49.807  1.00  0.00     0.182 A 
HETATM   16  C7  UNL     1      27.391   7.681  49.015  1.00  0.00     0.180 A 
HETATM   17  F1  UNL     1      28.020   8.861  48.927  1.00  0.00    -0.200 F 
HETATM   18  C8  UNL     1      27.756   6.514  48.388  1.00  0.00     0.187 A 
HETATM   19  N5  UNL     1      27.072   5.388  48.535  1.00  0.00    -0.042 NA
BRANCH  18  20
HETATM   20  N3  UNL     1      28.907   6.554  47.556  1.00  0.00    -0.339 N 
HETATM   21  H7  UNL     1      28.837   6.964  46.582  1.00  0.00     0.167 HD
BRANCH  20  22
HETATM   22  C9  UNL     1      30.186   6.070  47.949  1.00  0.00     0.057 A 
HETATM   23  C10 UNL     1      31.420   5.405  47.679  1.00  0.00     0.008 A 
HETATM   24  C11 UNL     1      32.373   4.682  46.798  1.00  0.00     0.036 C 
HETATM   25  C17 UNL     1      31.085   5.957  48.938  1.00  0.00     0.306 A 
HETATM   26  C12 UNL     1      33.690   4.975  46.677  1.00  0.00     0.136 C 
HETATM   27  O2  UNL     1      34.557   5.932  47.246  1.00  0.00    -0.356 OA
HETATM   28  C13 UNL     1      34.549   6.679  48.513  1.00  0.00     0.156 C 
HETATM   29  C14 UNL     1      35.268   7.988  48.159  1.00  0.00     0.042 C 
HETATM   30  C15 UNL     1      33.146   6.790  48.741  1.00  0.00     0.246 C 
HETATM   31  C16 UNL     1      32.764   7.542  47.539  1.00  0.00     0.045 C 
HETATM   32  N4  UNL     1      32.064   6.912  49.530  1.00  0.00     0.105 N 
HETATM   33  H18 UNL     1      31.578   7.829  49.538  1.00  0.00     0.317 HD
ENDBRANCH  20  22
ENDBRANCH  18  20
ENDBRANCH  11  13
ENDBRANCH   3  11
BRANCH   1  34
HETATM   34  O1  UNL     1      23.086   0.819  52.282  1.00  0.00    -0.353 OA
HETATM   35  C1  UNL     1      21.924   1.554  52.602  1.00  0.00     0.210 C 
ENDBRANCH   1  34
TORSDOF 6
ENDMDL
MODEL 9
REMARK VINA RESULT:      -8.1      3.275      5.407
REMARK  6 active torsions:
REMARK  status: ('A' for Active; 'I' for Inactive)
REMARK    1  A    between atoms: O1_2  and  C2_3 
REMARK    2  A    between atoms: C4_5  and  N1_6 
REMARK    3  A    between atoms: N1_6  and  C5_7 
REMARK    4  A    between atoms: C8_12  and  N3_13 
REMARK    5  A    between atoms: N3_13  and  C9_14 
REMARK    6  A    between atoms: C21_30  and  O4_31 
ROOT
HETATM    1  C2  UNL     1      27.864   6.230  48.206  1.00  0.00     0.106 A 
HETATM    2  C3  UNL     1      27.714   4.927  48.618  1.00  0.00     0.069 A 
HETATM    3  C4  UNL     1      26.646   4.453  49.341  1.00  0.00     0.054 A 
HETATM    4  C18 UNL     1      25.701   5.406  49.635  1.00  0.00     0.069 A 
HETATM    5  C19 UNL     1      25.736   6.758  49.275  1.00  0.00     0.106 A 
HETATM    6  O3  UNL     1      24.821   7.563  49.589  1.00  0.00    -0.353 OA
HETATM    7  C20 UNL     1      23.878   8.373  49.916  1.00  0.00     0.210 C 
HETATM    8  C21 UNL     1      26.857   7.120  48.550  1.00  0.00     0.135 A 
ENDROOT
BRANCH   8   9
HETATM    9  O4  UNL     1      26.942   8.453  48.168  1.00  0.00    -0.351 OA
HETATM   10  C22 UNL     1      27.512   9.472  48.946  1.00  0.00     0.210 C 
ENDBRANCH   8   9
BRANCH   3  11
HETATM   11  N1  UNL     1      26.611   3.089  49.715  1.00  0.00    -0.188 N 
HETATM   12  H5  UNL     1      26.670   2.380  48.929  1.00  0.00     0.184 HD
BRANCH  11  13
HETATM   13  C5  UNL     1      26.507   2.546  51.021  1.00  0.00     0.728 A 
HETATM   14  N2  UNL     1      27.501   2.460  51.909  1.00  0.00    -0.072 NA
HETATM   15  C6  UNL     1      27.433   1.957  53.144  1.00  0.00     0.182 A 
HETATM   16  C7  UNL     1      26.226   1.469  53.575  1.00  0.00     0.180 A 
HETATM   17  F1  UNL     1      26.169   0.970  54.817  1.00  0.00    -0.200 F 
HETATM   18  C8  UNL     1      25.187   1.545  52.679  1.00  0.00     0.187 A 
HETATM   19  N5  UNL     1      25.335   2.061  51.466  1.00  0.00    -0.042 NA
BRANCH  18  20
HETATM   20  N3  UNL     1      23.927   1.040  53.098  1.00  0.00    -0.339 N 
HETATM   21  H7  UNL     1      23.857   0.481  53.994  1.00  0.00     0.167 HD
BRANCH  20  22
HETATM   22  C9  UNL     1      22.714   1.240  52.379  1.00  0.00     0.057 A 
HETATM   23  C10 UNL     1      21.466   1.900  52.172  1.00  0.00     0.008 A 
HETATM   24  C11 UNL     1      20.417   2.895  52.516  1.00  0.00     0.036 C 
HETATM   25  C17 UNL     1      21.956   0.868  51.337  1.00  0.00     0.306 A 
HETATM   26  C12 UNL     1      19.845   3.752  51.637  1.00  0.00     0.136 C 
HETATM   27  O2  UNL     1      19.988   4.011  50.258  1.00  0.00    -0.356 OA
HETATM   28  C13 UNL     1      20.427   3.197  49.115  1.00  0.00     0.156 C 
HETATM   29  C14 UNL     1      21.042   4.229  48.158  1.00  0.00     0.042 C 
HETATM   30  C15 UNL     1      21.354   2.325  49.757  1.00  0.00     0.246 C 
HETATM   31  C16 UNL     1      22.314   3.317  50.257  1.00  0.00     0.045 C 
HETATM   32  N4  UNL     1      22.026   1.167  49.878  1.00  0.00     0.105 N 
HETATM   33  H18 UNL     1      23.039   1.174  49.651  1.00  0.00     0.317 HD
ENDBRANCH  20  22
ENDBRANCH  18  20
ENDBRANCH  11  13
ENDBRANCH   3  11
BRANCH   1  34
HETATM   34  O1  UNL     1      28.938   6.706  47.477  1.00  0.00    -0.353 OA
HETATM   35  C1  UNL     1      30.195   6.816  48.111  1.00  0.00     0.210 C 
ENDBRANCH   1  34
TORSDOF 6
ENDMDL
