MODEL 1
REMARK VINA RESULT:      -7.8      0.000      0.000
REMARK  1 active torsions:
REMARK  status: ('A' for Active; 'I' for Inactive)
REMARK    1  A    between atoms: C1_2  and  C2_3 
ROOT
HETATM    1  C2  UNL     1      25.888   4.034  50.157  1.00  0.00     0.012 C 
HETATM    2  C3  UNL     1      24.567   4.106  50.098  1.00  0.00    -0.049 C 
HETATM    3  C4  UNL     1      23.795   3.423  49.025  1.00  0.00     0.079 C 
HETATM    4  C5  UNL     1      22.852   2.413  49.513  1.00  0.00    -0.027 A 
HETATM    5  C6  UNL     1      23.192   1.796  50.696  1.00  0.00     0.010 A 
HETATM    6  C7  UNL     1      22.466   0.820  51.345  1.00  0.00     0.001 A 
HETATM    7  C8  UNL     1      21.283   0.416  50.756  1.00  0.00     0.002 A 
HETATM    8  C9  UNL     1      20.924   1.033  49.553  1.00  0.00     0.030 A 
HETATM    9  C10 UNL     1      21.673   2.009  48.930  1.00  0.00     0.039 A 
HETATM   10  N1  UNL     1      21.012   2.399  47.738  1.00  0.00    -0.352 N 
HETATM   11  C11 UNL     1      20.653   3.716  47.340  1.00  0.00     0.087 C 
HETATM   12  C12 UNL     1      20.381   4.581  48.308  1.00  0.00     0.111 C 
HETATM   13  N2  UNL     1      19.682   4.287  49.558  1.00  0.00    -0.380 N 
HETATM   14  C13 UNL     1      19.966   4.572  50.968  1.00  0.00     0.161 C 
HETATM   15  C14 UNL     1      21.173   5.484  51.141  1.00  0.00    -0.010 C 
HETATM   16  C15 UNL     1      21.780   5.189  52.332  1.00  0.00    -0.011 C 
HETATM   17  C16 UNL     1      23.209   4.778  52.449  1.00  0.00     0.067 C 
HETATM   18  C17 UNL     1      23.935   4.911  51.159  1.00  0.00    -0.048 C 
HETATM   19  C18 UNL     1      24.155   6.152  50.650  1.00  0.00     0.011 C 
HETATM   20  C19 UNL     1      23.000   7.053  50.345  1.00  0.00     0.038 C 
HETATM   21  C20 UNL     1      21.731   6.568  50.221  1.00  0.00     0.085 C 
HETATM   22  O1  UNL     1      20.833   7.054  49.200  1.00  0.00    -0.289 OA
HETATM   23  C21 UNL     1      20.824   5.981  48.202  1.00  0.00     0.200 C 
HETATM   24  N3  UNL     1      21.330   6.837  47.392  1.00  0.00    -0.216 NA
HETATM   25  C22 UNL     1      21.916   6.445  46.115  1.00  0.00     0.234 C 
HETATM   26  N4  UNL     1      21.669   5.522  45.244  1.00  0.00    -0.251 NA
HETATM   27  P1  UNL     1      20.637   4.057  45.541  1.00  0.00     0.053 P 
HETATM   28  H10 UNL     1      20.712   1.721  47.004  1.00  0.00     0.166 HD
HETATM   29  H11 UNL     1      18.804   3.777  49.464  1.00  0.00     0.160 HD
HETATM   30  H20 UNL     1      19.301   4.253  45.037  1.00  0.00     0.089 HD
ENDROOT
BRANCH   1  31
HETATM   31  C1  UNL     1      26.937   3.376  49.345  1.00  0.00     0.250 C 
HETATM   32  F1  UNL     1      27.646   4.321  48.598  1.00  0.00    -0.251 F 
ENDBRANCH   1  31
TORSDOF 1
ENDMDL
MODEL 2
REMARK VINA RESULT:      -7.4      7.404      9.694
REMARK  1 active torsions:
REMARK  status: ('A' for Active; 'I' for Inactive)
REMARK    1  A    between atoms: C1_2  and  C2_3 
ROOT
HETATM    1  C2  UNL     1      29.456  10.643  43.729  1.00  0.00     0.012 C 
HETATM    2  C3  UNL     1      29.531  10.305  45.007  1.00  0.00    -0.049 C 
HETATM    3  C4  UNL     1      28.883   9.072  45.528  1.00  0.00     0.079 C 
HETATM    4  C5  UNL     1      29.815   8.103  46.113  1.00  0.00    -0.027 A 
HETATM    5  C6  UNL     1      31.092   8.115  45.600  1.00  0.00     0.010 A 
HETATM    6  C7  UNL     1      32.135   7.301  45.988  1.00  0.00     0.001 A 
HETATM    7  C8  UNL     1      31.879   6.381  46.987  1.00  0.00     0.002 A 
HETATM    8  C9  UNL     1      30.586   6.356  47.518  1.00  0.00     0.030 A 
HETATM    9  C10 UNL     1      29.564   7.186  47.108  1.00  0.00     0.039 A 
HETATM   10  N1  UNL     1      28.399   6.881  47.856  1.00  0.00    -0.352 N 
HETATM   11  C11 UNL     1      27.592   7.780  48.605  1.00  0.00     0.087 C 
HETATM   12  C12 UNL     1      28.201   8.835  49.133  1.00  0.00     0.111 C 
HETATM   13  N2  UNL     1      29.545   8.858  49.707  1.00  0.00    -0.380 N 
HETATM   14  C13 UNL     1      30.708   9.731  49.527  1.00  0.00     0.161 C 
HETATM   15  C14 UNL     1      30.391  10.944  48.662  1.00  0.00    -0.010 C 
HETATM   16  C15 UNL     1      31.527  11.318  47.995  1.00  0.00    -0.011 C 
HETATM   17  C16 UNL     1      31.616  11.411  46.509  1.00  0.00     0.067 C 
HETATM   18  C17 UNL     1      30.291  11.239  45.859  1.00  0.00    -0.048 C 
HETATM   19  C18 UNL     1      29.340  12.195  46.033  1.00  0.00     0.011 C 
HETATM   20  C19 UNL     1      28.865  12.538  47.411  1.00  0.00     0.038 C 
HETATM   21  C20 UNL     1      29.079  11.701  48.467  1.00  0.00     0.085 C 
HETATM   22  O1  UNL     1      28.065  11.476  49.470  1.00  0.00    -0.289 OA
HETATM   23  C21 UNL     1      27.538  10.148  49.145  1.00  0.00     0.200 C 
HETATM   24  N3  UNL     1      26.417  10.733  48.929  1.00  0.00    -0.216 NA
HETATM   25  C22 UNL     1      25.313  10.065  48.248  1.00  0.00     0.234 C 
HETATM   26  N4  UNL     1      24.876   8.849  48.197  1.00  0.00    -0.251 NA
HETATM   27  P1  UNL     1      25.809   7.383  48.725  1.00  0.00     0.053 P 
HETATM   28  H10 UNL     1      28.006   5.917  47.930  1.00  0.00     0.166 HD
HETATM   29  H11 UNL     1      29.750   8.122  50.384  1.00  0.00     0.160 HD
HETATM   30  H20 UNL     1      25.431   6.978  50.055  1.00  0.00     0.089 HD
ENDROOT
BRANCH   1  31
HETATM   31  C1  UNL     1      28.823  10.054  42.527  1.00  0.00     0.250 C 
HETATM   32  F1  UNL     1      27.432  10.029  42.665  1.00  0.00    -0.251 F 
ENDBRANCH   1  31
TORSDOF 1
ENDMDL
MODEL 3
REMARK VINA RESULT:      -7.4      3.307      5.571
REMARK  1 active torsions:
REMARK  status: ('A' for Active; 'I' for Inactive)
REMARK    1  A    between atoms: C1_2  and  C2_3 
ROOT
HETATM    1  C2  UNL     1      21.417   3.694  46.294  1.00  0.00     0.012 C 
HETATM    2  C3  UNL     1      21.798   4.188  47.462  1.00  0.00    -0.049 C 
HETATM    3  C4  UNL     1      22.554   5.465  47.561  1.00  0.00     0.079 C 
HETATM    4  C5  UNL     1      21.867   6.514  48.320  1.00  0.00    -0.027 A 
HETATM    5  C6  UNL     1      20.492   6.460  48.308  1.00  0.00     0.010 A 
HETATM    6  C7  UNL     1      19.636   7.333  48.945  1.00  0.00     0.001 A 
HETATM    7  C8  UNL     1      20.208   8.365  49.666  1.00  0.00     0.002 A 
HETATM    8  C9  UNL     1      21.604   8.434  49.687  1.00  0.00     0.030 A 
HETATM    9  C10 UNL     1      22.433   7.542  49.039  1.00  0.00     0.039 A 
HETATM   10  N1  UNL     1      23.780   7.918  49.273  1.00  0.00    -0.352 N 
HETATM   11  C11 UNL     1      24.828   7.105  49.783  1.00  0.00     0.087 C 
HETATM   12  C12 UNL     1      24.481   6.134  50.619  1.00  0.00     0.111 C 
HETATM   13  N2  UNL     1      23.436   6.205  51.638  1.00  0.00    -0.380 N 
HETATM   14  C13 UNL     1      22.311   5.335  51.997  1.00  0.00     0.161 C 
HETATM   15  C14 UNL     1      22.331   4.019  51.229  1.00  0.00    -0.010 C 
HETATM   16  C15 UNL     1      21.043   3.585  51.068  1.00  0.00    -0.011 C 
HETATM   17  C16 UNL     1      20.427   3.311  49.737  1.00  0.00     0.067 C 
HETATM   18  C17 UNL     1      21.423   3.380  48.637  1.00  0.00    -0.048 C 
HETATM   19  C18 UNL     1      22.401   2.437  48.571  1.00  0.00     0.011 C 
HETATM   20  C19 UNL     1      23.350   2.259  49.715  1.00  0.00     0.038 C 
HETATM   21  C20 UNL     1      23.507   3.223  50.667  1.00  0.00     0.085 C 
HETATM   22  O1  UNL     1      24.807   3.552  51.201  1.00  0.00    -0.289 OA
HETATM   23  C21 UNL     1      25.142   4.821  50.550  1.00  0.00     0.200 C 
HETATM   24  N3  UNL     1      26.126   4.196  50.016  1.00  0.00    -0.216 NA
HETATM   25  C22 UNL     1      26.891   4.756  48.907  1.00  0.00     0.234 C 
HETATM   26  N4  UNL     1      27.245   5.949  48.554  1.00  0.00    -0.251 NA
HETATM   27  P1  UNL     1      26.522   7.484  49.202  1.00  0.00     0.053 P 
HETATM   28  H10 UNL     1      24.145   8.877  49.083  1.00  0.00     0.166 HD
HETATM   29  H11 UNL     1      23.468   7.021  52.249  1.00  0.00     0.160 HD
HETATM   30  H20 UNL     1      27.342   8.044  50.247  1.00  0.00     0.089 HD
ENDROOT
BRANCH   1  31
HETATM   31  C1  UNL     1      21.557   4.120  44.882  1.00  0.00     0.250 C 
HETATM   32  F1  UNL     1      20.641   3.444  44.072  1.00  0.00    -0.251 F 
ENDBRANCH   1  31
TORSDOF 1
ENDMDL
MODEL 4
REMARK VINA RESULT:      -7.3      7.592      9.530
REMARK  1 active torsions:
REMARK  status: ('A' for Active; 'I' for Inactive)
REMARK    1  A    between atoms: C1_2  and  C2_3 
ROOT
HETATM    1  C2  UNL     1      32.435   7.286  45.806  1.00  0.00     0.012 C 
HETATM    2  C3  UNL     1      31.494   8.019  46.379  1.00  0.00    -0.049 C 
HETATM    3  C4  UNL     1      30.145   8.176  45.770  1.00  0.00     0.079 C 
HETATM    4  C5  UNL     1      29.047   7.676  46.602  1.00  0.00    -0.027 A 
HETATM    5  C6  UNL     1      29.364   6.645  47.457  1.00  0.00     0.010 A 
HETATM    6  C7  UNL     1      28.502   6.016  48.331  1.00  0.00     0.001 A 
HETATM    7  C8  UNL     1      27.192   6.456  48.352  1.00  0.00     0.002 A 
HETATM    8  C9  UNL     1      26.855   7.503  47.488  1.00  0.00     0.030 A 
HETATM    9  C10 UNL     1      27.742   8.112  46.626  1.00  0.00     0.039 A 
HETATM   10  N1  UNL     1      27.057   9.122  45.905  1.00  0.00    -0.352 N 
HETATM   11  C11 UNL     1      27.418  10.491  45.779  1.00  0.00     0.087 C 
HETATM   12  C12 UNL     1      28.074  11.034  46.797  1.00  0.00     0.111 C 
HETATM   13  N2  UNL     1      27.846  10.762  48.214  1.00  0.00    -0.380 N 
HETATM   14  C13 UNL     1      28.729  10.421  49.334  1.00  0.00     0.161 C 
HETATM   15  C14 UNL     1      30.202  10.509  48.956  1.00  0.00    -0.010 C 
HETATM   16  C15 UNL     1      30.903   9.604  49.707  1.00  0.00    -0.011 C 
HETATM   17  C16 UNL     1      31.746   8.523  49.119  1.00  0.00     0.067 C 
HETATM   18  C17 UNL     1      31.885   8.663  47.646  1.00  0.00    -0.048 C 
HETATM   19  C18 UNL     1      32.584   9.717  47.146  1.00  0.00     0.011 C 
HETATM   20  C19 UNL     1      32.157  11.117  47.460  1.00  0.00     0.038 C 
HETATM   21  C20 UNL     1      30.906  11.392  47.928  1.00  0.00     0.085 C 
HETATM   22  O1  UNL     1      30.165  12.545  47.473  1.00  0.00    -0.289 OA
HETATM   23  C21 UNL     1      29.173  11.982  46.553  1.00  0.00     0.200 C 
HETATM   24  N3  UNL     1      29.746  12.672  45.637  1.00  0.00    -0.216 NA
HETATM   25  C22 UNL     1      29.483  12.452  44.219  1.00  0.00     0.234 C 
HETATM   26  N4  UNL     1      28.450  12.091  43.529  1.00  0.00    -0.251 NA
HETATM   27  P1  UNL     1      26.954  11.325  44.216  1.00  0.00     0.053 P 
HETATM   28  H10 UNL     1      26.178   8.944  45.371  1.00  0.00     0.166 HD
HETATM   29  H11 UNL     1      26.876  10.813  48.525  1.00  0.00     0.160 HD
HETATM   30  H20 UNL     1      25.912  12.302  44.411  1.00  0.00     0.089 HD
ENDROOT
BRANCH   1  31
HETATM   31  C1  UNL     1      32.522   6.477  44.568  1.00  0.00     0.250 C 
HETATM   32  F1  UNL     1      32.422   5.114  44.863  1.00  0.00    -0.251 F 
ENDBRANCH   1  31
TORSDOF 1
ENDMDL
MODEL 5
REMARK VINA RESULT:      -7.0      8.524     10.633
REMARK  1 active torsions:
REMARK  status: ('A' for Active; 'I' for Inactive)
REMARK    1  A    between atoms: C1_2  and  C2_3 
ROOT
HETATM    1  C2  UNL     1      32.337   6.068  47.398  1.00  0.00     0.012 C 
HETATM    2  C3  UNL     1      31.742   7.222  47.140  1.00  0.00    -0.049 C 
HETATM    3  C4  UNL     1      30.957   7.434  45.894  1.00  0.00     0.079 C 
HETATM    4  C5  UNL     1      29.543   7.746  46.119  1.00  0.00    -0.027 A 
HETATM    5  C6  UNL     1      28.991   7.230  47.269  1.00  0.00     0.010 A 
HETATM    6  C7  UNL     1      27.688   7.388  47.691  1.00  0.00     0.001 A 
HETATM    7  C8  UNL     1      26.849   8.134  46.884  1.00  0.00     0.002 A 
HETATM    8  C9  UNL     1      27.395   8.665  45.711  1.00  0.00     0.030 A 
HETATM    9  C10 UNL     1      28.705   8.489  45.318  1.00  0.00     0.039 A 
HETATM   10  N1  UNL     1      28.906   9.158  44.085  1.00  0.00    -0.352 N 
HETATM   11  C11 UNL     1      29.907  10.119  43.775  1.00  0.00     0.087 C 
HETATM   12  C12 UNL     1      30.336  10.880  44.774  1.00  0.00     0.111 C 
HETATM   13  N2  UNL     1      29.521  11.420  45.860  1.00  0.00    -0.380 N 
HETATM   14  C13 UNL     1      29.664  11.440  47.319  1.00  0.00     0.161 C 
HETATM   15  C14 UNL     1      31.016  10.907  47.774  1.00  0.00    -0.010 C 
HETATM   16  C15 UNL     1      30.869  10.334  49.009  1.00  0.00    -0.011 C 
HETATM   17  C16 UNL     1      31.223   8.915  49.305  1.00  0.00     0.067 C 
HETATM   18  C17 UNL     1      31.922   8.265  48.167  1.00  0.00    -0.048 C 
HETATM   19  C18 UNL     1      33.170   8.686  47.831  1.00  0.00     0.011 C 
HETATM   20  C19 UNL     1      33.402  10.113  47.444  1.00  0.00     0.038 C 
HETATM   21  C20 UNL     1      32.372  10.926  47.072  1.00  0.00     0.085 C 
HETATM   22  O1  UNL     1      32.504  11.860  45.979  1.00  0.00    -0.289 OA
HETATM   23  C21 UNL     1      31.762  11.227  44.885  1.00  0.00     0.200 C 
HETATM   24  N3  UNL     1      32.880  11.180  44.259  1.00  0.00    -0.216 NA
HETATM   25  C22 UNL     1      33.063  10.375  43.056  1.00  0.00     0.234 C 
HETATM   26  N4  UNL     1      32.305  10.032  42.065  1.00  0.00    -0.251 NA
HETATM   27  P1  UNL     1      30.494  10.167  42.042  1.00  0.00     0.053 P 
HETATM   28  H10 UNL     1      28.306   8.999  43.246  1.00  0.00     0.166 HD
HETATM   29  H11 UNL     1      28.662  11.891  45.577  1.00  0.00     0.160 HD
HETATM   30  H20 UNL     1      30.071  11.363  41.358  1.00  0.00     0.089 HD
ENDROOT
BRANCH   1  31
HETATM   31  C1  UNL     1      32.449   4.769  46.696  1.00  0.00     0.250 C 
HETATM   32  F1  UNL     1      31.356   3.952  46.997  1.00  0.00    -0.251 F 
ENDBRANCH   1  31
TORSDOF 1
ENDMDL
MODEL 6
REMARK VINA RESULT:      -6.6      8.194     10.753
REMARK  1 active torsions:
REMARK  status: ('A' for Active; 'I' for Inactive)
REMARK    1  A    between atoms: C1_2  and  C2_3 
ROOT
HETATM    1  C2  UNL     1      27.588  11.213  43.985  1.00  0.00     0.012 C 
HETATM    2  C3  UNL     1      28.252  11.049  45.118  1.00  0.00    -0.049 C 
HETATM    3  C4  UNL     1      29.119   9.863  45.351  1.00  0.00     0.079 C 
HETATM    4  C5  UNL     1      30.531  10.185  45.581  1.00  0.00    -0.027 A 
HETATM    5  C6  UNL     1      30.987  11.337  44.983  1.00  0.00     0.010 A 
HETATM    6  C7  UNL     1      32.269  11.841  45.055  1.00  0.00     0.001 A 
HETATM    7  C8  UNL     1      33.188  11.123  45.797  1.00  0.00     0.002 A 
HETATM    8  C9  UNL     1      32.740   9.950  46.410  1.00  0.00     0.030 A 
HETATM    9  C10 UNL     1      31.449   9.473  46.318  1.00  0.00     0.039 A 
HETATM   10  N1  UNL     1      31.354   8.266  47.056  1.00  0.00    -0.352 N 
HETATM   11  C11 UNL     1      30.420   7.948  48.079  1.00  0.00     0.087 C 
HETATM   12  C12 UNL     1      29.968   8.958  48.812  1.00  0.00     0.111 C 
HETATM   13  N2  UNL     1      30.740  10.116  49.257  1.00  0.00    -0.380 N 
HETATM   14  C13 UNL     1      30.511  11.564  49.214  1.00  0.00     0.161 C 
HETATM   15  C14 UNL     1      29.110  11.912  48.727  1.00  0.00    -0.010 C 
HETATM   16  C15 UNL     1      29.155  13.122  48.089  1.00  0.00    -0.011 C 
HETATM   17  C16 UNL     1      28.718  13.324  46.677  1.00  0.00     0.067 C 
HETATM   18  C17 UNL     1      28.059  12.115  46.118  1.00  0.00    -0.048 C 
HETATM   19  C18 UNL     1      26.855  11.730  46.616  1.00  0.00     0.011 C 
HETATM   20  C19 UNL     1      26.714  11.404  48.070  1.00  0.00     0.038 C 
HETATM   21  C20 UNL     1      27.801  11.134  48.848  1.00  0.00     0.085 C 
HETATM   22  O1  UNL     1      27.780  10.084  49.839  1.00  0.00    -0.289 OA
HETATM   23  C21 UNL     1      28.556   9.005  49.223  1.00  0.00     0.200 C 
HETATM   24  N3  UNL     1      27.476   8.313  49.262  1.00  0.00    -0.216 NA
HETATM   25  C22 UNL     1      27.329   7.063  48.526  1.00  0.00     0.234 C 
HETATM   26  N4  UNL     1      28.127   6.100  48.195  1.00  0.00    -0.251 NA
HETATM   27  P1  UNL     1      29.941   6.189  48.240  1.00  0.00     0.053 P 
HETATM   28  H10 UNL     1      31.996   7.456  46.908  1.00  0.00     0.166 HD
HETATM   29  H11 UNL     1      31.636   9.908  49.698  1.00  0.00     0.160 HD
HETATM   30  H20 UNL     1      30.460   5.592  49.445  1.00  0.00     0.089 HD
ENDROOT
BRANCH   1  31
HETATM   31  C1  UNL     1      27.458  10.440  42.727  1.00  0.00     0.250 C 
HETATM   32  F1  UNL     1      28.673  10.416  42.037  1.00  0.00    -0.251 F 
ENDBRANCH   1  31
TORSDOF 1
ENDMDL
MODEL 7
REMARK VINA RESULT:      -6.4     26.238     28.149
REMARK  1 active torsions:
REMARK  status: ('A' for Active; 'I' for Inactive)
REMARK    1  A    between atoms: C1_2  and  C2_3 
ROOT
HETATM    1  C2  UNL     1      37.728   0.587  70.383  1.00  0.00     0.012 C 
HETATM    2  C3  UNL     1      38.465  -0.439  69.987  1.00  0.00    -0.049 C 
HETATM    3  C4  UNL     1      39.356  -1.170  70.927  1.00  0.00     0.079 C 
HETATM    4  C5  UNL     1      39.023  -2.588  71.093  1.00  0.00    -0.027 A 
HETATM    5  C6  UNL     1      37.699  -2.918  70.909  1.00  0.00     0.010 A 
HETATM    6  C7  UNL     1      37.151  -4.179  71.012  1.00  0.00     0.001 A 
HETATM    7  C8  UNL     1      38.008  -5.216  71.331  1.00  0.00     0.002 A 
HETATM    8  C9  UNL     1      39.355  -4.896  71.521  1.00  0.00     0.030 A 
HETATM    9  C10 UNL     1      39.872  -3.623  71.409  1.00  0.00     0.039 A 
HETATM   10  N1  UNL     1      41.265  -3.671  71.670  1.00  0.00    -0.352 N 
HETATM   11  C11 UNL     1      42.317  -3.177  70.851  1.00  0.00     0.087 C 
HETATM   12  C12 UNL     1      42.105  -3.178  69.541  1.00  0.00     0.111 C 
HETATM   13  N2  UNL     1      41.392  -4.203  68.781  1.00  0.00    -0.380 N 
HETATM   14  C13 UNL     1      40.319  -4.161  67.783  1.00  0.00     0.161 C 
HETATM   15  C14 UNL     1      39.983  -2.737  67.357  1.00  0.00    -0.010 C 
HETATM   16  C15 UNL     1      38.660  -2.683  67.010  1.00  0.00    -0.011 C 
HETATM   17  C16 UNL     1      37.678  -1.760  67.650  1.00  0.00     0.067 C 
HETATM   18  C17 UNL     1      38.338  -0.788  68.560  1.00  0.00    -0.048 C 
HETATM   19  C18 UNL     1      39.150   0.166  68.031  1.00  0.00     0.011 C 
HETATM   20  C19 UNL     1      40.349  -0.231  67.228  1.00  0.00     0.038 C 
HETATM   21  C20 UNL     1      40.865  -1.492  67.294  1.00  0.00     0.085 C 
HETATM   22  O1  UNL     1      42.290  -1.725  67.312  1.00  0.00    -0.289 OA
HETATM   23  C21 UNL     1      42.573  -2.056  68.711  1.00  0.00     0.200 C 
HETATM   24  N3  UNL     1      43.299  -0.999  68.732  1.00  0.00    -0.216 NA
HETATM   25  C22 UNL     1      43.790  -0.419  69.977  1.00  0.00     0.234 C 
HETATM   26  N4  UNL     1      44.163  -0.896  71.120  1.00  0.00    -0.251 NA
HETATM   27  P1  UNL     1      43.819  -2.579  71.709  1.00  0.00     0.053 P 
HETATM   28  H10 UNL     1      41.669  -4.095  72.534  1.00  0.00     0.166 HD
HETATM   29  H11 UNL     1      41.679  -5.165  68.959  1.00  0.00     0.160 HD
HETATM   30  H20 UNL     1      44.950  -3.447  71.493  1.00  0.00     0.089 HD
ENDROOT
BRANCH   1  31
HETATM   31  C1  UNL     1      37.524   1.294  71.668  1.00  0.00     0.250 C 
HETATM   32  F1  UNL     1      36.990   2.567  71.451  1.00  0.00    -0.251 F 
ENDBRANCH   1  31
TORSDOF 1
ENDMDL
MODEL 8
REMARK VINA RESULT:      -6.3      7.071      8.964
REMARK  1 active torsions:
REMARK  status: ('A' for Active; 'I' for Inactive)
REMARK    1  A    between atoms: C1_2  and  C2_3 
ROOT
HETATM    1  C2  UNL     1      30.819  10.233  44.477  1.00  0.00     0.012 C 
HETATM    2  C3  UNL     1      30.096  10.091  45.576  1.00  0.00    -0.049 C 
HETATM    3  C4  UNL     1      28.826   9.317  45.582  1.00  0.00     0.079 C 
HETATM    4  C5  UNL     1      28.832   8.156  46.477  1.00  0.00    -0.027 A 
HETATM    5  C6  UNL     1      30.061   7.576  46.698  1.00  0.00     0.010 A 
HETATM    6  C7  UNL     1      30.315   6.480  47.496  1.00  0.00     0.001 A 
HETATM    7  C8  UNL     1      29.235   5.904  48.137  1.00  0.00     0.002 A 
HETATM    8  C9  UNL     1      27.980   6.481  47.923  1.00  0.00     0.030 A 
HETATM    9  C10 UNL     1      27.760   7.579  47.118  1.00  0.00     0.039 A 
HETATM   10  N1  UNL     1      26.376   7.885  47.131  1.00  0.00    -0.352 N 
HETATM   11  C11 UNL     1      25.769   9.135  47.431  1.00  0.00     0.087 C 
HETATM   12  C12 UNL     1      26.410   9.922  48.286  1.00  0.00     0.111 C 
HETATM   13  N2  UNL     1      27.151   9.490  49.469  1.00  0.00    -0.380 N 
HETATM   14  C13 UNL     1      28.490   9.785  49.989  1.00  0.00     0.161 C 
HETATM   15  C14 UNL     1      29.191  10.877  49.192  1.00  0.00    -0.010 C 
HETATM   16  C15 UNL     1      30.541  10.657  49.240  1.00  0.00    -0.011 C 
HETATM   17  C16 UNL     1      31.390  10.480  48.026  1.00  0.00     0.067 C 
HETATM   18  C17 UNL     1      30.639  10.758  46.774  1.00  0.00    -0.048 C 
HETATM   19  C18 UNL     1      30.234  12.030  46.516  1.00  0.00     0.011 C 
HETATM   20  C19 UNL     1      29.331  12.739  47.476  1.00  0.00     0.038 C 
HETATM   21  C20 UNL     1      28.613  12.057  48.415  1.00  0.00     0.085 C 
HETATM   22  O1  UNL     1      27.250  12.414  48.730  1.00  0.00    -0.289 OA
HETATM   23  C21 UNL     1      26.454  11.377  48.067  1.00  0.00     0.200 C 
HETATM   24  N3  UNL     1      25.959  12.322  47.356  1.00  0.00    -0.216 NA
HETATM   25  C22 UNL     1      25.182  12.060  46.150  1.00  0.00     0.234 C 
HETATM   26  N4  UNL     1      24.365  11.129  45.776  1.00  0.00    -0.251 NA
HETATM   27  P1  UNL     1      24.191   9.510  46.581  1.00  0.00     0.053 P 
HETATM   28  H10 UNL     1      25.635   7.184  46.909  1.00  0.00     0.166 HD
HETATM   29  H11 UNL     1      26.659   8.847  50.089  1.00  0.00     0.160 HD
HETATM   30  H20 UNL     1      23.070   9.498  47.487  1.00  0.00     0.089 HD
ENDROOT
BRANCH   1  31
HETATM   31  C1  UNL     1      30.692   9.772  43.075  1.00  0.00     0.250 C 
HETATM   32  F1  UNL     1      31.003  10.806  42.187  1.00  0.00    -0.251 F 
ENDBRANCH   1  31
TORSDOF 1
ENDMDL
MODEL 9
REMARK VINA RESULT:      -6.3      7.934      9.819
REMARK  1 active torsions:
REMARK  status: ('A' for Active; 'I' for Inactive)
REMARK    1  A    between atoms: C1_2  and  C2_3 
ROOT
HETATM    1  C2  UNL     1      30.286   7.142  48.603  1.00  0.00     0.012 C 
HETATM    2  C3  UNL     1      29.788   8.162  47.923  1.00  0.00    -0.049 C 
HETATM    3  C4  UNL     1      29.543   8.080  46.458  1.00  0.00     0.079 C 
HETATM    4  C5  UNL     1      28.140   8.258  46.071  1.00  0.00    -0.027 A 
HETATM    5  C6  UNL     1      27.207   7.873  47.006  1.00  0.00     0.010 A 
HETATM    6  C7  UNL     1      25.837   7.945  46.869  1.00  0.00     0.001 A 
HETATM    7  C8  UNL     1      25.348   8.450  45.679  1.00  0.00     0.002 A 
HETATM    8  C9  UNL     1      26.283   8.845  44.718  1.00  0.00     0.030 A 
HETATM    9  C10 UNL     1      27.650   8.761  44.888  1.00  0.00     0.039 A 
HETATM   10  N1  UNL     1      28.285   9.242  43.716  1.00  0.00    -0.352 N 
HETATM   11  C11 UNL     1      29.284  10.250  43.625  1.00  0.00     0.087 C 
HETATM   12  C12 UNL     1      29.255  11.206  44.545  1.00  0.00     0.111 C 
HETATM   13  N2  UNL     1      28.057  11.815  45.120  1.00  0.00    -0.380 N 
HETATM   14  C13 UNL     1      27.619  12.086  46.493  1.00  0.00     0.161 C 
HETATM   15  C14 UNL     1      28.708  11.792  47.516  1.00  0.00    -0.010 C 
HETATM   16  C15 UNL     1      28.117  11.412  48.690  1.00  0.00    -0.011 C 
HETATM   17  C16 UNL     1      28.390  10.109  49.365  1.00  0.00     0.067 C 
HETATM   18  C17 UNL     1      29.506   9.370  48.721  1.00  0.00    -0.048 C 
HETATM   19  C18 UNL     1      30.766   9.873  48.804  1.00  0.00     0.011 C 
HETATM   20  C19 UNL     1      31.067  11.237  48.265  1.00  0.00     0.038 C 
HETATM   21  C20 UNL     1      30.229  11.855  47.384  1.00  0.00     0.085 C 
HETATM   22  O1  UNL     1      30.735  12.611  46.262  1.00  0.00    -0.289 OA
HETATM   23  C21 UNL     1      30.507  11.728  45.115  1.00  0.00     0.200 C 
HETATM   24  N3  UNL     1      31.782  11.711  44.976  1.00  0.00    -0.216 NA
HETATM   25  C22 UNL     1      32.455  10.750  44.109  1.00  0.00     0.234 C 
HETATM   26  N4  UNL     1      32.161  10.168  42.992  1.00  0.00    -0.251 NA
HETATM   27  P1  UNL     1      30.498  10.087  42.265  1.00  0.00     0.053 P 
HETATM   28  H10 UNL     1      28.068   8.882  42.760  1.00  0.00     0.166 HD
HETATM   29  H11 UNL     1      27.357  12.132  44.451  1.00  0.00     0.160 HD
HETATM   30  H20 UNL     1      30.323  11.101  41.256  1.00  0.00     0.089 HD
ENDROOT
BRANCH   1  31
HETATM   31  C1  UNL     1      30.721   5.768  48.259  1.00  0.00     0.250 C 
HETATM   32  F1  UNL     1      31.828   5.801  47.408  1.00  0.00    -0.251 F 
ENDBRANCH   1  31
TORSDOF 1
ENDMDL
