MODEL 1
REMARK VINA RESULT:      -8.9      0.000      0.000
REMARK  4 active torsions:
REMARK  status: ('A' for Active; 'I' for Inactive)
REMARK    1  A    between atoms: C2_2  and  O1_3 
REMARK    2  A    between atoms: C3_4  and  C4_5 
REMARK       I    between atoms: C4_5  and  N1_7 
REMARK    3  A    between atoms: N1_7  and  C5_8 
REMARK    4  A    between atoms: C10_15  and  N4_16 
ROOT
HETATM    1  C5  UNL     1      24.969  -0.439  53.827  1.00  0.00     0.036 A 
HETATM    2  C6  UNL     1      24.518  -1.104  54.961  1.00  0.00     0.032 A 
HETATM    3  C7  UNL     1      23.162  -1.235  55.235  1.00  0.00     0.035 A 
HETATM    4  C8  UNL     1      22.222  -0.695  54.367  1.00  0.00     0.072 A 
HETATM    5  N2  UNL     1      20.884  -0.784  54.581  1.00  0.00    -0.241 NA
HETATM    6  C9  UNL     1      20.034  -0.228  53.690  1.00  0.00     0.236 A 
HETATM    7  N3  UNL     1      20.507   0.409  52.603  1.00  0.00    -0.223 NA
HETATM    8  C10 UNL     1      21.817   0.534  52.331  1.00  0.00     0.144 A 
HETATM    9  C17 UNL     1      22.679  -0.037  53.244  1.00  0.00     0.041 A 
HETATM   10  C18 UNL     1      24.025   0.094  52.972  1.00  0.00     0.047 A 
ENDROOT
BRANCH   1  11
HETATM   11  N1  UNL     1      26.392  -0.356  53.630  1.00  0.00    -0.324 N 
HETATM   12  C4  UNL     1      27.162   0.697  54.211  1.00  0.00     0.248 C 
HETATM   13  O2  UNL     1      26.310   1.400  54.842  1.00  0.00    -0.268 OA
HETATM   14  H6  UNL     1      26.580  -1.187  53.029  1.00  0.00     0.169 HD
BRANCH  12  15
HETATM   15  C3  UNL     1      28.570   0.565  53.870  1.00  0.00     0.105 C 
HETATM   16  C2  UNL     1      29.557  -0.245  53.552  1.00  0.00     0.044 C 
HETATM   17  C1  UNL     1      29.421  -1.702  53.424  1.00  0.00     0.076 C 
BRANCH  16  18
HETATM   18  O1  UNL     1      30.777   0.326  53.332  1.00  0.00    -0.365 OA
HETATM   19  H4  UNL     1      31.675  -0.089  53.566  1.00  0.00     0.217 HD
ENDBRANCH  16  18
ENDBRANCH  12  15
ENDBRANCH   1  11
BRANCH   8  20
HETATM   20  N4  UNL     1      22.158   1.218  51.134  1.00  0.00    -0.332 N 
HETATM   21  C11 UNL     1      21.663   0.892  49.860  1.00  0.00     0.093 A 
HETATM   22  C12 UNL     1      21.971   1.503  48.740  1.00  0.00     0.018 A 
HETATM   23  C13 UNL     1      22.897   2.623  48.764  1.00  0.00     0.018 A 
HETATM   24  C14 UNL     1      23.378   2.960  49.944  1.00  0.00     0.011 A 
HETATM   25 BR1  UNL     1      24.610   4.389  50.246  1.00  0.00    -0.053 Br
HETATM   26  C15 UNL     1      23.074   2.337  51.259  1.00  0.00     0.127 A 
HETATM   27  C16 UNL     1      22.416   3.347  52.191  1.00  0.00     0.038 C 
ENDBRANCH   8  20
TORSDOF 4
ENDMDL
MODEL 2
REMARK VINA RESULT:      -8.2      2.027      2.840
REMARK  4 active torsions:
REMARK  status: ('A' for Active; 'I' for Inactive)
REMARK    1  A    between atoms: C2_2  and  O1_3 
REMARK    2  A    between atoms: C3_4  and  C4_5 
REMARK       I    between atoms: C4_5  and  N1_7 
REMARK    3  A    between atoms: N1_7  and  C5_8 
REMARK    4  A    between atoms: C10_15  and  N4_16 
ROOT
HETATM    1  C5  UNL     1      24.150   1.171  53.108  1.00  0.00     0.036 A 
HETATM    2  C6  UNL     1      23.680  -0.100  53.417  1.00  0.00     0.032 A 
HETATM    3  C7  UNL     1      22.436  -0.540  52.982  1.00  0.00     0.035 A 
HETATM    4  C8  UNL     1      21.630   0.297  52.221  1.00  0.00     0.072 A 
HETATM    5  N2  UNL     1      20.403  -0.071  51.771  1.00  0.00    -0.241 NA
HETATM    6  C9  UNL     1      19.679   0.803  51.039  1.00  0.00     0.236 A 
HETATM    7  N3  UNL     1      20.167   2.026  50.759  1.00  0.00    -0.223 NA
HETATM    8  C10 UNL     1      21.372   2.454  51.172  1.00  0.00     0.144 A 
HETATM    9  C17 UNL     1      22.105   1.556  51.919  1.00  0.00     0.041 A 
HETATM   10  C18 UNL     1      23.341   1.992  52.351  1.00  0.00     0.047 A 
ENDROOT
BRANCH   1  11
HETATM   11  N1  UNL     1      25.452   1.534  53.604  1.00  0.00    -0.324 N 
HETATM   12  C4  UNL     1      26.632   1.291  52.839  1.00  0.00     0.248 C 
HETATM   13  O2  UNL     1      26.209   0.745  51.770  1.00  0.00    -0.268 OA
HETATM   14  H6  UNL     1      25.226   1.948  54.535  1.00  0.00     0.169 HD
BRANCH  12  15
HETATM   15  C3  UNL     1      27.818   1.742  53.548  1.00  0.00     0.105 C 
HETATM   16  C2  UNL     1      29.036   1.455  53.957  1.00  0.00     0.044 C 
HETATM   17  C1  UNL     1      29.712   0.175  53.705  1.00  0.00     0.076 C 
BRANCH  16  18
HETATM   18  O1  UNL     1      29.696   2.423  54.658  1.00  0.00    -0.365 OA
HETATM   19  H4  UNL     1      30.705   2.494  54.761  1.00  0.00     0.217 HD
ENDBRANCH  16  18
ENDBRANCH  12  15
ENDBRANCH   1  11
BRANCH   8  20
HETATM   20  N4  UNL     1      21.753   3.764  50.780  1.00  0.00    -0.332 N 
HETATM   21  C11 UNL     1      21.974   4.830  51.670  1.00  0.00     0.093 A 
HETATM   22  C12 UNL     1      22.316   6.051  51.331  1.00  0.00     0.018 A 
HETATM   23  C13 UNL     1      22.499   6.383  49.928  1.00  0.00     0.018 A 
HETATM   24  C14 UNL     1      22.303   5.406  49.065  1.00  0.00     0.011 A 
HETATM   25 BR1  UNL     1      22.476   5.579  47.169  1.00  0.00    -0.053 Br
HETATM   26  C15 UNL     1      21.931   3.996  49.359  1.00  0.00     0.127 A 
HETATM   27  C16 UNL     1      23.023   3.044  48.887  1.00  0.00     0.038 C 
ENDBRANCH   8  20
TORSDOF 4
ENDMDL
MODEL 3
REMARK VINA RESULT:      -8.1      3.049      6.102
REMARK  4 active torsions:
REMARK  status: ('A' for Active; 'I' for Inactive)
REMARK    1  A    between atoms: C2_2  and  O1_3 
REMARK    2  A    between atoms: C3_4  and  C4_5 
REMARK       I    between atoms: C4_5  and  N1_7 
REMARK    3  A    between atoms: N1_7  and  C5_8 
REMARK    4  A    between atoms: C10_15  and  N4_16 
ROOT
HETATM    1  C5  UNL     1      22.372   0.043  52.527  1.00  0.00     0.036 A 
HETATM    2  C6  UNL     1      23.118  -0.764  53.377  1.00  0.00     0.032 A 
HETATM    3  C7  UNL     1      24.464  -0.516  53.618  1.00  0.00     0.035 A 
HETATM    4  C8  UNL     1      25.094   0.558  53.003  1.00  0.00     0.072 A 
HETATM    5  N2  UNL     1      26.406   0.850  53.194  1.00  0.00    -0.241 NA
HETATM    6  C9  UNL     1      26.946   1.912  52.556  1.00  0.00     0.236 A 
HETATM    7  N3  UNL     1      26.192   2.672  51.740  1.00  0.00    -0.223 NA
HETATM    8  C10 UNL     1      24.889   2.440  51.508  1.00  0.00     0.144 A 
HETATM    9  C17 UNL     1      24.345   1.355  52.163  1.00  0.00     0.041 A 
HETATM   10  C18 UNL     1      23.009   1.108  51.923  1.00  0.00     0.047 A 
ENDROOT
BRANCH   1  11
HETATM   11  N1  UNL     1      20.985  -0.294  52.341  1.00  0.00    -0.324 N 
HETATM   12  C4  UNL     1      20.009   0.003  53.339  1.00  0.00     0.248 C 
HETATM   13  O2  UNL     1      20.670   0.563  54.271  1.00  0.00    -0.268 OA
HETATM   14  H6  UNL     1      20.991  -0.741  51.398  1.00  0.00     0.169 HD
BRANCH  12  15
HETATM   15  C3  UNL     1      18.685  -0.433  52.923  1.00  0.00     0.105 C 
HETATM   16  C2  UNL     1      17.767  -1.375  52.973  1.00  0.00     0.044 C 
HETATM   17  C1  UNL     1      17.916  -2.635  53.715  1.00  0.00     0.076 C 
BRANCH  16  18
HETATM   18  O1  UNL     1      16.610  -1.147  52.285  1.00  0.00    -0.365 OA
HETATM   19  H4  UNL     1      16.191  -1.778  51.608  1.00  0.00     0.217 HD
ENDBRANCH  16  18
ENDBRANCH  12  15
ENDBRANCH   1  11
BRANCH   8  20
HETATM   20  N4  UNL     1      24.225   3.343  50.636  1.00  0.00    -0.332 N 
HETATM   21  C11 UNL     1      23.630   2.980  49.415  1.00  0.00     0.093 A 
HETATM   22  C12 UNL     1      23.021   3.798  48.588  1.00  0.00     0.018 A 
HETATM   23  C13 UNL     1      22.922   5.209  48.917  1.00  0.00     0.018 A 
HETATM   24  C14 UNL     1      23.466   5.585  50.057  1.00  0.00     0.011 A 
HETATM   25 BR1  UNL     1      23.474   7.378  50.719  1.00  0.00    -0.053 Br
HETATM   26  C15 UNL     1      24.159   4.730  51.057  1.00  0.00     0.127 A 
HETATM   27  C16 UNL     1      23.417   4.754  52.388  1.00  0.00     0.038 C 
ENDBRANCH   8  20
TORSDOF 4
ENDMDL
MODEL 4
REMARK VINA RESULT:      -8.0      2.572      4.729
REMARK  4 active torsions:
REMARK  status: ('A' for Active; 'I' for Inactive)
REMARK    1  A    between atoms: C2_2  and  O1_3 
REMARK    2  A    between atoms: C3_4  and  C4_5 
REMARK       I    between atoms: C4_5  and  N1_7 
REMARK    3  A    between atoms: N1_7  and  C5_8 
REMARK    4  A    between atoms: C10_15  and  N4_16 
ROOT
HETATM    1  C5  UNL     1      25.130   2.788  51.222  1.00  0.00     0.036 A 
HETATM    2  C6  UNL     1      25.277   3.568  50.081  1.00  0.00     0.032 A 
HETATM    3  C7  UNL     1      24.296   3.607  49.098  1.00  0.00     0.035 A 
HETATM    4  C8  UNL     1      23.136   2.857  49.242  1.00  0.00     0.072 A 
HETATM    5  N2  UNL     1      22.144   2.848  48.315  1.00  0.00    -0.241 NA
HETATM    6  C9  UNL     1      21.048   2.088  48.528  1.00  0.00     0.236 A 
HETATM    7  N3  UNL     1      20.941   1.345  49.645  1.00  0.00    -0.223 NA
HETATM    8  C10 UNL     1      21.883   1.307  50.601  1.00  0.00     0.144 A 
HETATM    9  C17 UNL     1      22.999   2.087  50.378  1.00  0.00     0.041 A 
HETATM   10  C18 UNL     1      23.973   2.047  51.354  1.00  0.00     0.047 A 
ENDROOT
BRANCH   1  11
HETATM   11  N1  UNL     1      26.201   2.814  52.184  1.00  0.00    -0.324 N 
HETATM   12  C4  UNL     1      27.116   1.725  52.305  1.00  0.00     0.248 C 
HETATM   13  O2  UNL     1      26.726   0.886  51.431  1.00  0.00    -0.268 OA
HETATM   14  H6  UNL     1      26.060   3.739  52.645  1.00  0.00     0.169 HD
BRANCH  12  15
HETATM   15  C3  UNL     1      28.103   1.984  53.341  1.00  0.00     0.105 C 
HETATM   16  C2  UNL     1      29.118   1.521  54.039  1.00  0.00     0.044 C 
HETATM   17  C1  UNL     1      29.685   0.175  53.878  1.00  0.00     0.076 C 
BRANCH  16  18
HETATM   18  O1  UNL     1      29.666   2.361  54.965  1.00  0.00    -0.365 OA
HETATM   19  H4  UNL     1      29.152   2.866  55.682  1.00  0.00     0.217 HD
ENDBRANCH  16  18
ENDBRANCH  12  15
ENDBRANCH   1  11
BRANCH   8  20
HETATM   20  N4  UNL     1      21.615   0.489  51.730  1.00  0.00    -0.332 N 
HETATM   21  C11 UNL     1      22.593   0.014  52.621  1.00  0.00     0.093 A 
HETATM   22  C12 UNL     1      22.371  -0.751  53.664  1.00  0.00     0.018 A 
HETATM   23  C13 UNL     1      21.014  -1.170  53.972  1.00  0.00     0.018 A 
HETATM   24  C14 UNL     1      20.069  -0.739  53.159  1.00  0.00     0.011 A 
HETATM   25 BR1  UNL     1      18.211  -1.146  53.341  1.00  0.00    -0.053 Br
HETATM   26  C15 UNL     1      20.228   0.139  51.969  1.00  0.00     0.127 A 
HETATM   27  C16 UNL     1      19.467   1.445  52.162  1.00  0.00     0.038 C 
ENDBRANCH   8  20
TORSDOF 4
ENDMDL
MODEL 5
REMARK VINA RESULT:      -8.0      3.779      5.044
REMARK  4 active torsions:
REMARK  status: ('A' for Active; 'I' for Inactive)
REMARK    1  A    between atoms: C2_2  and  O1_3 
REMARK    2  A    between atoms: C3_4  and  C4_5 
REMARK       I    between atoms: C4_5  and  N1_7 
REMARK    3  A    between atoms: N1_7  and  C5_8 
REMARK    4  A    between atoms: C10_15  and  N4_16 
ROOT
HETATM    1  C5  UNL     1      25.650   2.897  51.554  1.00  0.00     0.036 A 
HETATM    2  C6  UNL     1      26.655   2.107  52.100  1.00  0.00     0.032 A 
HETATM    3  C7  UNL     1      26.361   0.992  52.875  1.00  0.00     0.035 A 
HETATM    4  C8  UNL     1      25.039   0.643  53.119  1.00  0.00     0.072 A 
HETATM    5  N2  UNL     1      24.687  -0.431  53.872  1.00  0.00    -0.241 NA
HETATM    6  C9  UNL     1      23.378  -0.700  54.066  1.00  0.00     0.236 A 
HETATM    7  N3  UNL     1      22.432   0.087  53.521  1.00  0.00    -0.223 NA
HETATM    8  C10 UNL     1      22.710   1.163  52.766  1.00  0.00     0.144 A 
HETATM    9  C17 UNL     1      24.049   1.432  52.572  1.00  0.00     0.041 A 
HETATM   10  C18 UNL     1      24.340   2.540  51.804  1.00  0.00     0.047 A 
ENDROOT
BRANCH   1  11
HETATM   11  N1  UNL     1      26.054   4.031  50.765  1.00  0.00    -0.324 N 
HETATM   12  C4  UNL     1      26.591   3.869  49.453  1.00  0.00     0.248 C 
HETATM   13  O2  UNL     1      26.586   2.611  49.262  1.00  0.00    -0.268 OA
HETATM   14  H6  UNL     1      25.843   4.830  51.403  1.00  0.00     0.169 HD
BRANCH  12  15
HETATM   15  C3  UNL     1      26.924   5.156  48.861  1.00  0.00     0.105 C 
HETATM   16  C2  UNL     1      27.859   5.924  48.344  1.00  0.00     0.044 C 
HETATM   17  C1  UNL     1      29.265   5.523  48.191  1.00  0.00     0.076 C 
BRANCH  16  18
HETATM   18  O1  UNL     1      27.478   7.167  47.930  1.00  0.00    -0.365 OA
HETATM   19  H4  UNL     1      26.566   7.412  47.556  1.00  0.00     0.217 HD
ENDBRANCH  16  18
ENDBRANCH  12  15
ENDBRANCH   1  11
BRANCH   8  20
HETATM   20  N4  UNL     1      21.602   1.883  52.247  1.00  0.00    -0.332 N 
HETATM   21  C11 UNL     1      21.416   3.270  52.383  1.00  0.00     0.093 A 
HETATM   22  C12 UNL     1      20.397   3.954  51.921  1.00  0.00     0.018 A 
HETATM   23  C13 UNL     1      19.340   3.269  51.196  1.00  0.00     0.018 A 
HETATM   24  C14 UNL     1      19.483   1.967  51.046  1.00  0.00     0.011 A 
HETATM   25 BR1  UNL     1      18.239   0.836  50.137  1.00  0.00    -0.053 Br
HETATM   26  C15 UNL     1      20.607   1.117  51.520  1.00  0.00     0.127 A 
HETATM   27  C16 UNL     1      21.322   0.468  50.341  1.00  0.00     0.038 C 
ENDBRANCH   8  20
TORSDOF 4
ENDMDL
MODEL 6
REMARK VINA RESULT:      -7.8      3.380      6.399
REMARK  4 active torsions:
REMARK  status: ('A' for Active; 'I' for Inactive)
REMARK    1  A    between atoms: C2_2  and  O1_3 
REMARK    2  A    between atoms: C3_4  and  C4_5 
REMARK       I    between atoms: C4_5  and  N1_7 
REMARK    3  A    between atoms: N1_7  and  C5_8 
REMARK    4  A    between atoms: C10_15  and  N4_16 
ROOT
HETATM    1  C5  UNL     1      22.016   0.360  53.154  1.00  0.00     0.036 A 
HETATM    2  C6  UNL     1      22.932  -0.573  53.628  1.00  0.00     0.032 A 
HETATM    3  C7  UNL     1      24.300  -0.393  53.466  1.00  0.00     0.035 A 
HETATM    4  C8  UNL     1      24.782   0.738  52.819  1.00  0.00     0.072 A 
HETATM    5  N2  UNL     1      26.105   0.968  52.625  1.00  0.00    -0.241 NA
HETATM    6  C9  UNL     1      26.493   2.091  51.983  1.00  0.00     0.236 A 
HETATM    7  N3  UNL     1      25.577   2.972  51.538  1.00  0.00    -0.223 NA
HETATM    8  C10 UNL     1      24.254   2.806  51.696  1.00  0.00     0.144 A 
HETATM    9  C17 UNL     1      23.865   1.657  52.353  1.00  0.00     0.041 A 
HETATM   10  C18 UNL     1      22.507   1.479  52.513  1.00  0.00     0.047 A 
ENDROOT
BRANCH   1  11
HETATM   11  N1  UNL     1      20.620   0.085  53.370  1.00  0.00    -0.324 N 
HETATM   12  C4  UNL     1      19.720  -0.093  52.276  1.00  0.00     0.248 C 
HETATM   13  O2  UNL     1      20.449   0.049  51.243  1.00  0.00    -0.268 OA
HETATM   14  H6  UNL     1      20.556   0.074  54.412  1.00  0.00     0.169 HD
BRANCH  12  15
HETATM   15  C3  UNL     1      18.370  -0.358  52.747  1.00  0.00     0.105 C 
HETATM   16  C2  UNL     1      17.536  -1.228  53.275  1.00  0.00     0.044 C 
HETATM   17  C1  UNL     1      17.901  -2.605  53.638  1.00  0.00     0.076 C 
BRANCH  16  18
HETATM   18  O1  UNL     1      16.257  -0.805  53.493  1.00  0.00    -0.365 OA
HETATM   19  H4  UNL     1      15.425  -1.185  53.051  1.00  0.00     0.217 HD
ENDBRANCH  16  18
ENDBRANCH  12  15
ENDBRANCH   1  11
BRANCH   8  20
HETATM   20  N4  UNL     1      23.416   3.833  51.187  1.00  0.00    -0.332 N 
HETATM   21  C11 UNL     1      23.326   5.129  51.725  1.00  0.00     0.093 A 
HETATM   22  C12 UNL     1      22.553   6.091  51.278  1.00  0.00     0.018 A 
HETATM   23  C13 UNL     1      21.698   5.850  50.128  1.00  0.00     0.018 A 
HETATM   24  C14 UNL     1      21.759   4.646  49.595  1.00  0.00     0.011 A 
HETATM   25 BR1  UNL     1      20.739   4.074  48.083  1.00  0.00    -0.053 Br
HETATM   26  C15 UNL     1      22.613   3.506  50.023  1.00  0.00     0.127 A 
HETATM   27  C16 UNL     1      23.580   3.114  48.913  1.00  0.00     0.038 C 
ENDBRANCH   8  20
TORSDOF 4
ENDMDL
MODEL 7
REMARK VINA RESULT:      -7.5      4.901      7.027
REMARK  4 active torsions:
REMARK  status: ('A' for Active; 'I' for Inactive)
REMARK    1  A    between atoms: C2_2  and  O1_3 
REMARK    2  A    between atoms: C3_4  and  C4_5 
REMARK       I    between atoms: C4_5  and  N1_7 
REMARK    3  A    between atoms: N1_7  and  C5_8 
REMARK    4  A    between atoms: C10_15  and  N4_16 
ROOT
HETATM    1  C5  UNL     1      24.925   3.923  50.679  1.00  0.00     0.036 A 
HETATM    2  C6  UNL     1      23.813   3.249  50.189  1.00  0.00     0.032 A 
HETATM    3  C7  UNL     1      23.076   3.745  49.120  1.00  0.00     0.035 A 
HETATM    4  C8  UNL     1      23.445   4.940  48.516  1.00  0.00     0.072 A 
HETATM    5  N2  UNL     1      22.763   5.479  47.473  1.00  0.00    -0.241 NA
HETATM    6  C9  UNL     1      23.184   6.648  46.943  1.00  0.00     0.236 A 
HETATM    7  N3  UNL     1      24.266   7.273  47.444  1.00  0.00    -0.223 NA
HETATM    8  C10 UNL     1      24.985   6.795  48.473  1.00  0.00     0.144 A 
HETATM    9  C17 UNL     1      24.550   5.601  49.009  1.00  0.00     0.041 A 
HETATM   10  C18 UNL     1      25.282   5.109  50.070  1.00  0.00     0.047 A 
ENDROOT
BRANCH   1  11
HETATM   11  N1  UNL     1      25.624   3.330  51.789  1.00  0.00    -0.324 N 
HETATM   12  C4  UNL     1      26.749   2.476  51.586  1.00  0.00     0.248 C 
HETATM   13  O2  UNL     1      26.890   2.434  50.322  1.00  0.00    -0.268 OA
HETATM   14  H6  UNL     1      25.089   3.696  52.607  1.00  0.00     0.169 HD
BRANCH  12  15
HETATM   15  C3  UNL     1      27.281   2.001  52.854  1.00  0.00     0.105 C 
HETATM   16  C2  UNL     1      27.115   1.212  53.894  1.00  0.00     0.044 C 
HETATM   17  C1  UNL     1      25.961   0.321  54.079  1.00  0.00     0.076 C 
BRANCH  16  18
HETATM   18  O1  UNL     1      28.089   1.237  54.850  1.00  0.00    -0.365 OA
HETATM   19  H4  UNL     1      29.056   1.512  54.701  1.00  0.00     0.217 HD
ENDBRANCH  16  18
ENDBRANCH  12  15
ENDBRANCH   1  11
BRANCH   8  20
HETATM   20  N4  UNL     1      26.111   7.562  48.875  1.00  0.00    -0.332 N 
HETATM   21  C11 UNL     1      26.123   8.452  49.962  1.00  0.00     0.093 A 
HETATM   22  C12 UNL     1      27.147   9.177  50.346  1.00  0.00     0.018 A 
HETATM   23  C13 UNL     1      28.403   9.088  49.621  1.00  0.00     0.018 A 
HETATM   24  C14 UNL     1      28.430   8.259  48.596  1.00  0.00     0.011 A 
HETATM   25 BR1  UNL     1      29.952   7.960  47.480  1.00  0.00    -0.053 Br
HETATM   26  C15 UNL     1      27.328   7.391  48.102  1.00  0.00     0.127 A 
HETATM   27  C16 UNL     1      27.717   5.921  48.205  1.00  0.00     0.038 C 
ENDBRANCH   8  20
TORSDOF 4
ENDMDL
MODEL 8
REMARK VINA RESULT:      -7.4      3.340      4.529
REMARK  4 active torsions:
REMARK  status: ('A' for Active; 'I' for Inactive)
REMARK    1  A    between atoms: C2_2  and  O1_3 
REMARK    2  A    between atoms: C3_4  and  C4_5 
REMARK       I    between atoms: C4_5  and  N1_7 
REMARK    3  A    between atoms: N1_7  and  C5_8 
REMARK    4  A    between atoms: C10_15  and  N4_16 
ROOT
HETATM    1  C5  UNL     1      26.101   2.442  51.552  1.00  0.00     0.036 A 
HETATM    2  C6  UNL     1      26.758   1.754  52.565  1.00  0.00     0.032 A 
HETATM    3  C7  UNL     1      26.103   0.810  53.345  1.00  0.00     0.035 A 
HETATM    4  C8  UNL     1      24.760   0.534  53.122  1.00  0.00     0.072 A 
HETATM    5  N2  UNL     1      24.063  -0.374  53.852  1.00  0.00    -0.241 NA
HETATM    6  C9  UNL     1      22.758  -0.582  53.574  1.00  0.00     0.236 A 
HETATM    7  N3  UNL     1      22.154   0.102  52.585  1.00  0.00    -0.223 NA
HETATM    8  C10 UNL     1      22.784   1.013  51.824  1.00  0.00     0.144 A 
HETATM    9  C17 UNL     1      24.117   1.220  52.113  1.00  0.00     0.041 A 
HETATM   10  C18 UNL     1      24.767   2.158  51.339  1.00  0.00     0.047 A 
ENDROOT
BRANCH   1  11
HETATM   11  N1  UNL     1      26.866   3.401  50.799  1.00  0.00    -0.324 N 
HETATM   12  C4  UNL     1      26.463   3.810  49.492  1.00  0.00     0.248 C 
HETATM   13  O2  UNL     1      25.395   3.154  49.271  1.00  0.00    -0.268 OA
HETATM   14  H6  UNL     1      27.650   3.619  51.452  1.00  0.00     0.169 HD
BRANCH  12  15
HETATM   15  C3  UNL     1      27.392   4.781  48.937  1.00  0.00     0.105 C 
HETATM   16  C2  UNL     1      27.556   5.974  48.406  1.00  0.00     0.044 C 
HETATM   17  C1  UNL     1      26.464   6.928  48.169  1.00  0.00     0.076 C 
BRANCH  16  18
HETATM   18  O1  UNL     1      28.828   6.328  48.061  1.00  0.00    -0.365 OA
HETATM   19  H4  UNL     1      29.083   7.114  47.470  1.00  0.00     0.217 HD
ENDBRANCH  16  18
ENDBRANCH  12  15
ENDBRANCH   1  11
BRANCH   8  20
HETATM   20  N4  UNL     1      22.015   1.638  50.808  1.00  0.00    -0.332 N 
HETATM   21  C11 UNL     1      21.583   1.004  49.630  1.00  0.00     0.093 A 
HETATM   22  C12 UNL     1      20.881   1.563  48.673  1.00  0.00     0.018 A 
HETATM   23  C13 UNL     1      20.486   2.957  48.792  1.00  0.00     0.018 A 
HETATM   24  C14 UNL     1      20.870   3.583  49.887  1.00  0.00     0.011 A 
HETATM   25 BR1  UNL     1      20.484   5.412  50.285  1.00  0.00    -0.053 Br
HETATM   26  C15 UNL     1      21.650   3.026  51.024  1.00  0.00     0.127 A 
HETATM   27  C16 UNL     1      20.833   3.076  52.309  1.00  0.00     0.038 C 
ENDBRANCH   8  20
TORSDOF 4
ENDMDL
MODEL 9
REMARK VINA RESULT:      -7.4     10.020     12.655
REMARK  4 active torsions:
REMARK  status: ('A' for Active; 'I' for Inactive)
REMARK    1  A    between atoms: C2_2  and  O1_3 
REMARK    2  A    between atoms: C3_4  and  C4_5 
REMARK       I    between atoms: C4_5  and  N1_7 
REMARK    3  A    between atoms: N1_7  and  C5_8 
REMARK    4  A    between atoms: C10_15  and  N4_16 
ROOT
HETATM    1  C5  UNL     1      30.199   7.397  48.536  1.00  0.00     0.036 A 
HETATM    2  C6  UNL     1      29.832   8.662  48.979  1.00  0.00     0.032 A 
HETATM    3  C7  UNL     1      30.567   9.791  48.642  1.00  0.00     0.035 A 
HETATM    4  C8  UNL     1      31.698   9.672  47.844  1.00  0.00     0.072 A 
HETATM    5  N2  UNL     1      32.461  10.736  47.485  1.00  0.00    -0.241 NA
HETATM    6  C9  UNL     1      33.549  10.536  46.709  1.00  0.00     0.236 A 
HETATM    7  N3  UNL     1      33.875   9.296  46.298  1.00  0.00    -0.223 NA
HETATM    8  C10 UNL     1      33.164   8.201  46.617  1.00  0.00     0.144 A 
HETATM    9  C17 UNL     1      32.055   8.413  47.409  1.00  0.00     0.041 A 
HETATM   10  C18 UNL     1      31.325   7.292  47.744  1.00  0.00     0.047 A 
ENDROOT
BRANCH   1  11
HETATM   11  N1  UNL     1      29.374   6.288  48.938  1.00  0.00    -0.324 N 
HETATM   12  C4  UNL     1      28.158   5.983  48.256  1.00  0.00     0.248 C 
HETATM   13  O2  UNL     1      28.077   6.865  47.343  1.00  0.00    -0.268 OA
HETATM   14  H6  UNL     1      29.908   5.897  49.745  1.00  0.00     0.169 HD
BRANCH  12  15
HETATM   15  C3  UNL     1      27.504   4.825  48.846  1.00  0.00     0.105 C 
HETATM   16  C2  UNL     1      26.378   4.286  49.263  1.00  0.00     0.044 C 
HETATM   17  C1  UNL     1      25.073   4.959  49.211  1.00  0.00     0.076 C 
BRANCH  16  18
HETATM   18  O1  UNL     1      26.449   3.021  49.770  1.00  0.00    -0.365 OA
HETATM   19  H4  UNL     1      25.824   2.629  50.469  1.00  0.00     0.217 HD
ENDBRANCH  16  18
ENDBRANCH  12  15
ENDBRANCH   1  11
BRANCH   8  20
HETATM   20  N4  UNL     1      33.626   6.965  46.092  1.00  0.00    -0.332 N 
HETATM   21  C11 UNL     1      33.811   6.699  44.724  1.00  0.00     0.093 A 
HETATM   22  C12 UNL     1      34.226   5.563  44.215  1.00  0.00     0.018 A 
HETATM   23  C13 UNL     1      34.538   4.452  45.097  1.00  0.00     0.018 A 
HETATM   24  C14 UNL     1      34.380   4.667  46.388  1.00  0.00     0.011 A 
HETATM   25 BR1  UNL     1      34.719   3.374  47.755  1.00  0.00    -0.053 Br
HETATM   26  C15 UNL     1      33.932   5.921  47.051  1.00  0.00     0.127 A 
HETATM   27  C16 UNL     1      35.024   6.463  47.965  1.00  0.00     0.038 C 
ENDBRANCH   8  20
TORSDOF 4
ENDMDL
