MODEL 1
REMARK VINA RESULT:      -7.6      0.000      0.000
REMARK  4 active torsions:
REMARK  status: ('A' for Active; 'I' for Inactive)
REMARK    1  A    between atoms: C1_2  and  C2_3 
REMARK    2  A    between atoms: C2_3  and  O2_4 
REMARK    3  A    between atoms: O2_4  and  C3_5 
REMARK    4  A    between atoms: C6_8  and  C7_9 
ROOT
HETATM    1  C3  UNL     1      21.096   0.223  53.463  1.00  0.00     0.113 A 
HETATM    2  C4  UNL     1      21.818   1.121  52.693  1.00  0.00     0.041 A 
HETATM    3  C5  UNL     1      23.207   1.069  52.632  1.00  0.00     0.017 A 
HETATM    4  C6  UNL     1      23.764   0.066  53.391  1.00  0.00     0.003 A 
HETATM    5  C14 UNL     1      23.095  -0.838  54.162  1.00  0.00     0.059 A 
HETATM    6  C15 UNL     1      21.714  -0.757  54.199  1.00  0.00     0.150 A 
HETATM    7  F1  UNL     1      20.992  -1.625  54.946  1.00  0.00    -0.203 F 
ENDROOT
BRANCH   4   8
HETATM    8  C7  UNL     1      25.228  -0.104  53.419  1.00  0.00     0.109 A 
HETATM    9  N1  UNL     1      26.026  -1.101  53.178  1.00  0.00    -0.240 NA
HETATM   10  C8  UNL     1      27.331  -0.864  53.313  1.00  0.00     0.075 A 
HETATM   11  C9  UNL     1      28.267  -1.870  53.077  1.00  0.00     0.033 A 
HETATM   12  C13 UNL     1      27.844   0.397  53.696  1.00  0.00     0.035 A 
HETATM   13  C10 UNL     1      29.597  -1.627  53.216  1.00  0.00     0.002 A 
HETATM   14  C11 UNL     1      30.130  -0.392  53.593  1.00  0.00     0.002 A 
HETATM   15  C12 UNL     1      29.228   0.599  53.825  1.00  0.00     0.021 A 
HETATM   16  S1  UNL     1      26.314   1.296  53.871  1.00  0.00    -0.068 SA
ENDBRANCH   4   8
BRANCH   1  17
HETATM   17  O2  UNL     1      19.703   0.319  53.488  1.00  0.00    -0.316 OA
BRANCH  17  18
HETATM   18  C2  UNL     1      18.979  -0.367  52.495  1.00  0.00     0.201 C 
BRANCH  18  19
HETATM   19  C1  UNL     1      18.254  -1.305  53.082  1.00  0.00     0.245 C 
HETATM   20  O1  UNL     1      17.789  -2.201  53.822  1.00  0.00    -0.282 OA
ENDBRANCH  18  19
ENDBRANCH  17  18
ENDBRANCH   1  17
TORSDOF 4
ENDMDL
MODEL 2
REMARK VINA RESULT:      -7.2      3.958      7.740
REMARK  4 active torsions:
REMARK  status: ('A' for Active; 'I' for Inactive)
REMARK    1  A    between atoms: C1_2  and  C2_3 
REMARK    2  A    between atoms: C2_3  and  O2_4 
REMARK    3  A    between atoms: O2_4  and  C3_5 
REMARK    4  A    between atoms: C6_8  and  C7_9 
ROOT
HETATM    1  C3  UNL     1      26.844   0.557  54.478  1.00  0.00     0.113 A 
HETATM    2  C4  UNL     1      26.133  -0.501  55.022  1.00  0.00     0.041 A 
HETATM    3  C5  UNL     1      24.800  -0.721  54.692  1.00  0.00     0.017 A 
HETATM    4  C6  UNL     1      24.285   0.190  53.800  1.00  0.00     0.003 A 
HETATM    5  C14 UNL     1      24.946   1.243  53.240  1.00  0.00     0.059 A 
HETATM    6  C15 UNL     1      26.272   1.432  53.591  1.00  0.00     0.150 A 
HETATM    7  F1  UNL     1      26.983   2.459  53.070  1.00  0.00    -0.203 F 
ENDROOT
BRANCH   4   8
HETATM    8  C7  UNL     1      22.882   0.075  53.362  1.00  0.00     0.109 A 
HETATM    9  N1  UNL     1      22.234   0.447  52.299  1.00  0.00    -0.240 NA
HETATM   10  C8  UNL     1      20.933   0.158  52.264  1.00  0.00     0.075 A 
HETATM   11  C9  UNL     1      20.152   0.516  51.166  1.00  0.00     0.033 A 
HETATM   12  C13 UNL     1      20.271  -0.517  53.315  1.00  0.00     0.035 A 
HETATM   13  C10 UNL     1      18.826   0.221  51.132  1.00  0.00     0.002 A 
HETATM   14  C11 UNL     1      18.148  -0.445  52.156  1.00  0.00     0.002 A 
HETATM   15  C12 UNL     1      18.898  -0.801  53.232  1.00  0.00     0.021 A 
HETATM   16  S1  UNL     1      21.644  -0.745  54.430  1.00  0.00    -0.068 SA
ENDBRANCH   4   8
BRANCH   1  17
HETATM   17  O2  UNL     1      28.181   0.732  54.843  1.00  0.00    -0.316 OA
BRANCH  17  18
HETATM   18  C2  UNL     1      29.169   0.436  53.884  1.00  0.00     0.201 C 
BRANCH  18  19
HETATM   19  C1  UNL     1      29.281  -0.879  53.794  1.00  0.00     0.245 C 
HETATM   20  O1  UNL     1      29.153  -2.098  53.540  1.00  0.00    -0.282 OA
ENDBRANCH  18  19
ENDBRANCH  17  18
ENDBRANCH   1  17
TORSDOF 4
ENDMDL
MODEL 3
REMARK VINA RESULT:      -7.2      3.566      7.818
REMARK  4 active torsions:
REMARK  status: ('A' for Active; 'I' for Inactive)
REMARK    1  A    between atoms: C1_2  and  C2_3 
REMARK    2  A    between atoms: C2_3  and  O2_4 
REMARK    3  A    between atoms: O2_4  and  C3_5 
REMARK    4  A    between atoms: C6_8  and  C7_9 
ROOT
HETATM    1  C3  UNL     1      25.900  -0.234  54.455  1.00  0.00     0.113 A 
HETATM    2  C4  UNL     1      25.658   0.346  53.220  1.00  0.00     0.041 A 
HETATM    3  C5  UNL     1      24.375   0.397  52.684  1.00  0.00     0.017 A 
HETATM    4  C6  UNL     1      23.411  -0.170  53.484  1.00  0.00     0.003 A 
HETATM    5  C14 UNL     1      23.602  -0.750  54.703  1.00  0.00     0.059 A 
HETATM    6  C15 UNL     1      24.892  -0.783  55.206  1.00  0.00     0.150 A 
HETATM    7  F1  UNL     1      25.148  -1.345  56.410  1.00  0.00    -0.203 F 
ENDROOT
BRANCH   4   8
HETATM    8  C7  UNL     1      22.005  -0.185  53.038  1.00  0.00     0.109 A 
HETATM    9  N1  UNL     1      20.912  -0.699  53.516  1.00  0.00    -0.240 NA
HETATM   10  C8  UNL     1      19.800  -0.496  52.810  1.00  0.00     0.075 A 
HETATM   11  C9  UNL     1      18.576  -1.008  53.240  1.00  0.00     0.033 A 
HETATM   12  C13 UNL     1      19.786   0.237  51.601  1.00  0.00     0.035 A 
HETATM   13  C10 UNL     1      17.445  -0.800  52.518  1.00  0.00     0.002 A 
HETATM   14  C11 UNL     1      17.403  -0.079  51.321  1.00  0.00     0.002 A 
HETATM   15  C12 UNL     1      18.590   0.426  50.890  1.00  0.00     0.021 A 
HETATM   16  S1  UNL     1      21.516   0.658  51.491  1.00  0.00    -0.068 SA
ENDBRANCH   4   8
BRANCH   1  17
HETATM   17  O2  UNL     1      27.207  -0.258  54.947  1.00  0.00    -0.316 OA
BRANCH  17  18
HETATM   18  C2  UNL     1      28.253   0.038  54.051  1.00  0.00     0.201 C 
BRANCH  18  19
HETATM   19  C1  UNL     1      28.953   1.044  54.547  1.00  0.00     0.245 C 
HETATM   20  O1  UNL     1      29.392   2.154  54.926  1.00  0.00    -0.282 OA
ENDBRANCH  18  19
ENDBRANCH  17  18
ENDBRANCH   1  17
TORSDOF 4
ENDMDL
MODEL 4
REMARK VINA RESULT:      -7.0      1.968      2.522
REMARK  4 active torsions:
REMARK  status: ('A' for Active; 'I' for Inactive)
REMARK    1  A    between atoms: C1_2  and  C2_3 
REMARK    2  A    between atoms: C2_3  and  O2_4 
REMARK    3  A    between atoms: O2_4  and  C3_5 
REMARK    4  A    between atoms: C6_8  and  C7_9 
ROOT
HETATM    1  C3  UNL     1      20.272  -0.124  52.687  1.00  0.00     0.113 A 
HETATM    2  C4  UNL     1      20.742  -0.411  53.958  1.00  0.00     0.041 A 
HETATM    3  C5  UNL     1      22.079  -0.223  54.295  1.00  0.00     0.017 A 
HETATM    4  C6  UNL     1      22.853   0.262  53.267  1.00  0.00     0.003 A 
HETATM    5  C14 UNL     1      22.435   0.558  52.004  1.00  0.00     0.059 A 
HETATM    6  C15 UNL     1      21.098   0.359  51.703  1.00  0.00     0.150 A 
HETATM    7  F1  UNL     1      20.621   0.634  50.467  1.00  0.00    -0.203 F 
ENDROOT
BRANCH   4   8
HETATM    8  C7  UNL     1      24.290   0.508  53.486  1.00  0.00     0.109 A 
HETATM    9  N1  UNL     1      25.109   1.452  53.130  1.00  0.00    -0.240 NA
HETATM   10  C8  UNL     1      26.374   1.324  53.528  1.00  0.00     0.075 A 
HETATM   11  C9  UNL     1      27.328   2.285  53.197  1.00  0.00     0.033 A 
HETATM   12  C13 UNL     1      26.826   0.227  54.299  1.00  0.00     0.035 A 
HETATM   13  C10 UNL     1      28.618   2.152  53.604  1.00  0.00     0.002 A 
HETATM   14  C11 UNL     1      29.090   1.080  54.365  1.00  0.00     0.002 A 
HETATM   15  C12 UNL     1      28.169   0.135  54.696  1.00  0.00     0.021 A 
HETATM   16  S1  UNL     1      25.296  -0.676  54.450  1.00  0.00    -0.068 SA
ENDBRANCH   4   8
BRANCH   1  17
HETATM   17  O2  UNL     1      18.920  -0.330  52.401  1.00  0.00    -0.316 OA
BRANCH  17  18
HETATM   18  C2  UNL     1      18.203  -1.218  53.226  1.00  0.00     0.201 C 
BRANCH  18  19
HETATM   19  C1  UNL     1      16.922  -1.143  52.902  1.00  0.00     0.245 C 
HETATM   20  O1  UNL     1      15.743  -0.795  52.666  1.00  0.00    -0.282 OA
ENDBRANCH  18  19
ENDBRANCH  17  18
ENDBRANCH   1  17
TORSDOF 4
ENDMDL
MODEL 5
REMARK VINA RESULT:      -6.7      6.798      8.904
REMARK  4 active torsions:
REMARK  status: ('A' for Active; 'I' for Inactive)
REMARK    1  A    between atoms: C1_2  and  C2_3 
REMARK    2  A    between atoms: C2_3  and  O2_4 
REMARK    3  A    between atoms: O2_4  and  C3_5 
REMARK    4  A    between atoms: C6_8  and  C7_9 
ROOT
HETATM    1  C3  UNL     1      26.800   6.123  48.553  1.00  0.00     0.113 A 
HETATM    2  C4  UNL     1      25.556   6.374  49.109  1.00  0.00     0.041 A 
HETATM    3  C5  UNL     1      24.880   5.400  49.837  1.00  0.00     0.017 A 
HETATM    4  C6  UNL     1      25.556   4.207  49.940  1.00  0.00     0.003 A 
HETATM    5  C14 UNL     1      26.778   3.916  49.410  1.00  0.00     0.059 A 
HETATM    6  C15 UNL     1      27.423   4.909  48.693  1.00  0.00     0.150 A 
HETATM    7  F1  UNL     1      28.638   4.683  48.142  1.00  0.00    -0.203 F 
ENDROOT
BRANCH   4   8
HETATM    8  C7  UNL     1      24.955   3.086  50.685  1.00  0.00     0.109 A 
HETATM    9  N1  UNL     1      23.754   2.596  50.765  1.00  0.00    -0.240 NA
HETATM   10  C8  UNL     1      23.593   1.545  51.569  1.00  0.00     0.075 A 
HETATM   11  C9  UNL     1      22.342   0.948  51.722  1.00  0.00     0.033 A 
HETATM   12  C13 UNL     1      24.657   0.975  52.305  1.00  0.00     0.035 A 
HETATM   13  C10 UNL     1      22.180  -0.123  52.542  1.00  0.00     0.002 A 
HETATM   14  C11 UNL     1      23.214  -0.705  53.280  1.00  0.00     0.002 A 
HETATM   15  C12 UNL     1      24.439  -0.133  53.140  1.00  0.00     0.021 A 
HETATM   16  S1  UNL     1      25.982   2.050  51.787  1.00  0.00    -0.068 SA
ENDBRANCH   4   8
BRANCH   1  17
HETATM   17  O2  UNL     1      27.436   7.137  47.832  1.00  0.00    -0.316 OA
BRANCH  17  18
HETATM   18  C2  UNL     1      27.989   8.211  48.555  1.00  0.00     0.201 C 
BRANCH  18  19
HETATM   19  C1  UNL     1      29.302   8.055  48.593  1.00  0.00     0.245 C 
HETATM   20  O1  UNL     1      30.476   7.631  48.679  1.00  0.00    -0.282 OA
ENDBRANCH  18  19
ENDBRANCH  17  18
ENDBRANCH   1  17
TORSDOF 4
ENDMDL
MODEL 6
REMARK VINA RESULT:      -6.7      6.594      8.668
REMARK  4 active torsions:
REMARK  status: ('A' for Active; 'I' for Inactive)
REMARK    1  A    between atoms: C1_2  and  C2_3 
REMARK    2  A    between atoms: C2_3  and  O2_4 
REMARK    3  A    between atoms: O2_4  and  C3_5 
REMARK    4  A    between atoms: C6_8  and  C7_9 
ROOT
HETATM    1  C3  UNL     1      26.624   6.327  48.756  1.00  0.00     0.113 A 
HETATM    2  C4  UNL     1      27.298   5.119  48.674  1.00  0.00     0.041 A 
HETATM    3  C5  UNL     1      26.830   3.984  49.328  1.00  0.00     0.017 A 
HETATM    4  C6  UNL     1      25.669   4.185  50.037  1.00  0.00     0.003 A 
HETATM    5  C14 UNL     1      24.973   5.352  50.145  1.00  0.00     0.059 A 
HETATM    6  C15 UNL     1      25.468   6.461  49.481  1.00  0.00     0.150 A 
HETATM    7  F1  UNL     1      24.824   7.649  49.549  1.00  0.00    -0.203 F 
ENDROOT
BRANCH   4   8
HETATM    8  C7  UNL     1      25.060   3.065  50.779  1.00  0.00     0.109 A 
HETATM    9  N1  UNL     1      23.857   2.581  50.857  1.00  0.00    -0.240 NA
HETATM   10  C8  UNL     1      23.689   1.530  51.658  1.00  0.00     0.075 A 
HETATM   11  C9  UNL     1      22.435   0.939  51.809  1.00  0.00     0.033 A 
HETATM   12  C13 UNL     1      24.750   0.952  52.394  1.00  0.00     0.035 A 
HETATM   13  C10 UNL     1      22.266  -0.132  52.627  1.00  0.00     0.002 A 
HETATM   14  C11 UNL     1      23.297  -0.722  53.364  1.00  0.00     0.002 A 
HETATM   15  C12 UNL     1      24.525  -0.157  53.226  1.00  0.00     0.021 A 
HETATM   16  S1  UNL     1      26.082   2.020  51.878  1.00  0.00    -0.068 SA
ENDBRANCH   4   8
BRANCH   1  17
HETATM   17  O2  UNL     1      27.138   7.436  48.079  1.00  0.00    -0.316 OA
BRANCH  17  18
HETATM   18  C2  UNL     1      28.281   8.061  48.613  1.00  0.00     0.201 C 
BRANCH  18  19
HETATM   19  C1  UNL     1      27.887   8.968  49.492  1.00  0.00     0.245 C 
HETATM   20  O1  UNL     1      27.366   9.604  50.435  1.00  0.00    -0.282 OA
ENDBRANCH  18  19
ENDBRANCH  17  18
ENDBRANCH   1  17
TORSDOF 4
ENDMDL
MODEL 7
REMARK VINA RESULT:      -6.6      3.928      8.263
REMARK  4 active torsions:
REMARK  status: ('A' for Active; 'I' for Inactive)
REMARK    1  A    between atoms: C1_2  and  C2_3 
REMARK    2  A    between atoms: C2_3  and  O2_4 
REMARK    3  A    between atoms: O2_4  and  C3_5 
REMARK    4  A    between atoms: C6_8  and  C7_9 
ROOT
HETATM    1  C3  UNL     1      24.902   1.571  53.085  1.00  0.00     0.113 A 
HETATM    2  C4  UNL     1      24.613   0.233  53.304  1.00  0.00     0.041 A 
HETATM    3  C5  UNL     1      23.327  -0.267  53.128  1.00  0.00     0.017 A 
HETATM    4  C6  UNL     1      22.409   0.675  52.728  1.00  0.00     0.003 A 
HETATM    5  C14 UNL     1      22.647   1.998  52.502  1.00  0.00     0.059 A 
HETATM    6  C15 UNL     1      23.938   2.462  52.686  1.00  0.00     0.150 A 
HETATM    7  F1  UNL     1      24.239   3.765  52.477  1.00  0.00    -0.203 F 
ENDROOT
BRANCH   4   8
HETATM    8  C7  UNL     1      21.006   0.281  52.504  1.00  0.00     0.109 A 
HETATM    9  N1  UNL     1      20.150  -0.433  53.172  1.00  0.00    -0.240 NA
HETATM   10  C8  UNL     1      18.939  -0.569  52.634  1.00  0.00     0.075 A 
HETATM   11  C9  UNL     1      17.952  -1.317  53.274  1.00  0.00     0.033 A 
HETATM   12  C13 UNL     1      18.579   0.025  51.401  1.00  0.00     0.035 A 
HETATM   13  C10 UNL     1      16.718  -1.454  52.723  1.00  0.00     0.002 A 
HETATM   14  C11 UNL     1      16.337  -0.878  51.508  1.00  0.00     0.002 A 
HETATM   15  C12 UNL     1      17.289  -0.145  50.873  1.00  0.00     0.021 A 
HETATM   16  S1  UNL     1      20.117   0.835  51.005  1.00  0.00    -0.068 SA
ENDBRANCH   4   8
BRANCH   1  17
HETATM   17  O2  UNL     1      26.210   2.021  53.276  1.00  0.00    -0.316 OA
BRANCH  17  18
HETATM   18  C2  UNL     1      27.191   1.068  53.612  1.00  0.00     0.201 C 
BRANCH  18  19
HETATM   19  C1  UNL     1      28.307   1.710  53.918  1.00  0.00     0.245 C 
HETATM   20  O1  UNL     1      29.198   2.437  54.412  1.00  0.00    -0.282 OA
ENDBRANCH  18  19
ENDBRANCH  17  18
ENDBRANCH   1  17
TORSDOF 4
ENDMDL
MODEL 8
REMARK VINA RESULT:      -6.6      8.376      9.528
REMARK  4 active torsions:
REMARK  status: ('A' for Active; 'I' for Inactive)
REMARK    1  A    between atoms: C1_2  and  C2_3 
REMARK    2  A    between atoms: C2_3  and  O2_4 
REMARK    3  A    between atoms: O2_4  and  C3_5 
REMARK    4  A    between atoms: C6_8  and  C7_9 
ROOT
HETATM    1  C3  UNL     1      26.482   6.793  48.625  1.00  0.00     0.113 A 
HETATM    2  C4  UNL     1      27.475   7.703  48.300  1.00  0.00     0.041 A 
HETATM    3  C5  UNL     1      28.787   7.296  48.083  1.00  0.00     0.017 A 
HETATM    4  C6  UNL     1      28.983   5.942  48.220  1.00  0.00     0.003 A 
HETATM    5  C14 UNL     1      28.040   5.011  48.537  1.00  0.00     0.059 A 
HETATM    6  C15 UNL     1      26.744   5.452  48.747  1.00  0.00     0.150 A 
HETATM    7  F1  UNL     1      25.762   4.577  49.065  1.00  0.00    -0.203 F 
ENDROOT
BRANCH   4   8
HETATM    8  C7  UNL     1      30.328   5.373  48.017  1.00  0.00     0.109 A 
HETATM    9  N1  UNL     1      30.783   4.335  47.380  1.00  0.00    -0.240 NA
HETATM   10  C8  UNL     1      32.101   4.140  47.425  1.00  0.00     0.075 A 
HETATM   11  C9  UNL     1      32.685   3.055  46.773  1.00  0.00     0.033 A 
HETATM   12  C13 UNL     1      32.978   5.003  48.122  1.00  0.00     0.035 A 
HETATM   13  C10 UNL     1      34.028   2.857  46.820  1.00  0.00     0.002 A 
HETATM   14  C11 UNL     1      34.917   3.694  47.501  1.00  0.00     0.002 A 
HETATM   15  C12 UNL     1      34.361   4.757  48.140  1.00  0.00     0.021 A 
HETATM   16  S1  UNL     1      31.795   6.178  48.753  1.00  0.00    -0.068 SA
ENDBRANCH   4   8
BRANCH   1  17
HETATM   17  O2  UNL     1      25.180   7.255  48.833  1.00  0.00    -0.316 OA
BRANCH  17  18
HETATM   18  C2  UNL     1      24.916   7.962  50.022  1.00  0.00     0.201 C 
BRANCH  18  19
HETATM   19  C1  UNL     1      24.308   7.144  50.865  1.00  0.00     0.245 C 
HETATM   20  O1  UNL     1      23.984   6.229  51.655  1.00  0.00    -0.282 OA
ENDBRANCH  18  19
ENDBRANCH  17  18
ENDBRANCH   1  17
TORSDOF 4
ENDMDL
MODEL 9
REMARK VINA RESULT:      -6.5      7.111      8.732
REMARK  4 active torsions:
REMARK  status: ('A' for Active; 'I' for Inactive)
REMARK    1  A    between atoms: C1_2  and  C2_3 
REMARK    2  A    between atoms: C2_3  and  O2_4 
REMARK    3  A    between atoms: O2_4  and  C3_5 
REMARK    4  A    between atoms: C6_8  and  C7_9 
ROOT
HETATM    1  C3  UNL     1      26.519   6.788  48.150  1.00  0.00     0.113 A 
HETATM    2  C4  UNL     1      27.575   5.895  48.238  1.00  0.00     0.041 A 
HETATM    3  C5  UNL     1      27.478   4.731  48.992  1.00  0.00     0.017 A 
HETATM    4  C6  UNL     1      26.264   4.568  49.617  1.00  0.00     0.003 A 
HETATM    5  C14 UNL     1      25.199   5.417  49.560  1.00  0.00     0.059 A 
HETATM    6  C15 UNL     1      25.331   6.567  48.799  1.00  0.00     0.150 A 
HETATM    7  F1  UNL     1      24.310   7.449  48.702  1.00  0.00    -0.203 F 
ENDROOT
BRANCH   4   8
HETATM    8  C7  UNL     1      26.024   3.376  50.451  1.00  0.00     0.109 A 
HETATM    9  N1  UNL     1      26.773   2.400  50.870  1.00  0.00    -0.240 NA
HETATM   10  C8  UNL     1      26.180   1.478  51.628  1.00  0.00     0.075 A 
HETATM   11  C9  UNL     1      26.900   0.393  52.126  1.00  0.00     0.033 A 
HETATM   12  C13 UNL     1      24.810   1.537  51.971  1.00  0.00     0.035 A 
HETATM   13  C10 UNL     1      26.294  -0.547  52.898  1.00  0.00     0.002 A 
HETATM   14  C11 UNL     1      24.942  -0.513  53.252  1.00  0.00     0.002 A 
HETATM   15  C12 UNL     1      24.229   0.541  52.774  1.00  0.00     0.021 A 
HETATM   16  S1  UNL     1      24.359   3.042  51.129  1.00  0.00    -0.068 SA
ENDBRANCH   4   8
BRANCH   1  17
HETATM   17  O2  UNL     1      26.670   7.942  47.378  1.00  0.00    -0.316 OA
BRANCH  17  18
HETATM   18  C2  UNL     1      27.595   8.909  47.815  1.00  0.00     0.201 C 
BRANCH  18  19
HETATM   19  C1  UNL     1      26.927   9.890  48.401  1.00  0.00     0.245 C 
HETATM   20  O1  UNL     1      26.555  10.885  49.061  1.00  0.00    -0.282 OA
ENDBRANCH  18  19
ENDBRANCH  17  18
ENDBRANCH   1  17
TORSDOF 4
ENDMDL
