MODEL 1
REMARK VINA RESULT:      -7.1      0.000      0.000
REMARK  1 active torsions:
REMARK  status: ('A' for Active; 'I' for Inactive)
REMARK    1  A    between atoms: C14_19  and  C15_20 
ROOT
HETATM    1  C1  UNL     1      22.896   8.283  49.267  1.00  0.00     0.068 C 
HETATM    2  C2  UNL     1      22.999   6.822  48.914  1.00  0.00     0.003 C 
HETATM    3  C3  UNL     1      22.265   6.275  47.983  1.00  0.00     0.032 C 
HETATM    4  C4  UNL     1      22.515   4.850  47.791  1.00  0.00     0.241 C 
HETATM    5  C5  UNL     1      22.015   4.473  46.411  1.00  0.00     0.047 C 
HETATM    6  N1  UNL     1      21.954   3.989  48.814  1.00  0.00     0.092 N 
HETATM    7  C6  UNL     1      22.335   2.654  48.490  1.00  0.00     0.300 C 
HETATM    8  C7  UNL     1      21.821   1.589  49.381  1.00  0.00     0.302 C 
HETATM    9  N2  UNL     1      22.179   1.643  50.755  1.00  0.00     0.098 N 
HETATM   10  C8  UNL     1      22.069   0.277  51.309  1.00  0.00     0.299 C 
HETATM   11  C9  UNL     1      21.867   0.396  52.821  1.00  0.00     0.205 C 
HETATM   12  O1  UNL     1      22.986   1.121  53.370  1.00  0.00    -0.352 OA
HETATM   13  C10 UNL     1      23.869   1.650  52.422  1.00  0.00     0.077 C 
HETATM   14  C11 UNL     1      25.169   1.779  52.772  1.00  0.00     0.077 C 
HETATM   15  C12 UNL     1      26.375   2.268  52.116  1.00  0.00     0.134 C 
HETATM   16  F1  UNL     1      27.538   2.210  52.851  1.00  0.00    -0.205 F 
HETATM   17  C13 UNL     1      26.588   2.774  50.911  1.00  0.00     0.130 C 
HETATM   18  N3  UNL     1      26.186   3.204  49.594  1.00  0.00    -0.360 N 
HETATM   19  C14 UNL     1      25.972   4.605  49.384  1.00  0.00     0.071 C 
HETATM   20  C16 UNL     1      25.206   5.666  49.461  1.00  0.00     0.119 C 
HETATM   21  N4  UNL     1      24.002   6.329  49.795  1.00  0.00    -0.367 N 
HETATM   22  C17 UNL     1      23.518   2.092  51.033  1.00  0.00     0.336 C 
HETATM   23  H9  UNL     1      20.925   4.042  48.865  1.00  0.00     0.316 HD
HETATM   24  H20 UNL     1      26.054   2.509  48.826  1.00  0.00     0.165 HD
HETATM   25  H23 UNL     1      23.934   6.419  50.844  1.00  0.00     0.165 HD
ENDROOT
BRANCH  19  26
HETATM   26  C15 UNL     1      27.321   4.802  48.819  1.00  0.00     0.409 C 
HETATM   27  O2  UNL     1      28.520   4.693  48.430  1.00  0.00    -0.404 OA
ENDBRANCH  19  26
TORSDOF 1
ENDMDL
MODEL 2
REMARK VINA RESULT:      -7.1      3.180      5.422
REMARK  1 active torsions:
REMARK  status: ('A' for Active; 'I' for Inactive)
REMARK    1  A    between atoms: C14_19  and  C15_20 
ROOT
HETATM    1  C1  UNL     1      21.894   3.197  46.832  1.00  0.00     0.068 C 
HETATM    2  C2  UNL     1      22.268   3.469  48.265  1.00  0.00     0.003 C 
HETATM    3  C3  UNL     1      23.084   4.429  48.605  1.00  0.00     0.032 C 
HETATM    4  C4  UNL     1      23.318   4.530  50.042  1.00  0.00     0.241 C 
HETATM    5  C5  UNL     1      23.829   5.927  50.332  1.00  0.00     0.047 C 
HETATM    6  N1  UNL     1      24.198   3.516  50.590  1.00  0.00     0.092 N 
HETATM    7  C6  UNL     1      24.269   3.743  51.995  1.00  0.00     0.300 C 
HETATM    8  C7  UNL     1      25.166   2.846  52.760  1.00  0.00     0.302 C 
HETATM    9  N2  UNL     1      24.896   1.451  52.727  1.00  0.00     0.098 N 
HETATM   10  C8  UNL     1      25.493   0.842  53.935  1.00  0.00     0.299 C 
HETATM   11  C9  UNL     1      25.736  -0.640  53.644  1.00  0.00     0.205 C 
HETATM   12  O1  UNL     1      24.474  -1.244  53.294  1.00  0.00    -0.352 OA
HETATM   13  C10 UNL     1      23.408  -0.347  53.160  1.00  0.00     0.077 C 
HETATM   14  C11 UNL     1      22.165  -0.797  53.445  1.00  0.00     0.077 C 
HETATM   15  C12 UNL     1      20.827  -0.220  53.435  1.00  0.00     0.134 C 
HETATM   16  F1  UNL     1      19.799  -1.050  53.821  1.00  0.00    -0.205 F 
HETATM   17  C13 UNL     1      20.382   0.987  53.118  1.00  0.00     0.130 C 
HETATM   18  N3  UNL     1      20.534   2.352  52.677  1.00  0.00    -0.360 N 
HETATM   19  C14 UNL     1      20.250   2.647  51.304  1.00  0.00     0.071 C 
HETATM   20  C16 UNL     1      20.617   2.685  50.046  1.00  0.00     0.119 C 
HETATM   21  N4  UNL     1      21.545   2.484  48.998  1.00  0.00    -0.367 N 
HETATM   22  C17 UNL     1      23.503   1.086  52.730  1.00  0.00     0.336 C 
HETATM   23  H9  UNL     1      25.150   3.553  50.194  1.00  0.00     0.316 HD
HETATM   24  H20 UNL     1      20.845   3.093  53.343  1.00  0.00     0.165 HD
HETATM   25  H23 UNL     1      21.644   1.450  48.813  1.00  0.00     0.165 HD
ENDROOT
BRANCH  19  26
HETATM   26  C15 UNL     1      18.881   3.107  51.608  1.00  0.00     0.409 C 
HETATM   27  O2  UNL     1      17.849   3.735  51.986  1.00  0.00    -0.404 OA
ENDBRANCH  19  26
TORSDOF 1
ENDMDL
MODEL 3
REMARK VINA RESULT:      -6.8      5.509      8.577
REMARK  1 active torsions:
REMARK  status: ('A' for Active; 'I' for Inactive)
REMARK    1  A    between atoms: C14_19  and  C15_20 
ROOT
HETATM    1  C1  UNL     1      28.227  11.849  44.614  1.00  0.00     0.068 C 
HETATM    2  C2  UNL     1      28.618  11.368  45.987  1.00  0.00     0.003 C 
HETATM    3  C3  UNL     1      29.434  12.037  46.756  1.00  0.00     0.032 C 
HETATM    4  C4  UNL     1      29.686  11.405  48.047  1.00  0.00     0.241 C 
HETATM    5  C5  UNL     1      30.194  12.473  48.995  1.00  0.00     0.047 C 
HETATM    6  N1  UNL     1      30.579  10.263  48.004  1.00  0.00     0.092 N 
HETATM    7  C6  UNL     1      30.668   9.754  49.332  1.00  0.00     0.300 C 
HETATM    8  C7  UNL     1      31.580   8.605  49.535  1.00  0.00     0.302 C 
HETATM    9  N2  UNL     1      31.317   7.412  48.808  1.00  0.00     0.098 N 
HETATM   10  C8  UNL     1      31.934   6.286  49.541  1.00  0.00     0.299 C 
HETATM   11  C9  UNL     1      32.181   5.154  48.543  1.00  0.00     0.205 C 
HETATM   12  O1  UNL     1      30.918   4.793  47.948  1.00  0.00    -0.352 OA
HETATM   13  C10 UNL     1      29.845   5.623  48.292  1.00  0.00     0.077 C 
HETATM   14  C11 UNL     1      28.608   5.077  48.323  1.00  0.00     0.077 C 
HETATM   15  C12 UNL     1      27.267   5.566  48.616  1.00  0.00     0.134 C 
HETATM   16  F1  UNL     1      26.249   4.642  48.541  1.00  0.00    -0.205 F 
HETATM   17  C13 UNL     1      26.812   6.763  48.952  1.00  0.00     0.130 C 
HETATM   18  N3  UNL     1      26.950   8.167  49.255  1.00  0.00    -0.360 N 
HETATM   19  C14 UNL     1      26.646   9.108  48.219  1.00  0.00     0.071 C 
HETATM   20  C16 UNL     1      26.996   9.777  47.147  1.00  0.00     0.119 C 
HETATM   21  N4  UNL     1      27.911  10.141  46.132  1.00  0.00    -0.367 N 
HETATM   22  C17 UNL     1      29.927   7.079  48.639  1.00  0.00     0.336 C 
HETATM   23  H9  UNL     1      31.526  10.506  47.672  1.00  0.00     0.316 HD
HETATM   24  H20 UNL     1      27.265   8.477  50.201  1.00  0.00     0.165 HD
HETATM   25  H23 UNL     1      28.013   9.341  45.452  1.00  0.00     0.165 HD
ENDROOT
BRANCH  19  26
HETATM   26  C15 UNL     1      25.279   9.337  48.725  1.00  0.00     0.409 C 
HETATM   27  O2  UNL     1      24.131   9.252  49.251  1.00  0.00    -0.404 OA
ENDBRANCH  19  26
TORSDOF 1
ENDMDL
MODEL 4
REMARK VINA RESULT:      -6.4      2.135      2.725
REMARK  1 active torsions:
REMARK  status: ('A' for Active; 'I' for Inactive)
REMARK    1  A    between atoms: C14_19  and  C15_20 
ROOT
HETATM    1  C1  UNL     1      22.977   7.615  50.828  1.00  0.00     0.068 C 
HETATM    2  C2  UNL     1      22.792   6.255  50.207  1.00  0.00     0.003 C 
HETATM    3  C3  UNL     1      22.354   6.097  48.987  1.00  0.00     0.032 C 
HETATM    4  C4  UNL     1      22.246   4.702  48.572  1.00  0.00     0.241 C 
HETATM    5  C5  UNL     1      22.236   4.669  47.056  1.00  0.00     0.047 C 
HETATM    6  N1  UNL     1      21.113   3.986  49.127  1.00  0.00     0.092 N 
HETATM    7  C6  UNL     1      21.197   2.645  48.653  1.00  0.00     0.300 C 
HETATM    8  C7  UNL     1      20.099   1.736  49.057  1.00  0.00     0.302 C 
HETATM    9  N2  UNL     1      19.895   1.518  50.446  1.00  0.00     0.098 N 
HETATM   10  C8  UNL     1      19.198   0.224  50.608  1.00  0.00     0.299 C 
HETATM   11  C9  UNL     1      18.468   0.247  51.952  1.00  0.00     0.205 C 
HETATM   12  O1  UNL     1      19.441   0.476  52.991  1.00  0.00    -0.352 OA
HETATM   13  C10 UNL     1      20.733   0.763  52.535  1.00  0.00     0.077 C 
HETATM   14  C11 UNL     1      21.774   0.396  53.317  1.00  0.00     0.077 C 
HETATM   15  C12 UNL     1      23.225   0.502  53.227  1.00  0.00     0.134 C 
HETATM   16  F1  UNL     1      23.943  -0.031  54.273  1.00  0.00    -0.205 F 
HETATM   17  C13 UNL     1      24.022   1.027  52.309  1.00  0.00     0.130 C 
HETATM   18  N3  UNL     1      24.302   1.706  51.067  1.00  0.00    -0.360 N 
HETATM   19  C14 UNL     1      24.591   3.108  51.122  1.00  0.00     0.071 C 
HETATM   20  C16 UNL     1      24.189   4.354  51.179  1.00  0.00     0.119 C 
HETATM   21  N4  UNL     1      23.191   5.355  51.236  1.00  0.00    -0.367 N 
HETATM   22  C17 UNL     1      21.089   1.443  51.248  1.00  0.00     0.336 C 
HETATM   23  H9  UNL     1      20.206   4.388  48.843  1.00  0.00     0.316 HD
HETATM   24  H20 UNL     1      24.288   1.184  50.163  1.00  0.00     0.165 HD
HETATM   25  H23 UNL     1      22.749   5.352  52.194  1.00  0.00     0.165 HD
ENDROOT
BRANCH  19  26
HETATM   26  C15 UNL     1      26.050   2.884  51.098  1.00  0.00     0.409 C 
HETATM   27  O2  UNL     1      27.243   2.521  51.314  1.00  0.00    -0.404 OA
ENDBRANCH  19  26
TORSDOF 1
ENDMDL
MODEL 5
REMARK VINA RESULT:      -6.3      6.304     10.161
REMARK  1 active torsions:
REMARK  status: ('A' for Active; 'I' for Inactive)
REMARK    1  A    between atoms: C14_19  and  C15_20 
ROOT
HETATM    1  C1  UNL     1      34.167   5.762  48.587  1.00  0.00     0.068 C 
HETATM    2  C2  UNL     1      33.129   6.354  47.669  1.00  0.00     0.003 C 
HETATM    3  C3  UNL     1      33.331   6.499  46.387  1.00  0.00     0.032 C 
HETATM    4  C4  UNL     1      32.204   7.090  45.672  1.00  0.00     0.241 C 
HETATM    5  C5  UNL     1      32.348   6.736  44.206  1.00  0.00     0.047 C 
HETATM    6  N1  UNL     1      32.043   8.519  45.862  1.00  0.00     0.092 N 
HETATM    7  C6  UNL     1      30.880   8.906  45.136  1.00  0.00     0.300 C 
HETATM    8  C7  UNL     1      30.550  10.350  45.145  1.00  0.00     0.302 C 
HETATM    9  N2  UNL     1      30.300  10.966  46.401  1.00  0.00     0.098 N 
HETATM   10  C8  UNL     1      29.472  12.168  46.163  1.00  0.00     0.299 C 
HETATM   11  C9  UNL     1      29.683  13.126  47.336  1.00  0.00     0.205 C 
HETATM   12  O1  UNL     1      29.315  12.440  48.551  1.00  0.00    -0.352 OA
HETATM   13  C10 UNL     1      29.014  11.082  48.392  1.00  0.00     0.077 C 
HETATM   14  C11 UNL     1      28.118  10.531  49.244  1.00  0.00     0.077 C 
HETATM   15  C12 UNL     1      27.544   9.204  49.427  1.00  0.00     0.134 C 
HETATM   16  F1  UNL     1      26.625   9.069  50.441  1.00  0.00    -0.205 F 
HETATM   17  C13 UNL     1      27.735   8.058  48.790  1.00  0.00     0.130 C 
HETATM   18  N3  UNL     1      28.338   7.215  47.787  1.00  0.00    -0.360 N 
HETATM   19  C14 UNL     1      29.427   6.374  48.186  1.00  0.00     0.071 C 
HETATM   20  C16 UNL     1      30.701   6.200  48.438  1.00  0.00     0.119 C 
HETATM   21  N4  UNL     1      32.039   6.650  48.535  1.00  0.00    -0.367 N 
HETATM   22  C17 UNL     1      29.587  10.161  47.358  1.00  0.00     0.336 C 
HETATM   23  H9  UNL     1      32.850   9.063  45.520  1.00  0.00     0.316 HD
HETATM   24  H20 UNL     1      27.987   7.227  46.803  1.00  0.00     0.165 HD
HETATM   25  H23 UNL     1      32.136   7.273  49.382  1.00  0.00     0.165 HD
ENDROOT
BRANCH  19  26
HETATM   26  C15 UNL     1      28.551   5.198  48.363  1.00  0.00     0.409 C 
HETATM   27  O2  UNL     1      27.748   4.314  48.780  1.00  0.00    -0.404 OA
ENDBRANCH  19  26
TORSDOF 1
ENDMDL
MODEL 6
REMARK VINA RESULT:      -6.3      1.754      5.287
REMARK  1 active torsions:
REMARK  status: ('A' for Active; 'I' for Inactive)
REMARK    1  A    between atoms: C14_19  and  C15_20 
ROOT
HETATM    1  C1  UNL     1      19.537   3.206  47.116  1.00  0.00     0.068 C 
HETATM    2  C2  UNL     1      20.325   4.084  48.053  1.00  0.00     0.003 C 
HETATM    3  C3  UNL     1      20.026   5.339  48.253  1.00  0.00     0.032 C 
HETATM    4  C4  UNL     1      20.908   6.017  49.197  1.00  0.00     0.241 C 
HETATM    5  C5  UNL     1      20.180   7.241  49.716  1.00  0.00     0.047 C 
HETATM    6  N1  UNL     1      22.217   6.358  48.673  1.00  0.00     0.092 N 
HETATM    7  C6  UNL     1      22.947   6.962  49.737  1.00  0.00     0.300 C 
HETATM    8  C7  UNL     1      24.308   7.444  49.409  1.00  0.00     0.302 C 
HETATM    9  N2  UNL     1      25.255   6.493  48.942  1.00  0.00     0.098 N 
HETATM   10  C8  UNL     1      26.608   7.020  49.219  1.00  0.00     0.299 C 
HETATM   11  C9  UNL     1      27.582   6.353  48.246  1.00  0.00     0.205 C 
HETATM   12  O1  UNL     1      27.502   4.926  48.435  1.00  0.00    -0.352 OA
HETATM   13  C10 UNL     1      26.495   4.502  49.310  1.00  0.00     0.077 C 
HETATM   14  C11 UNL     1      26.704   3.364  50.010  1.00  0.00     0.077 C 
HETATM   15  C12 UNL     1      25.944   2.594  50.987  1.00  0.00     0.134 C 
HETATM   16  F1  UNL     1      26.550   1.461  51.479  1.00  0.00    -0.205 F 
HETATM   17  C13 UNL     1      24.744   2.772  51.519  1.00  0.00     0.130 C 
HETATM   18  N3  UNL     1      23.494   3.469  51.699  1.00  0.00    -0.360 N 
HETATM   19  C14 UNL     1      22.346   2.977  50.997  1.00  0.00     0.071 C 
HETATM   20  C16 UNL     1      21.619   2.904  49.909  1.00  0.00     0.119 C 
HETATM   21  N4  UNL     1      21.337   3.220  48.559  1.00  0.00    -0.367 N 
HETATM   22  C17 UNL     1      25.188   5.193  49.558  1.00  0.00     0.336 C 
HETATM   23  H9  UNL     1      22.172   7.015  47.879  1.00  0.00     0.316 HD
HETATM   24  H20 UNL     1      23.438   4.306  52.320  1.00  0.00     0.165 HD
HETATM   25  H23 UNL     1      22.011   2.703  47.932  1.00  0.00     0.165 HD
ENDROOT
BRANCH  19  26
HETATM   26  C15 UNL     1      21.863   2.218  52.167  1.00  0.00     0.409 C 
HETATM   27  O2  UNL     1      21.540   1.333  53.012  1.00  0.00    -0.404 OA
ENDBRANCH  19  26
TORSDOF 1
ENDMDL
MODEL 7
REMARK VINA RESULT:      -6.0      3.698      5.652
REMARK  1 active torsions:
REMARK  status: ('A' for Active; 'I' for Inactive)
REMARK    1  A    between atoms: C14_19  and  C15_20 
ROOT
HETATM    1  C1  UNL     1      16.366   4.331  51.540  1.00  0.00     0.068 C 
HETATM    2  C2  UNL     1      17.385   3.275  51.202  1.00  0.00     0.003 C 
HETATM    3  C3  UNL     1      17.213   2.016  51.501  1.00  0.00     0.032 C 
HETATM    4  C4  UNL     1      18.313   1.151  51.087  1.00  0.00     0.241 C 
HETATM    5  C5  UNL     1      17.787  -0.268  51.019  1.00  0.00     0.047 C 
HETATM    6  N1  UNL     1      19.502   1.240  51.912  1.00  0.00     0.092 N 
HETATM    7  C6  UNL     1      20.474   0.372  51.335  1.00  0.00     0.300 C 
HETATM    8  C7  UNL     1      21.765   0.261  52.053  1.00  0.00     0.302 C 
HETATM    9  N2  UNL     1      22.532   1.445  52.225  1.00  0.00     0.098 N 
HETATM   10  C8  UNL     1      23.943   1.051  52.421  1.00  0.00     0.299 C 
HETATM   11  C9  UNL     1      24.650   2.183  53.168  1.00  0.00     0.205 C 
HETATM   12  O1  UNL     1      24.523   3.389  52.387  1.00  0.00    -0.352 OA
HETATM   13  C10 UNL     1      23.695   3.278  51.264  1.00  0.00     0.077 C 
HETATM   14  C11 UNL     1      23.973   4.059  50.194  1.00  0.00     0.077 C 
HETATM   15  C12 UNL     1      23.387   4.256  48.875  1.00  0.00     0.134 C 
HETATM   16  F1  UNL     1      24.010   5.172  48.059  1.00  0.00    -0.205 F 
HETATM   17  C13 UNL     1      22.337   3.711  48.279  1.00  0.00     0.130 C 
HETATM   18  N3  UNL     1      21.198   2.828  48.207  1.00  0.00    -0.360 N 
HETATM   19  C14 UNL     1      19.901   3.390  48.439  1.00  0.00     0.071 C 
HETATM   20  C16 UNL     1      18.961   3.787  49.261  1.00  0.00     0.119 C 
HETATM   21  N4  UNL     1      18.423   4.000  50.552  1.00  0.00    -0.367 N 
HETATM   22  C17 UNL     1      22.514   2.366  51.118  1.00  0.00     0.336 C 
HETATM   23  H9  UNL     1      19.335   0.955  52.890  1.00  0.00     0.316 HD
HETATM   24  H20 UNL     1      21.326   1.814  47.994  1.00  0.00     0.165 HD
HETATM   25  H23 UNL     1      18.919   4.815  51.005  1.00  0.00     0.165 HD
ENDROOT
BRANCH  19  26
HETATM   26  C15 UNL     1      19.626   3.540  46.997  1.00  0.00     0.409 C 
HETATM   27  O2  UNL     1      19.109   3.701  45.853  1.00  0.00    -0.404 OA
ENDBRANCH  19  26
TORSDOF 1
ENDMDL
MODEL 8
REMARK VINA RESULT:      -5.9      4.113      7.348
REMARK  1 active torsions:
REMARK  status: ('A' for Active; 'I' for Inactive)
REMARK    1  A    between atoms: C14_19  and  C15_20 
ROOT
HETATM    1  C1  UNL     1      23.744   9.318  43.986  1.00  0.00     0.068 C 
HETATM    2  C2  UNL     1      24.429   9.473  45.318  1.00  0.00     0.003 C 
HETATM    3  C3  UNL     1      24.695  10.642  45.836  1.00  0.00     0.032 C 
HETATM    4  C4  UNL     1      25.361  10.579  47.133  1.00  0.00     0.241 C 
HETATM    5  C5  UNL     1      25.149  11.909  47.828  1.00  0.00     0.047 C 
HETATM    6  N1  UNL     1      26.766  10.223  47.081  1.00  0.00     0.092 N 
HETATM    7  C6  UNL     1      27.230  10.166  48.427  1.00  0.00     0.300 C 
HETATM    8  C7  UNL     1      28.669   9.868  48.614  1.00  0.00     0.302 C 
HETATM    9  N2  UNL     1      29.164   8.636  48.107  1.00  0.00     0.098 N 
HETATM   10  C8  UNL     1      30.388   8.292  48.859  1.00  0.00     0.299 C 
HETATM   11  C9  UNL     1      31.227   7.354  47.990  1.00  0.00     0.205 C 
HETATM   12  O1  UNL     1      30.431   6.191  47.681  1.00  0.00    -0.352 OA
HETATM   13  C10 UNL     1      29.097   6.263  48.099  1.00  0.00     0.077 C 
HETATM   14  C11 UNL     1      28.473   5.107  48.420  1.00  0.00     0.077 C 
HETATM   15  C12 UNL     1      27.139   4.743  48.880  1.00  0.00     0.134 C 
HETATM   16  F1  UNL     1      26.915   3.404  49.109  1.00  0.00    -0.205 F 
HETATM   17  C13 UNL     1      26.059   5.466  49.132  1.00  0.00     0.130 C 
HETATM   18  N3  UNL     1      25.311   6.696  49.220  1.00  0.00    -0.360 N 
HETATM   19  C14 UNL     1      24.427   7.021  48.140  1.00  0.00     0.071 C 
HETATM   20  C16 UNL     1      24.221   7.519  46.946  1.00  0.00     0.119 C 
HETATM   21  N4  UNL     1      24.649   8.133  45.745  1.00  0.00    -0.367 N 
HETATM   22  C17 UNL     1      28.275   7.509  48.233  1.00  0.00     0.336 C 
HETATM   23  H9  UNL     1      27.335  10.907  46.558  1.00  0.00     0.316 HD
HETATM   24  H20 UNL     1      25.420   7.325  50.046  1.00  0.00     0.165 HD
HETATM   25  H23 UNL     1      25.187   7.431  45.168  1.00  0.00     0.165 HD
ENDROOT
BRANCH  19  26
HETATM   26  C15 UNL     1      23.247   6.486  48.847  1.00  0.00     0.409 C 
HETATM   27  O2  UNL     1      22.153   5.944  49.180  1.00  0.00    -0.404 OA
ENDBRANCH  19  26
TORSDOF 1
ENDMDL
MODEL 9
REMARK VINA RESULT:      -5.8      5.468      8.633
REMARK  1 active torsions:
REMARK  status: ('A' for Active; 'I' for Inactive)
REMARK    1  A    between atoms: C14_19  and  C15_20 
ROOT
HETATM    1  C1  UNL     1      26.588  10.704  43.084  1.00  0.00     0.068 C 
HETATM    2  C2  UNL     1      27.007  10.723  44.531  1.00  0.00     0.003 C 
HETATM    3  C3  UNL     1      27.384  11.818  45.136  1.00  0.00     0.032 C 
HETATM    4  C4  UNL     1      27.749  11.627  46.536  1.00  0.00     0.241 C 
HETATM    5  C5  UNL     1      27.661  12.973  47.225  1.00  0.00     0.047 C 
HETATM    6  N1  UNL     1      29.041  11.002  46.749  1.00  0.00     0.092 N 
HETATM    7  C6  UNL     1      29.203  10.856  48.157  1.00  0.00     0.300 C 
HETATM    8  C7  UNL     1      30.490  10.282  48.614  1.00  0.00     0.302 C 
HETATM    9  N2  UNL     1      30.830   8.976  48.168  1.00  0.00     0.098 N 
HETATM   10  C8  UNL     1      31.788   8.398  49.134  1.00  0.00     0.299 C 
HETATM   11  C9  UNL     1      32.589   7.313  48.412  1.00  0.00     0.205 C 
HETATM   12  O1  UNL     1      31.662   6.329  47.907  1.00  0.00    -0.352 OA
HETATM   13  C10 UNL     1      30.311   6.662  48.055  1.00  0.00     0.077 C 
HETATM   14  C11 UNL     1      29.424   5.651  48.201  1.00  0.00     0.077 C 
HETATM   15  C12 UNL     1      27.980   5.557  48.373  1.00  0.00     0.134 C 
HETATM   16  F1  UNL     1      27.460   4.289  48.501  1.00  0.00    -0.205 F 
HETATM   17  C13 UNL     1      27.031   6.478  48.435  1.00  0.00     0.130 C 
HETATM   18  N3  UNL     1      26.532   7.832  48.420  1.00  0.00    -0.360 N 
HETATM   19  C14 UNL     1      25.964   8.323  47.200  1.00  0.00     0.071 C 
HETATM   20  C16 UNL     1      26.103   8.850  46.008  1.00  0.00     0.119 C 
HETATM   21  N4  UNL     1      26.874   9.366  44.941  1.00  0.00    -0.367 N 
HETATM   22  C17 UNL     1      29.734   8.046  48.071  1.00  0.00     0.336 C 
HETATM   23  H9  UNL     1      29.824  11.560  46.376  1.00  0.00     0.316 HD
HETATM   24  H20 UNL     1      26.591   8.428  49.275  1.00  0.00     0.165 HD
HETATM   25  H23 UNL     1      27.372   8.572  44.455  1.00  0.00     0.165 HD
ENDROOT
BRANCH  19  26
HETATM   26  C15 UNL     1      24.585   8.031  47.638  1.00  0.00     0.409 C 
HETATM   27  O2  UNL     1      23.491   7.498  47.987  1.00  0.00    -0.404 OA
ENDBRANCH  19  26
TORSDOF 1
ENDMDL
