MODEL 1
REMARK VINA RESULT:      -8.3      0.000      0.000
REMARK  6 active torsions:
REMARK  status: ('A' for Active; 'I' for Inactive)
REMARK    1  A    between atoms: N1_2  and  C2_3 
REMARK    2  A    between atoms: N1_2  and  C22_28 
REMARK    3  A    between atoms: C2_3  and  C3_4 
REMARK    4  A    between atoms: C3_4  and  C4_5 
REMARK    5  A    between atoms: C4_5  and  C5_6 
REMARK    6  A    between atoms: C22_28  and  C23_29 
ROOT
HETATM    1  C5  UNL     1      23.933  -0.317  53.959  1.00  0.00     0.051 A 
HETATM    2  O1  UNL     1      25.054   0.181  54.214  1.00  0.00    -0.335 OA
HETATM    3  C6  UNL     1      24.761  -0.491  52.714  1.00  0.00     0.112 A 
HETATM    4  C7  UNL     1      26.081   0.151  52.985  1.00  0.00     0.120 A 
HETATM    5  C8  UNL     1      27.121  -0.679  53.343  1.00  0.00     0.020 A 
HETATM    6  C9  UNL     1      28.307  -0.020  53.606  1.00  0.00     0.041 A 
HETATM    7  C10 UNL     1      28.537   1.348  53.543  1.00  0.00     0.116 A 
HETATM    8  F1  UNL     1      29.735   1.872  53.826  1.00  0.00    -0.206 F 
HETATM    9  C11 UNL     1      27.435   2.099  53.176  1.00  0.00     0.055 A 
HETATM   10  C12 UNL     1      26.191   1.545  52.888  1.00  0.00     0.011 A 
HETATM   11  C13 UNL     1      25.109   2.415  52.501  1.00  0.00     0.075 C 
HETATM   12  N2  UNL     1      23.923   2.739  52.860  1.00  0.00    -0.249 NA
HETATM   13  C14 UNL     1      23.082   3.687  52.250  1.00  0.00     0.069 A 
HETATM   14  C15 UNL     1      21.865   4.150  52.449  1.00  0.00     0.032 A 
HETATM   15  C16 UNL     1      21.547   5.162  51.444  1.00  0.00     0.003 A 
HETATM   16  C17 UNL     1      22.581   5.335  50.601  1.00  0.00     0.016 A 
HETATM   17  C18 UNL     1      23.587   4.402  51.089  1.00  0.00     0.018 A 
HETATM   18  C19 UNL     1      24.791   4.117  50.665  1.00  0.00     0.054 A 
HETATM   19  N3  UNL     1      25.699   4.529  49.652  1.00  0.00    -0.352 N 
HETATM   20  C20 UNL     1      26.841   3.684  49.673  1.00  0.00     0.202 A 
HETATM   21  N4  UNL     1      26.688   2.783  50.579  1.00  0.00    -0.267 NA
HETATM   22  C21 UNL     1      25.435   2.924  51.199  1.00  0.00     0.212 A 
HETATM   23  H16 UNL     1      25.473   5.346  49.029  1.00  0.00     0.166 HD
ENDROOT
BRANCH   1  24
HETATM   24  C4  UNL     1      22.597  -0.839  53.842  1.00  0.00     0.030 C 
BRANCH  24  25
HETATM   25  C3  UNL     1      21.356  -1.217  53.802  1.00  0.00     0.005 C 
BRANCH  25  26
HETATM   26  C2  UNL     1      20.215  -0.296  53.826  1.00  0.00     0.299 C 
BRANCH  26  27
HETATM   27  N1  UNL     1      19.581  -0.152  52.535  1.00  0.00     0.088 N 
HETATM   28  C1  UNL     1      18.244  -0.710  52.618  1.00  0.00     0.310 C 
BRANCH  27  29
HETATM   29  C22 UNL     1      19.565   1.200  52.075  1.00  0.00     0.287 C 
BRANCH  29  30
HETATM   30  C23 UNL     1      20.121   1.350  50.676  1.00  0.00     0.144 C 
HETATM   31 CL1  UNL     1      21.825   0.776  50.622  1.00  0.00    -0.129 Cl
ENDBRANCH  29  30
ENDBRANCH  27  29
ENDBRANCH  26  27
ENDBRANCH  25  26
ENDBRANCH  24  25
ENDBRANCH   1  24
TORSDOF 6
ENDMDL
MODEL 2
REMARK VINA RESULT:      -8.3      3.442      6.332
REMARK  6 active torsions:
REMARK  status: ('A' for Active; 'I' for Inactive)
REMARK    1  A    between atoms: N1_2  and  C2_3 
REMARK    2  A    between atoms: N1_2  and  C22_28 
REMARK    3  A    between atoms: C2_3  and  C3_4 
REMARK    4  A    between atoms: C3_4  and  C4_5 
REMARK    5  A    between atoms: C4_5  and  C5_6 
REMARK    6  A    between atoms: C22_28  and  C23_29 
ROOT
HETATM    1  C5  UNL     1      26.363   2.022  51.853  1.00  0.00     0.051 A 
HETATM    2  O1  UNL     1      25.445   1.654  51.084  1.00  0.00    -0.335 OA
HETATM    3  C6  UNL     1      25.162   2.860  52.204  1.00  0.00     0.112 A 
HETATM    4  C7  UNL     1      24.078   2.473  51.254  1.00  0.00     0.120 A 
HETATM    5  C8  UNL     1      23.127   1.587  51.714  1.00  0.00     0.020 A 
HETATM    6  C9  UNL     1      22.169   1.249  50.777  1.00  0.00     0.041 A 
HETATM    7  C10 UNL     1      22.079   1.704  49.469  1.00  0.00     0.116 A 
HETATM    8  F1  UNL     1      21.100   1.300  48.651  1.00  0.00    -0.206 F 
HETATM    9  C11 UNL     1      23.076   2.587  49.098  1.00  0.00     0.055 A 
HETATM   10  C12 UNL     1      24.093   3.000  49.955  1.00  0.00     0.011 A 
HETATM   11  C13 UNL     1      25.078   3.936  49.475  1.00  0.00     0.075 C 
HETATM   12  N2  UNL     1      26.344   4.044  49.312  1.00  0.00    -0.249 NA
HETATM   13  C14 UNL     1      27.038   5.141  48.774  1.00  0.00     0.069 A 
HETATM   14  C15 UNL     1      28.296   5.449  48.534  1.00  0.00     0.032 A 
HETATM   15  C16 UNL     1      28.378   6.783  47.941  1.00  0.00     0.003 A 
HETATM   16  C17 UNL     1      27.151   7.320  47.809  1.00  0.00     0.016 A 
HETATM   17  C18 UNL     1      26.264   6.291  48.334  1.00  0.00     0.018 A 
HETATM   18  C19 UNL     1      24.965   6.250  48.475  1.00  0.00     0.054 A 
HETATM   19  N3  UNL     1      23.827   7.055  48.195  1.00  0.00    -0.352 N 
HETATM   20  C20 UNL     1      22.670   6.440  48.744  1.00  0.00     0.202 A 
HETATM   21  N4  UNL     1      23.010   5.362  49.358  1.00  0.00    -0.267 NA
HETATM   22  C21 UNL     1      24.404   5.192  49.306  1.00  0.00     0.212 A 
HETATM   23  H16 UNL     1      23.925   7.953  47.655  1.00  0.00     0.166 HD
ENDROOT
BRANCH   1  24
HETATM   24  C4  UNL     1      27.525   2.315  52.650  1.00  0.00     0.030 C 
BRANCH  24  25
HETATM   25  C3  UNL     1      28.596   2.462  53.369  1.00  0.00     0.005 C 
BRANCH  25  26
HETATM   26  C2  UNL     1      29.206   1.391  54.163  1.00  0.00     0.299 C 
BRANCH  26  27
HETATM   27  N1  UNL     1      28.513   0.129  54.032  1.00  0.00     0.088 N 
HETATM   28  C1  UNL     1      29.495  -0.905  53.762  1.00  0.00     0.310 C 
BRANCH  27  29
HETATM   29  C22 UNL     1      27.713  -0.182  55.172  1.00  0.00     0.287 C 
BRANCH  29  30
HETATM   30  C23 UNL     1      26.229  -0.105  54.887  1.00  0.00     0.144 C 
HETATM   31 CL1  UNL     1      25.843  -1.002  53.376  1.00  0.00    -0.129 Cl
ENDBRANCH  29  30
ENDBRANCH  27  29
ENDBRANCH  26  27
ENDBRANCH  25  26
ENDBRANCH  24  25
ENDBRANCH   1  24
TORSDOF 6
ENDMDL
MODEL 3
REMARK VINA RESULT:      -8.1      3.239      6.336
REMARK  6 active torsions:
REMARK  status: ('A' for Active; 'I' for Inactive)
REMARK    1  A    between atoms: N1_2  and  C2_3 
REMARK    2  A    between atoms: N1_2  and  C22_28 
REMARK    3  A    between atoms: C2_3  and  C3_4 
REMARK    4  A    between atoms: C3_4  and  C4_5 
REMARK    5  A    between atoms: C4_5  and  C5_6 
REMARK    6  A    between atoms: C22_28  and  C23_29 
ROOT
HETATM    1  C5  UNL     1      23.414  -0.452  53.193  1.00  0.00     0.051 A 
HETATM    2  O1  UNL     1      22.419  -0.516  52.435  1.00  0.00    -0.335 OA
HETATM    3  C6  UNL     1      22.444   0.588  53.687  1.00  0.00     0.112 A 
HETATM    4  C7  UNL     1      21.278   0.562  52.756  1.00  0.00     0.120 A 
HETATM    5  C8  UNL     1      20.162  -0.135  53.166  1.00  0.00     0.020 A 
HETATM    6  C9  UNL     1      19.130  -0.143  52.247  1.00  0.00     0.041 A 
HETATM    7  C10 UNL     1      19.114   0.465  50.999  1.00  0.00     0.116 A 
HETATM    8  F1  UNL     1      18.051   0.385  50.192  1.00  0.00    -0.206 F 
HETATM    9  C11 UNL     1      20.277   1.140  50.675  1.00  0.00     0.055 A 
HETATM   10  C12 UNL     1      21.381   1.216  51.520  1.00  0.00     0.011 A 
HETATM   11  C13 UNL     1      22.541   1.956  51.093  1.00  0.00     0.075 C 
HETATM   12  N2  UNL     1      23.794   1.797  50.881  1.00  0.00    -0.249 NA
HETATM   13  C14 UNL     1      24.707   2.765  50.428  1.00  0.00     0.069 A 
HETATM   14  C15 UNL     1      25.996   2.809  50.160  1.00  0.00     0.032 A 
HETATM   15  C16 UNL     1      26.365   4.150  49.708  1.00  0.00     0.003 A 
HETATM   16  C17 UNL     1      25.289   4.958  49.692  1.00  0.00     0.016 A 
HETATM   17  C18 UNL     1      24.205   4.101  50.149  1.00  0.00     0.018 A 
HETATM   18  C19 UNL     1      22.934   4.335  50.348  1.00  0.00     0.054 A 
HETATM   19  N3  UNL     1      22.002   5.400  50.209  1.00  0.00    -0.352 N 
HETATM   20  C20 UNL     1      20.749   5.001  50.747  1.00  0.00     0.202 A 
HETATM   21  N4  UNL     1      20.850   3.812  51.227  1.00  0.00    -0.267 NA
HETATM   22  C21 UNL     1      22.167   3.342  51.089  1.00  0.00     0.212 A 
HETATM   23  H16 UNL     1      22.289   6.309  49.762  1.00  0.00     0.166 HD
ENDROOT
BRANCH   1  24
HETATM   24  C4  UNL     1      24.631  -0.517  53.959  1.00  0.00     0.030 C 
BRANCH  24  25
HETATM   25  C3  UNL     1      25.783  -0.527  54.555  1.00  0.00     0.005 C 
BRANCH  25  26
HETATM   26  C2  UNL     1      26.657   0.645  54.676  1.00  0.00     0.299 C 
BRANCH  26  27
HETATM   27  N1  UNL     1      27.828   0.564  53.833  1.00  0.00     0.088 N 
HETATM   28  C1  UNL     1      28.101   1.886  53.302  1.00  0.00     0.310 C 
BRANCH  27  29
HETATM   29  C22 UNL     1      28.960   0.019  54.511  1.00  0.00     0.287 C 
BRANCH  29  30
HETATM   30  C23 UNL     1      29.793  -0.885  53.628  1.00  0.00     0.144 C 
HETATM   31 CL1  UNL     1      28.813  -2.291  53.083  1.00  0.00    -0.129 Cl
ENDBRANCH  29  30
ENDBRANCH  27  29
ENDBRANCH  26  27
ENDBRANCH  25  26
ENDBRANCH  24  25
ENDBRANCH   1  24
TORSDOF 6
ENDMDL
MODEL 4
REMARK VINA RESULT:      -8.1      2.184      5.030
REMARK  6 active torsions:
REMARK  status: ('A' for Active; 'I' for Inactive)
REMARK    1  A    between atoms: N1_2  and  C2_3 
REMARK    2  A    between atoms: N1_2  and  C22_28 
REMARK    3  A    between atoms: C2_3  and  C3_4 
REMARK    4  A    between atoms: C3_4  and  C4_5 
REMARK    5  A    between atoms: C4_5  and  C5_6 
REMARK    6  A    between atoms: C22_28  and  C23_29 
ROOT
HETATM    1  C5  UNL     1      26.339   2.464  51.271  1.00  0.00     0.051 A 
HETATM    2  O1  UNL     1      26.947   1.382  51.444  1.00  0.00    -0.335 OA
HETATM    3  C6  UNL     1      26.658   2.394  52.741  1.00  0.00     0.112 A 
HETATM    4  C7  UNL     1      27.331   1.082  52.971  1.00  0.00     0.120 A 
HETATM    5  C8  UNL     1      28.706   1.087  53.054  1.00  0.00     0.020 A 
HETATM    6  C9  UNL     1      29.267  -0.162  53.240  1.00  0.00     0.041 A 
HETATM    7  C10 UNL     1      28.598  -1.374  53.348  1.00  0.00     0.116 A 
HETATM    8  F1  UNL     1      29.255  -2.526  53.524  1.00  0.00    -0.206 F 
HETATM    9  C11 UNL     1      27.221  -1.280  53.251  1.00  0.00     0.055 A 
HETATM   10  C12 UNL     1      26.546  -0.077  53.064  1.00  0.00     0.011 A 
HETATM   11  C13 UNL     1      25.107  -0.085  52.991  1.00  0.00     0.075 C 
HETATM   12  N2  UNL     1      24.154   0.248  52.202  1.00  0.00    -0.249 NA
HETATM   13  C14 UNL     1      22.775   0.088  52.423  1.00  0.00     0.069 A 
HETATM   14  C15 UNL     1      21.666   0.361  51.767  1.00  0.00     0.032 A 
HETATM   15  C16 UNL     1      20.507  -0.063  52.551  1.00  0.00     0.003 A 
HETATM   16  C17 UNL     1      20.897  -0.610  53.717  1.00  0.00     0.016 A 
HETATM   17  C18 UNL     1      22.350  -0.529  53.669  1.00  0.00     0.018 A 
HETATM   18  C19 UNL     1      23.271  -0.891  54.523  1.00  0.00     0.054 A 
HETATM   19  N3  UNL     1      23.371  -1.523  55.793  1.00  0.00    -0.352 N 
HETATM   20  C20 UNL     1      24.725  -1.493  56.227  1.00  0.00     0.202 A 
HETATM   21  N4  UNL     1      25.439  -0.872  55.355  1.00  0.00    -0.267 NA
HETATM   22  C21 UNL     1      24.629  -0.408  54.305  1.00  0.00     0.212 A 
HETATM   23  H16 UNL     1      22.519  -1.922  56.262  1.00  0.00     0.166 HD
ENDROOT
BRANCH   1  24
HETATM   24  C4  UNL     1      25.632   3.657  50.890  1.00  0.00     0.030 C 
BRANCH  24  25
HETATM   25  C3  UNL     1      25.078   4.751  50.462  1.00  0.00     0.005 C 
BRANCH  25  26
HETATM   26  C2  UNL     1      23.677   5.111  50.702  1.00  0.00     0.299 C 
BRANCH  26  27
HETATM   27  N1  UNL     1      22.787   3.973  50.657  1.00  0.00     0.088 N 
HETATM   28  C1  UNL     1      21.806   4.118  51.715  1.00  0.00     0.310 C 
BRANCH  27  29
HETATM   29  C22 UNL     1      22.172   3.804  49.380  1.00  0.00     0.287 C 
BRANCH  29  30
HETATM   30  C23 UNL     1      22.760   2.653  48.592  1.00  0.00     0.144 C 
HETATM   31 CL1  UNL     1      21.533   1.354  48.387  1.00  0.00    -0.129 Cl
ENDBRANCH  29  30
ENDBRANCH  27  29
ENDBRANCH  26  27
ENDBRANCH  25  26
ENDBRANCH  24  25
ENDBRANCH   1  24
TORSDOF 6
ENDMDL
MODEL 5
REMARK VINA RESULT:      -8.1      2.337      6.008
REMARK  6 active torsions:
REMARK  status: ('A' for Active; 'I' for Inactive)
REMARK    1  A    between atoms: N1_2  and  C2_3 
REMARK    2  A    between atoms: N1_2  and  C22_28 
REMARK    3  A    between atoms: C2_3  and  C3_4 
REMARK    4  A    between atoms: C3_4  and  C4_5 
REMARK    5  A    between atoms: C4_5  and  C5_6 
REMARK    6  A    between atoms: C22_28  and  C23_29 
ROOT
HETATM    1  C5  UNL     1      24.482   3.457  51.663  1.00  0.00     0.051 A 
HETATM    2  O1  UNL     1      25.103   2.369  51.692  1.00  0.00    -0.335 OA
HETATM    3  C6  UNL     1      24.524   3.036  53.109  1.00  0.00     0.112 A 
HETATM    4  C7  UNL     1      25.210   1.712  53.149  1.00  0.00     0.120 A 
HETATM    5  C8  UNL     1      26.544   1.705  53.496  1.00  0.00     0.020 A 
HETATM    6  C9  UNL     1      27.125   0.451  53.488  1.00  0.00     0.041 A 
HETATM    7  C10 UNL     1      26.511  -0.755  53.176  1.00  0.00     0.116 A 
HETATM    8  F1  UNL     1      27.183  -1.911  53.200  1.00  0.00    -0.206 F 
HETATM    9  C11 UNL     1      25.174  -0.648  52.839  1.00  0.00     0.055 A 
HETATM   10  C12 UNL     1      24.483   0.560  52.813  1.00  0.00     0.011 A 
HETATM   11  C13 UNL     1      23.086   0.561  52.463  1.00  0.00     0.075 C 
HETATM   12  N2  UNL     1      22.281   1.070  51.605  1.00  0.00    -0.249 NA
HETATM   13  C14 UNL     1      20.895   0.853  51.511  1.00  0.00     0.069 A 
HETATM   14  C15 UNL     1      19.915   1.269  50.736  1.00  0.00     0.032 A 
HETATM   15  C16 UNL     1      18.654   0.662  51.158  1.00  0.00     0.003 A 
HETATM   16  C17 UNL     1      18.847  -0.148  52.215  1.00  0.00     0.016 A 
HETATM   17  C18 UNL     1      20.278  -0.050  52.470  1.00  0.00     0.018 A 
HETATM   18  C19 UNL     1      21.041  -0.601  53.377  1.00  0.00     0.054 A 
HETATM   19  N3  UNL     1      20.935  -1.520  54.457  1.00  0.00    -0.352 N 
HETATM   20  C20 UNL     1      22.180  -1.588  55.139  1.00  0.00     0.202 A 
HETATM   21  N4  UNL     1      23.011  -0.771  54.593  1.00  0.00    -0.267 NA
HETATM   22  C21 UNL     1      22.388  -0.072  53.546  1.00  0.00     0.212 A 
HETATM   23  H16 UNL     1      20.032  -2.026  54.644  1.00  0.00     0.166 HD
ENDROOT
BRANCH   1  24
HETATM   24  C4  UNL     1      23.797   4.703  51.445  1.00  0.00     0.030 C 
BRANCH  24  25
HETATM   25  C3  UNL     1      23.261   5.879  51.318  1.00  0.00     0.005 C 
BRANCH  25  26
HETATM   26  C2  UNL     1      23.777   6.926  50.429  1.00  0.00     0.299 C 
BRANCH  26  27
HETATM   27  N1  UNL     1      24.662   6.411  49.409  1.00  0.00     0.088 N 
HETATM   28  C1  UNL     1      24.095   6.727  48.111  1.00  0.00     0.310 C 
BRANCH  27  29
HETATM   29  C22 UNL     1      25.997   6.900  49.539  1.00  0.00     0.287 C 
BRANCH  29  30
HETATM   30  C23 UNL     1      26.983   6.154  48.667  1.00  0.00     0.144 C 
HETATM   31 CL1  UNL     1      26.942   4.397  49.050  1.00  0.00    -0.129 Cl
ENDBRANCH  29  30
ENDBRANCH  27  29
ENDBRANCH  26  27
ENDBRANCH  25  26
ENDBRANCH  24  25
ENDBRANCH   1  24
TORSDOF 6
ENDMDL
MODEL 6
REMARK VINA RESULT:      -8.1      2.665      6.043
REMARK  6 active torsions:
REMARK  status: ('A' for Active; 'I' for Inactive)
REMARK    1  A    between atoms: N1_2  and  C2_3 
REMARK    2  A    between atoms: N1_2  and  C22_28 
REMARK    3  A    between atoms: C2_3  and  C3_4 
REMARK    4  A    between atoms: C3_4  and  C4_5 
REMARK    5  A    between atoms: C4_5  and  C5_6 
REMARK    6  A    between atoms: C22_28  and  C23_29 
ROOT
HETATM    1  C5  UNL     1      26.237   2.518  51.213  1.00  0.00     0.051 A 
HETATM    2  O1  UNL     1      26.847   1.438  51.383  1.00  0.00    -0.335 OA
HETATM    3  C6  UNL     1      26.547   2.440  52.685  1.00  0.00     0.112 A 
HETATM    4  C7  UNL     1      27.224   1.129  52.910  1.00  0.00     0.120 A 
HETATM    5  C8  UNL     1      28.599   1.139  53.001  1.00  0.00     0.020 A 
HETATM    6  C9  UNL     1      29.164  -0.110  53.182  1.00  0.00     0.041 A 
HETATM    7  C10 UNL     1      28.498  -1.324  53.278  1.00  0.00     0.116 A 
HETATM    8  F1  UNL     1      29.158  -2.475  53.450  1.00  0.00    -0.206 F 
HETATM    9  C11 UNL     1      27.122  -1.235  53.174  1.00  0.00     0.055 A 
HETATM   10  C12 UNL     1      26.443  -0.033  52.991  1.00  0.00     0.011 A 
HETATM   11  C13 UNL     1      25.004  -0.046  52.910  1.00  0.00     0.075 C 
HETATM   12  N2  UNL     1      24.055   0.289  52.118  1.00  0.00    -0.249 NA
HETATM   13  C14 UNL     1      22.675   0.123  52.331  1.00  0.00     0.069 A 
HETATM   14  C15 UNL     1      21.569   0.396  51.671  1.00  0.00     0.032 A 
HETATM   15  C16 UNL     1      20.407  -0.037  52.445  1.00  0.00     0.003 A 
HETATM   16  C17 UNL     1      20.792  -0.590  53.610  1.00  0.00     0.016 A 
HETATM   17  C18 UNL     1      22.246  -0.504  53.571  1.00  0.00     0.018 A 
HETATM   18  C19 UNL     1      23.164  -0.868  54.428  1.00  0.00     0.054 A 
HETATM   19  N3  UNL     1      23.259  -1.508  55.694  1.00  0.00    -0.352 N 
HETATM   20  C20 UNL     1      24.609  -1.477  56.135  1.00  0.00     0.202 A 
HETATM   21  N4  UNL     1      25.326  -0.847  55.271  1.00  0.00    -0.267 NA
HETATM   22  C21 UNL     1      24.520  -0.379  54.220  1.00  0.00     0.212 A 
HETATM   23  H16 UNL     1      22.405  -1.914  56.156  1.00  0.00     0.166 HD
ENDROOT
BRANCH   1  24
HETATM   24  C4  UNL     1      25.527   3.712  50.837  1.00  0.00     0.030 C 
BRANCH  24  25
HETATM   25  C3  UNL     1      24.827   4.779  50.600  1.00  0.00     0.005 C 
BRANCH  25  26
HETATM   26  C2  UNL     1      24.658   5.374  49.270  1.00  0.00     0.299 C 
BRANCH  26  27
HETATM   27  N1  UNL     1      24.964   6.786  49.242  1.00  0.00     0.088 N 
HETATM   28  C1  UNL     1      24.150   7.449  50.244  1.00  0.00     0.310 C 
BRANCH  27  29
HETATM   29  C22 UNL     1      26.354   7.053  49.424  1.00  0.00     0.287 C 
BRANCH  29  30
HETATM   30  C23 UNL     1      27.181   6.721  48.201  1.00  0.00     0.144 C 
HETATM   31 CL1  UNL     1      28.081   5.186  48.462  1.00  0.00    -0.129 Cl
ENDBRANCH  29  30
ENDBRANCH  27  29
ENDBRANCH  26  27
ENDBRANCH  25  26
ENDBRANCH  24  25
ENDBRANCH   1  24
TORSDOF 6
ENDMDL
MODEL 7
REMARK VINA RESULT:      -8.0      2.139      5.232
REMARK  6 active torsions:
REMARK  status: ('A' for Active; 'I' for Inactive)
REMARK    1  A    between atoms: N1_2  and  C2_3 
REMARK    2  A    between atoms: N1_2  and  C22_28 
REMARK    3  A    between atoms: C2_3  and  C3_4 
REMARK    4  A    between atoms: C3_4  and  C4_5 
REMARK    5  A    between atoms: C4_5  and  C5_6 
REMARK    6  A    between atoms: C22_28  and  C23_29 
ROOT
HETATM    1  C5  UNL     1      24.349   3.530  51.653  1.00  0.00     0.051 A 
HETATM    2  O1  UNL     1      24.998   2.458  51.669  1.00  0.00    -0.335 OA
HETATM    3  C6  UNL     1      24.428   3.108  53.097  1.00  0.00     0.112 A 
HETATM    4  C7  UNL     1      25.149   1.802  53.122  1.00  0.00     0.120 A 
HETATM    5  C8  UNL     1      26.488   1.829  53.446  1.00  0.00     0.020 A 
HETATM    6  C9  UNL     1      27.101   0.591  53.424  1.00  0.00     0.041 A 
HETATM    7  C10 UNL     1      26.514  -0.630  53.121  1.00  0.00     0.116 A 
HETATM    8  F1  UNL     1      27.217  -1.768  53.131  1.00  0.00    -0.206 F 
HETATM    9  C11 UNL     1      25.169  -0.558  52.808  1.00  0.00     0.055 A 
HETATM   10  C12 UNL     1      24.446   0.632  52.797  1.00  0.00     0.011 A 
HETATM   11  C13 UNL     1      23.043   0.597  52.472  1.00  0.00     0.075 C 
HETATM   12  N2  UNL     1      22.210   1.086  51.630  1.00  0.00    -0.249 NA
HETATM   13  C14 UNL     1      20.829   0.833  51.560  1.00  0.00     0.069 A 
HETATM   14  C15 UNL     1      19.825   1.225  50.804  1.00  0.00     0.032 A 
HETATM   15  C16 UNL     1      18.588   0.584  51.247  1.00  0.00     0.003 A 
HETATM   16  C17 UNL     1      18.821  -0.222  52.298  1.00  0.00     0.016 A 
HETATM   17  C18 UNL     1      20.253  -0.087  52.528  1.00  0.00     0.018 A 
HETATM   18  C19 UNL     1      21.047  -0.620  53.420  1.00  0.00     0.054 A 
HETATM   19  N3  UNL     1      20.984  -1.543  54.500  1.00  0.00    -0.352 N 
HETATM   20  C20 UNL     1      22.242  -1.579  55.160  1.00  0.00     0.202 A 
HETATM   21  N4  UNL     1      23.042  -0.740  54.601  1.00  0.00    -0.267 NA
HETATM   22  C21 UNL     1      22.382  -0.056  53.566  1.00  0.00     0.212 A 
HETATM   23  H16 UNL     1      20.098  -2.072  54.702  1.00  0.00     0.166 HD
ENDROOT
BRANCH   1  24
HETATM   24  C4  UNL     1      23.627   4.758  51.450  1.00  0.00     0.030 C 
BRANCH  24  25
HETATM   25  C3  UNL     1      23.074   5.923  51.306  1.00  0.00     0.005 C 
BRANCH  25  26
HETATM   26  C2  UNL     1      21.972   6.202  50.379  1.00  0.00     0.299 C 
BRANCH  26  27
HETATM   27  N1  UNL     1      21.372   5.001  49.842  1.00  0.00     0.088 N 
HETATM   28  C1  UNL     1      20.045   4.861  50.413  1.00  0.00     0.310 C 
BRANCH  27  29
HETATM   29  C22 UNL     1      21.341   4.990  48.415  1.00  0.00     0.287 C 
BRANCH  29  30
HETATM   30  C23 UNL     1      22.512   4.248  47.809  1.00  0.00     0.144 C 
HETATM   31 CL1  UNL     1      22.689   2.633  48.582  1.00  0.00    -0.129 Cl
ENDBRANCH  29  30
ENDBRANCH  27  29
ENDBRANCH  26  27
ENDBRANCH  25  26
ENDBRANCH  24  25
ENDBRANCH   1  24
TORSDOF 6
ENDMDL
MODEL 8
REMARK VINA RESULT:      -7.7      3.738      8.092
REMARK  6 active torsions:
REMARK  status: ('A' for Active; 'I' for Inactive)
REMARK    1  A    between atoms: N1_2  and  C2_3 
REMARK    2  A    between atoms: N1_2  and  C22_28 
REMARK    3  A    between atoms: C2_3  and  C3_4 
REMARK    4  A    between atoms: C3_4  and  C4_5 
REMARK    5  A    between atoms: C4_5  and  C5_6 
REMARK    6  A    between atoms: C22_28  and  C23_29 
ROOT
HETATM    1  C5  UNL     1      25.593   4.484  49.950  1.00  0.00     0.051 A 
HETATM    2  O1  UNL     1      24.553   4.502  50.649  1.00  0.00    -0.335 OA
HETATM    3  C6  UNL     1      24.856   3.208  49.639  1.00  0.00     0.112 A 
HETATM    4  C7  UNL     1      23.644   3.191  50.510  1.00  0.00     0.120 A 
HETATM    5  C8  UNL     1      22.453   3.579  49.936  1.00  0.00     0.020 A 
HETATM    6  C9  UNL     1      21.376   3.566  50.803  1.00  0.00     0.041 A 
HETATM    7  C10 UNL     1      21.385   3.210  52.145  1.00  0.00     0.116 A 
HETATM    8  F1  UNL     1      20.272   3.241  52.887  1.00  0.00    -0.206 F 
HETATM    9  C11 UNL     1      22.625   2.836  52.631  1.00  0.00     0.055 A 
HETATM   10  C12 UNL     1      23.778   2.810  51.853  1.00  0.00     0.011 A 
HETATM   11  C13 UNL     1      25.019   2.391  52.453  1.00  0.00     0.075 C 
HETATM   12  N2  UNL     1      26.208   2.817  52.669  1.00  0.00    -0.249 NA
HETATM   13  C14 UNL     1      27.245   2.137  53.332  1.00  0.00     0.069 A 
HETATM   14  C15 UNL     1      28.500   2.384  53.643  1.00  0.00     0.032 A 
HETATM   15  C16 UNL     1      29.068   1.244  54.361  1.00  0.00     0.003 A 
HETATM   16  C17 UNL     1      28.154   0.267  54.501  1.00  0.00     0.016 A 
HETATM   17  C18 UNL     1      26.968   0.807  53.851  1.00  0.00     0.018 A 
HETATM   18  C19 UNL     1      25.774   0.308  53.662  1.00  0.00     0.054 A 
HETATM   19  N3  UNL     1      25.037  -0.866  53.978  1.00  0.00    -0.352 N 
HETATM   20  C20 UNL     1      23.772  -0.815  53.333  1.00  0.00     0.202 A 
HETATM   21  N4  UNL     1      23.694   0.262  52.632  1.00  0.00    -0.267 NA
HETATM   22  C21 UNL     1      24.896   0.985  52.716  1.00  0.00     0.212 A 
HETATM   23  H16 UNL     1      25.449  -1.606  54.602  1.00  0.00     0.166 HD
ENDROOT
BRANCH   1  24
HETATM   24  C4  UNL     1      26.827   4.629  49.225  1.00  0.00     0.030 C 
BRANCH  24  25
HETATM   25  C3  UNL     1      27.896   4.863  48.527  1.00  0.00     0.005 C 
BRANCH  25  26
HETATM   26  C2  UNL     1      28.302   6.195  48.065  1.00  0.00     0.299 C 
BRANCH  26  27
HETATM   27  N1  UNL     1      29.670   6.515  48.405  1.00  0.00     0.088 N 
HETATM   28  C1  UNL     1      30.518   5.427  47.955  1.00  0.00     0.310 C 
BRANCH  27  29
HETATM   29  C22 UNL     1      30.091   7.772  47.875  1.00  0.00     0.287 C 
BRANCH  29  30
HETATM   30  C23 UNL     1      30.273   8.828  48.943  1.00  0.00     0.144 C 
HETATM   31 CL1  UNL     1      28.684   9.251  49.671  1.00  0.00    -0.129 Cl
ENDBRANCH  29  30
ENDBRANCH  27  29
ENDBRANCH  26  27
ENDBRANCH  25  26
ENDBRANCH  24  25
ENDBRANCH   1  24
TORSDOF 6
ENDMDL
MODEL 9
REMARK VINA RESULT:      -7.7      3.690      6.517
REMARK  6 active torsions:
REMARK  status: ('A' for Active; 'I' for Inactive)
REMARK    1  A    between atoms: N1_2  and  C2_3 
REMARK    2  A    between atoms: N1_2  and  C22_28 
REMARK    3  A    between atoms: C2_3  and  C3_4 
REMARK    4  A    between atoms: C3_4  and  C4_5 
REMARK    5  A    between atoms: C4_5  and  C5_6 
REMARK    6  A    between atoms: C22_28  and  C23_29 
ROOT
HETATM    1  C5  UNL     1      24.331   1.630  51.523  1.00  0.00     0.051 A 
HETATM    2  O1  UNL     1      23.290   2.105  51.013  1.00  0.00    -0.335 OA
HETATM    3  C6  UNL     1      23.920   2.781  52.403  1.00  0.00     0.112 A 
HETATM    4  C7  UNL     1      22.714   3.392  51.773  1.00  0.00     0.120 A 
HETATM    5  C8  UNL     1      21.487   3.043  52.294  1.00  0.00     0.020 A 
HETATM    6  C9  UNL     1      20.411   3.622  51.648  1.00  0.00     0.041 A 
HETATM    7  C10 UNL     1      20.452   4.491  50.566  1.00  0.00     0.116 A 
HETATM    8  F1  UNL     1      19.336   4.987  50.021  1.00  0.00    -0.206 F 
HETATM    9  C11 UNL     1      21.726   4.782  50.112  1.00  0.00     0.055 A 
HETATM   10  C12 UNL     1      22.882   4.258  50.683  1.00  0.00     0.011 A 
HETATM   11  C13 UNL     1      24.164   4.636  50.143  1.00  0.00     0.075 C 
HETATM   12  N2  UNL     1      25.213   4.114  49.626  1.00  0.00    -0.249 NA
HETATM   13  C14 UNL     1      26.354   4.789  49.158  1.00  0.00     0.069 A 
HETATM   14  C15 UNL     1      27.506   4.453  48.617  1.00  0.00     0.032 A 
HETATM   15  C16 UNL     1      28.295   5.652  48.339  1.00  0.00     0.003 A 
HETATM   16  C17 UNL     1      27.626   6.758  48.713  1.00  0.00     0.016 A 
HETATM   17  C18 UNL     1      26.372   6.241  49.244  1.00  0.00     0.018 A 
HETATM   18  C19 UNL     1      25.333   6.840  49.766  1.00  0.00     0.054 A 
HETATM   19  N3  UNL     1      24.877   8.160  50.035  1.00  0.00    -0.352 N 
HETATM   20  C20 UNL     1      23.658   8.095  50.763  1.00  0.00     0.202 A 
HETATM   21  N4  UNL     1      23.360   6.864  50.988  1.00  0.00    -0.267 NA
HETATM   22  C21 UNL     1      24.358   6.020  50.472  1.00  0.00     0.212 A 
HETATM   23  H16 UNL     1      25.425   8.995  49.705  1.00  0.00     0.166 HD
ENDROOT
BRANCH   1  24
HETATM   24  C4  UNL     1      25.524   0.960  51.968  1.00  0.00     0.030 C 
BRANCH  24  25
HETATM   25  C3  UNL     1      26.530   0.286  52.436  1.00  0.00     0.005 C 
BRANCH  25  26
HETATM   26  C2  UNL     1      26.480  -0.520  53.661  1.00  0.00     0.299 C 
BRANCH  26  27
HETATM   27  N1  UNL     1      27.786  -0.740  54.242  1.00  0.00     0.088 N 
HETATM   28  C1  UNL     1      28.699  -1.119  53.180  1.00  0.00     0.310 C 
BRANCH  27  29
HETATM   29  C22 UNL     1      28.261   0.388  54.976  1.00  0.00     0.287 C 
BRANCH  29  30
HETATM   30  C23 UNL     1      29.387   1.114  54.272  1.00  0.00     0.144 C 
HETATM   31 CL1  UNL     1      28.795   2.678  53.608  1.00  0.00    -0.129 Cl
ENDBRANCH  29  30
ENDBRANCH  27  29
ENDBRANCH  26  27
ENDBRANCH  25  26
ENDBRANCH  24  25
ENDBRANCH   1  24
TORSDOF 6
ENDMDL
