MODEL 1
REMARK VINA RESULT:      -6.2      0.000      0.000
REMARK  9 active torsions:
REMARK  status: ('A' for Active; 'I' for Inactive)
REMARK    1  A    between atoms: C2_2  and  N1_3 
REMARK    2  A    between atoms: N1_3  and  C3_4 
REMARK    3  A    between atoms: C3_4  and  C4_5 
REMARK       I    between atoms: C4_5  and  N2_7 
REMARK    4  A    between atoms: N2_7  and  C5_8 
REMARK    5  A    between atoms: C7_11  and  S1_12 
REMARK    6  A    between atoms: C7_11  and  S2_23 
REMARK    7  A    between atoms: S1_12  and  C8_13 
REMARK    8  A    between atoms: C8_13  and  C9_14 
REMARK    9  A    between atoms: C11_17  and  C12_18 
ROOT
HETATM    1  C5  UNL     1      25.532   1.974  53.527  1.00  0.00     0.284 A 
HETATM    2  N3  UNL     1      24.760   2.431  52.954  1.00  0.00     0.078 N 
HETATM    3  C6  UNL     1      24.158   3.474  52.541  1.00  0.00     0.312 A 
HETATM    4  C7  UNL     1      23.424   2.436  51.922  1.00  0.00     0.301 A 
HETATM    5  S2  UNL     1      24.295   0.938  52.521  1.00  0.00     0.116 SA
ENDROOT
BRANCH   4   6
HETATM    6  S1  UNL     1      21.980   1.911  50.758  1.00  0.00    -0.106 SA
BRANCH   6   7
HETATM    7  C8  UNL     1      22.558   2.417  49.143  1.00  0.00     0.164 C 
BRANCH   7   8
HETATM    8  C9  UNL     1      23.020   3.828  49.208  1.00  0.00     0.154 A 
HETATM    9  N4  UNL     1      22.439   4.996  49.496  1.00  0.00    -0.237 NA
HETATM   10  C10 UNL     1      23.323   5.997  49.405  1.00  0.00     0.152 A 
HETATM   11  C11 UNL     1      24.521   5.379  49.036  1.00  0.00     0.080 A 
HETATM   12  O2  UNL     1      24.306   4.068  48.925  1.00  0.00    -0.297 OA
BRANCH  11  13
HETATM   13  C12 UNL     1      25.643   6.349  48.882  1.00  0.00    -0.000 C 
HETATM   14  C13 UNL     1      25.315   7.278  47.753  1.00  0.00     0.021 C 
HETATM   15  C14 UNL     1      25.712   7.158  50.188  1.00  0.00     0.021 C 
HETATM   16  C15 UNL     1      26.957   5.660  48.697  1.00  0.00     0.021 C 
ENDBRANCH  11  13
ENDBRANCH   7   8
ENDBRANCH   6   7
ENDBRANCH   4   6
BRANCH   1  17
HETATM   17  N2  UNL     1      26.674   1.584  54.393  1.00  0.00    -0.298 N 
HETATM   18  C4  UNL     1      27.840   1.827  53.610  1.00  0.00     0.251 C 
HETATM   19  O1  UNL     1      27.414   2.282  52.488  1.00  0.00    -0.271 OA
HETATM   20  H9  UNL     1      26.584   1.217  55.362  1.00  0.00     0.171 HD
BRANCH  18  21
HETATM   21  C3  UNL     1      29.145   1.494  54.293  1.00  0.00     0.372 C 
BRANCH  21  22
HETATM   22  N1  UNL     1      29.921   0.726  53.330  1.00  0.00     0.091 N 
HETATM   23  H6  UNL     1      30.849   1.186  53.141  1.00  0.00     0.316 HD
BRANCH  22  24
HETATM   24  C2  UNL     1      30.122  -0.637  53.815  1.00  0.00     0.265 C 
HETATM   25  C1  UNL     1      29.083  -1.567  53.266  1.00  0.00     0.037 C 
ENDBRANCH  22  24
ENDBRANCH  21  22
ENDBRANCH  18  21
ENDBRANCH   1  17
TORSDOF 9
ENDMDL
MODEL 2
REMARK VINA RESULT:      -6.2      7.515     10.418
REMARK  9 active torsions:
REMARK  status: ('A' for Active; 'I' for Inactive)
REMARK    1  A    between atoms: C2_2  and  N1_3 
REMARK    2  A    between atoms: N1_3  and  C3_4 
REMARK    3  A    between atoms: C3_4  and  C4_5 
REMARK       I    between atoms: C4_5  and  N2_7 
REMARK    4  A    between atoms: N2_7  and  C5_8 
REMARK    5  A    between atoms: C7_11  and  S1_12 
REMARK    6  A    between atoms: C7_11  and  S2_23 
REMARK    7  A    between atoms: S1_12  and  C8_13 
REMARK    8  A    between atoms: C8_13  and  C9_14 
REMARK    9  A    between atoms: C11_17  and  C12_18 
ROOT
HETATM    1  C5  UNL     1      29.875   9.046  49.404  1.00  0.00     0.284 A 
HETATM    2  N3  UNL     1      30.759   8.619  48.991  1.00  0.00     0.078 N 
HETATM    3  C6  UNL     1      31.512   7.612  48.792  1.00  0.00     0.312 A 
HETATM    4  C7  UNL     1      32.212   8.649  48.134  1.00  0.00     0.301 A 
HETATM    5  S2  UNL     1      31.122  10.094  48.425  1.00  0.00     0.116 SA
ENDROOT
BRANCH   4   6
HETATM    6  S1  UNL     1      33.736   9.199  47.089  1.00  0.00    -0.106 SA
BRANCH   6   7
HETATM    7  C8  UNL     1      35.117   8.526  48.004  1.00  0.00     0.164 C 
BRANCH   7   8
HETATM    8  C9  UNL     1      34.993   7.047  48.062  1.00  0.00     0.154 A 
HETATM    9  N4  UNL     1      35.297   6.110  48.965  1.00  0.00    -0.237 NA
HETATM   10  C10 UNL     1      34.974   4.894  48.511  1.00  0.00     0.152 A 
HETATM   11  C11 UNL     1      34.436   5.122  47.241  1.00  0.00     0.080 A 
HETATM   12  O2  UNL     1      34.461   6.432  46.998  1.00  0.00    -0.297 OA
BRANCH  11  13
HETATM   13  C12 UNL     1      34.012   3.863  46.564  1.00  0.00    -0.000 C 
HETATM   14  C13 UNL     1      35.156   3.361  45.736  1.00  0.00     0.021 C 
HETATM   15  C14 UNL     1      33.715   2.841  47.673  1.00  0.00     0.021 C 
HETATM   16  C15 UNL     1      32.763   4.051  45.763  1.00  0.00     0.021 C 
ENDBRANCH  11  13
ENDBRANCH   7   8
ENDBRANCH   6   7
ENDBRANCH   4   6
BRANCH   1  17
HETATM   17  N2  UNL     1      28.595   9.398  50.071  1.00  0.00    -0.298 N 
HETATM   18  C4  UNL     1      27.614   8.556  49.470  1.00  0.00     0.251 C 
HETATM   19  O1  UNL     1      28.248   7.847  48.608  1.00  0.00    -0.271 OA
HETATM   20  H9  UNL     1      28.494  10.116  50.816  1.00  0.00     0.171 HD
BRANCH  18  21
HETATM   21  C3  UNL     1      26.211   8.743  49.993  1.00  0.00     0.372 C 
BRANCH  21  22
HETATM   22  N1  UNL     1      25.996   7.678  50.963  1.00  0.00     0.091 N 
HETATM   23  H6  UNL     1      25.779   8.072  51.914  1.00  0.00     0.316 HD
BRANCH  22  24
HETATM   24  C2  UNL     1      24.914   6.802  50.520  1.00  0.00     0.265 C 
HETATM   25  C1  UNL     1      23.574   7.392  50.838  1.00  0.00     0.037 C 
ENDBRANCH  22  24
ENDBRANCH  21  22
ENDBRANCH  18  21
ENDBRANCH   1  17
TORSDOF 9
ENDMDL
MODEL 3
REMARK VINA RESULT:      -6.1      2.741      6.531
REMARK  9 active torsions:
REMARK  status: ('A' for Active; 'I' for Inactive)
REMARK    1  A    between atoms: C2_2  and  N1_3 
REMARK    2  A    between atoms: N1_3  and  C3_4 
REMARK    3  A    between atoms: C3_4  and  C4_5 
REMARK       I    between atoms: C4_5  and  N2_7 
REMARK    4  A    between atoms: N2_7  and  C5_8 
REMARK    5  A    between atoms: C7_11  and  S1_12 
REMARK    6  A    between atoms: C7_11  and  S2_23 
REMARK    7  A    between atoms: S1_12  and  C8_13 
REMARK    8  A    between atoms: C8_13  and  C9_14 
REMARK    9  A    between atoms: C11_17  and  C12_18 
ROOT
HETATM    1  C5  UNL     1      24.880   5.681  50.375  1.00  0.00     0.284 A 
HETATM    2  N3  UNL     1      23.941   5.181  50.411  1.00  0.00     0.078 N 
HETATM    3  C6  UNL     1      22.671   5.217  50.489  1.00  0.00     0.312 A 
HETATM    4  C7  UNL     1      22.931   3.830  50.415  1.00  0.00     0.301 A 
HETATM    5  S2  UNL     1      24.760   3.786  50.304  1.00  0.00     0.116 SA
ENDROOT
BRANCH   4   6
HETATM    6  S1  UNL     1      22.245   2.029  50.363  1.00  0.00    -0.106 SA
BRANCH   6   7
HETATM    7  C8  UNL     1      21.814   1.711  52.069  1.00  0.00     0.164 C 
BRANCH   7   8
HETATM    8  C9  UNL     1      22.869   0.873  52.694  1.00  0.00     0.154 A 
HETATM    9  N4  UNL     1      22.878  -0.109  53.601  1.00  0.00    -0.237 NA
HETATM   10  C10 UNL     1      24.127  -0.537  53.819  1.00  0.00     0.152 A 
HETATM   11  C11 UNL     1      24.922   0.247  52.979  1.00  0.00     0.080 A 
HETATM   12  O2  UNL     1      24.133   1.090  52.312  1.00  0.00    -0.297 OA
BRANCH  11  13
HETATM   13  C12 UNL     1      26.372  -0.088  53.084  1.00  0.00    -0.000 C 
HETATM   14  C13 UNL     1      27.150   0.922  52.296  1.00  0.00     0.021 C 
HETATM   15  C14 UNL     1      26.750   0.042  54.569  1.00  0.00     0.021 C 
HETATM   16  C15 UNL     1      26.654  -1.492  52.657  1.00  0.00     0.021 C 
ENDBRANCH  11  13
ENDBRANCH   7   8
ENDBRANCH   6   7
ENDBRANCH   4   6
BRANCH   1  17
HETATM   17  N2  UNL     1      26.047   6.600  50.346  1.00  0.00    -0.298 N 
HETATM   18  C4  UNL     1      25.952   7.290  49.102  1.00  0.00     0.251 C 
HETATM   19  O1  UNL     1      24.898   6.830  48.532  1.00  0.00    -0.271 OA
HETATM   20  H9  UNL     1      26.755   6.683  51.104  1.00  0.00     0.171 HD
BRANCH  18  21
HETATM   21  C3  UNL     1      27.053   8.291  48.845  1.00  0.00     0.372 C 
BRANCH  21  22
HETATM   22  N1  UNL     1      28.298   7.622  49.196  1.00  0.00     0.091 N 
HETATM   23  H6  UNL     1      28.145   6.919  49.963  1.00  0.00     0.316 HD
BRANCH  22  24
HETATM   24  C2  UNL     1      28.872   6.973  48.020  1.00  0.00     0.265 C 
HETATM   25  C1  UNL     1      29.043   5.501  48.244  1.00  0.00     0.037 C 
ENDBRANCH  22  24
ENDBRANCH  21  22
ENDBRANCH  18  21
ENDBRANCH   1  17
TORSDOF 9
ENDMDL
MODEL 4
REMARK VINA RESULT:      -6.1      3.468      6.886
REMARK  9 active torsions:
REMARK  status: ('A' for Active; 'I' for Inactive)
REMARK    1  A    between atoms: C2_2  and  N1_3 
REMARK    2  A    between atoms: N1_3  and  C3_4 
REMARK    3  A    between atoms: C3_4  and  C4_5 
REMARK       I    between atoms: C4_5  and  N2_7 
REMARK    4  A    between atoms: N2_7  and  C5_8 
REMARK    5  A    between atoms: C7_11  and  S1_12 
REMARK    6  A    between atoms: C7_11  and  S2_23 
REMARK    7  A    between atoms: S1_12  and  C8_13 
REMARK    8  A    between atoms: C8_13  and  C9_14 
REMARK    9  A    between atoms: C11_17  and  C12_18 
ROOT
HETATM    1  C5  UNL     1      25.861   7.045  50.260  1.00  0.00     0.284 A 
HETATM    2  N3  UNL     1      25.348   6.145  50.014  1.00  0.00     0.078 N 
HETATM    3  C6  UNL     1      25.320   5.010  49.439  1.00  0.00     0.312 A 
HETATM    4  C7  UNL     1      24.037   5.083  50.029  1.00  0.00     0.301 A 
HETATM    5  S2  UNL     1      24.085   6.719  50.854  1.00  0.00     0.116 SA
ENDROOT
BRANCH   4   6
HETATM    6  S1  UNL     1      22.328   4.253  50.356  1.00  0.00    -0.106 SA
BRANCH   6   7
HETATM    7  C8  UNL     1      22.601   2.557  49.861  1.00  0.00     0.164 C 
BRANCH   7   8
HETATM    8  C9  UNL     1      23.082   1.776  51.030  1.00  0.00     0.154 A 
HETATM    9  N4  UNL     1      22.492   1.060  51.991  1.00  0.00    -0.237 NA
HETATM   10  C10 UNL     1      23.405   0.547  52.824  1.00  0.00     0.152 A 
HETATM   11  C11 UNL     1      24.631   0.990  52.322  1.00  0.00     0.080 A 
HETATM   12  O2  UNL     1      24.403   1.731  51.237  1.00  0.00    -0.297 OA
BRANCH  11  13
HETATM   13  C12 UNL     1      25.789   0.513  53.133  1.00  0.00    -0.000 C 
HETATM   14  C13 UNL     1      26.382   1.688  53.849  1.00  0.00     0.021 C 
HETATM   15  C14 UNL     1      25.227  -0.471  54.171  1.00  0.00     0.021 C 
HETATM   16  C15 UNL     1      26.792  -0.218  52.300  1.00  0.00     0.021 C 
ENDBRANCH  11  13
ENDBRANCH   7   8
ENDBRANCH   6   7
ENDBRANCH   4   6
BRANCH   1  17
HETATM   17  N2  UNL     1      26.775   8.199  50.461  1.00  0.00    -0.298 N 
HETATM   18  C4  UNL     1      27.063   8.683  49.152  1.00  0.00     0.251 C 
HETATM   19  O1  UNL     1      26.411   7.921  48.351  1.00  0.00    -0.271 OA
HETATM   20  H9  UNL     1      27.103   8.541  51.387  1.00  0.00     0.171 HD
BRANCH  18  21
HETATM   21  C3  UNL     1      27.994   9.871  49.104  1.00  0.00     0.372 C 
BRANCH  21  22
HETATM   22  N1  UNL     1      29.039   9.607  50.082  1.00  0.00     0.091 N 
HETATM   23  H6  UNL     1      28.915   8.657  50.519  1.00  0.00     0.316 HD
BRANCH  22  24
HETATM   24  C2  UNL     1      30.355   9.709  49.457  1.00  0.00     0.265 C 
HETATM   25  C1  UNL     1      30.966   8.356  49.254  1.00  0.00     0.037 C 
ENDBRANCH  22  24
ENDBRANCH  21  22
ENDBRANCH  18  21
ENDBRANCH   1  17
TORSDOF 9
ENDMDL
MODEL 5
REMARK VINA RESULT:      -6.0      2.496      3.347
REMARK  9 active torsions:
REMARK  status: ('A' for Active; 'I' for Inactive)
REMARK    1  A    between atoms: C2_2  and  N1_3 
REMARK    2  A    between atoms: N1_3  and  C3_4 
REMARK    3  A    between atoms: C3_4  and  C4_5 
REMARK       I    between atoms: C4_5  and  N2_7 
REMARK    4  A    between atoms: N2_7  and  C5_8 
REMARK    5  A    between atoms: C7_11  and  S1_12 
REMARK    6  A    between atoms: C7_11  and  S2_23 
REMARK    7  A    between atoms: S1_12  and  C8_13 
REMARK    8  A    between atoms: C8_13  and  C9_14 
REMARK    9  A    between atoms: C11_17  and  C12_18 
ROOT
HETATM    1  C5  UNL     1      24.629   2.189  52.759  1.00  0.00     0.284 A 
HETATM    2  N3  UNL     1      24.257   3.148  52.484  1.00  0.00     0.078 N 
HETATM    3  C6  UNL     1      23.632   4.218  52.776  1.00  0.00     0.312 A 
HETATM    4  C7  UNL     1      23.999   4.440  51.429  1.00  0.00     0.301 A 
HETATM    5  S2  UNL     1      24.897   2.896  51.016  1.00  0.00     0.116 SA
ENDROOT
BRANCH   4   6
HETATM    6  S1  UNL     1      23.992   5.605  49.893  1.00  0.00    -0.106 SA
BRANCH   6   7
HETATM    7  C8  UNL     1      24.301   7.215  50.606  1.00  0.00     0.164 C 
BRANCH   7   8
HETATM    8  C9  UNL     1      25.599   7.733  50.103  1.00  0.00     0.154 A 
HETATM    9  N4  UNL     1      26.265   8.886  50.226  1.00  0.00    -0.237 NA
HETATM   10  C10 UNL     1      27.423   8.835  49.556  1.00  0.00     0.152 A 
HETATM   11  C11 UNL     1      27.449   7.557  48.991  1.00  0.00     0.080 A 
HETATM   12  O2  UNL     1      26.334   6.915  49.340  1.00  0.00    -0.297 OA
BRANCH  11  13
HETATM   13  C12 UNL     1      28.684   7.309  48.192  1.00  0.00    -0.000 C 
HETATM   14  C13 UNL     1      28.940   5.833  48.161  1.00  0.00     0.021 C 
HETATM   15  C14 UNL     1      28.390   7.793  46.762  1.00  0.00     0.021 C 
HETATM   16  C15 UNL     1      29.852   8.084  48.711  1.00  0.00     0.021 C 
ENDBRANCH  11  13
ENDBRANCH   7   8
ENDBRANCH   6   7
ENDBRANCH   4   6
BRANCH   1  17
HETATM   17  N2  UNL     1      25.036   0.901  53.378  1.00  0.00    -0.298 N 
HETATM   18  C4  UNL     1      26.154   1.217  54.204  1.00  0.00     0.251 C 
HETATM   19  O1  UNL     1      26.337   2.481  54.069  1.00  0.00    -0.271 OA
HETATM   20  H9  UNL     1      24.566  -0.012  53.209  1.00  0.00     0.171 HD
BRANCH  18  21
HETATM   21  C3  UNL     1      26.750   0.044  54.943  1.00  0.00     0.372 C 
BRANCH  21  22
HETATM   22  N1  UNL     1      27.279  -0.850  53.922  1.00  0.00     0.091 N 
HETATM   23  H6  UNL     1      26.556  -1.050  53.184  1.00  0.00     0.316 HD
BRANCH  22  24
HETATM   24  C2  UNL     1      28.476  -0.272  53.315  1.00  0.00     0.265 C 
HETATM   25  C1  UNL     1      29.703  -1.046  53.692  1.00  0.00     0.037 C 
ENDBRANCH  22  24
ENDBRANCH  21  22
ENDBRANCH  18  21
ENDBRANCH   1  17
TORSDOF 9
ENDMDL
MODEL 6
REMARK VINA RESULT:      -6.0      7.157      9.749
REMARK  9 active torsions:
REMARK  status: ('A' for Active; 'I' for Inactive)
REMARK    1  A    between atoms: C2_2  and  N1_3 
REMARK    2  A    between atoms: N1_3  and  C3_4 
REMARK    3  A    between atoms: C3_4  and  C4_5 
REMARK       I    between atoms: C4_5  and  N2_7 
REMARK    4  A    between atoms: N2_7  and  C5_8 
REMARK    5  A    between atoms: C7_11  and  S1_12 
REMARK    6  A    between atoms: C7_11  and  S2_23 
REMARK    7  A    between atoms: S1_12  and  C8_13 
REMARK    8  A    between atoms: C8_13  and  C9_14 
REMARK    9  A    between atoms: C11_17  and  C12_18 
ROOT
HETATM    1  C5  UNL     1      29.173   7.287  48.537  1.00  0.00     0.284 A 
HETATM    2  N3  UNL     1      30.152   7.702  48.485  1.00  0.00     0.078 N 
HETATM    3  C6  UNL     1      31.252   8.013  49.044  1.00  0.00     0.312 A 
HETATM    4  C7  UNL     1      31.461   8.431  47.710  1.00  0.00     0.301 A 
HETATM    5  S2  UNL     1      29.874   7.979  46.912  1.00  0.00     0.116 SA
ENDROOT
BRANCH   4   6
HETATM    6  S1  UNL     1      32.633   9.218  46.397  1.00  0.00    -0.106 SA
BRANCH   6   7
HETATM    7  C8  UNL     1      34.257   8.969  47.104  1.00  0.00     0.164 C 
BRANCH   7   8
HETATM    8  C9  UNL     1      34.425   7.535  47.454  1.00  0.00     0.154 A 
HETATM    9  N4  UNL     1      34.846   6.873  48.535  1.00  0.00    -0.237 NA
HETATM   10  C10 UNL     1      34.803   5.552  48.325  1.00  0.00     0.152 A 
HETATM   11  C11 UNL     1      34.319   5.416  47.021  1.00  0.00     0.080 A 
HETATM   12  O2  UNL     1      34.100   6.632  46.521  1.00  0.00    -0.297 OA
BRANCH  11  13
HETATM   13  C12 UNL     1      34.201   3.991  46.599  1.00  0.00    -0.000 C 
HETATM   14  C13 UNL     1      35.148   3.753  45.462  1.00  0.00     0.021 C 
HETATM   15  C14 UNL     1      34.639   3.135  47.798  1.00  0.00     0.021 C 
HETATM   16  C15 UNL     1      32.792   3.622  46.260  1.00  0.00     0.021 C 
ENDBRANCH  11  13
ENDBRANCH   7   8
ENDBRANCH   6   7
ENDBRANCH   4   6
BRANCH   1  17
HETATM   17  N2  UNL     1      27.862   6.671  48.867  1.00  0.00    -0.298 N 
HETATM   18  C4  UNL     1      28.055   5.267  48.709  1.00  0.00     0.251 C 
HETATM   19  O1  UNL     1      29.280   5.125  48.353  1.00  0.00    -0.271 OA
HETATM   20  H9  UNL     1      27.012   7.201  49.148  1.00  0.00     0.171 HD
BRANCH  18  21
HETATM   21  C3  UNL     1      26.837   4.422  48.990  1.00  0.00     0.372 C 
BRANCH  21  22
HETATM   22  N1  UNL     1      26.169   5.039  50.127  1.00  0.00     0.091 N 
HETATM   23  H6  UNL     1      26.559   5.997  50.319  1.00  0.00     0.316 HD
BRANCH  22  24
HETATM   24  C2  UNL     1      24.730   5.117  49.888  1.00  0.00     0.265 C 
HETATM   25  C1  UNL     1      24.018   5.727  51.057  1.00  0.00     0.037 C 
ENDBRANCH  22  24
ENDBRANCH  21  22
ENDBRANCH  18  21
ENDBRANCH   1  17
TORSDOF 9
ENDMDL
MODEL 7
REMARK VINA RESULT:      -6.0      3.165      5.300
REMARK  9 active torsions:
REMARK  status: ('A' for Active; 'I' for Inactive)
REMARK    1  A    between atoms: C2_2  and  N1_3 
REMARK    2  A    between atoms: N1_3  and  C3_4 
REMARK    3  A    between atoms: C3_4  and  C4_5 
REMARK       I    between atoms: C4_5  and  N2_7 
REMARK    4  A    between atoms: N2_7  and  C5_8 
REMARK    5  A    between atoms: C7_11  and  S1_12 
REMARK    6  A    between atoms: C7_11  and  S2_23 
REMARK    7  A    between atoms: S1_12  and  C8_13 
REMARK    8  A    between atoms: C8_13  and  C9_14 
REMARK    9  A    between atoms: C11_17  and  C12_18 
ROOT
HETATM    1  C5  UNL     1      25.765   2.888  51.276  1.00  0.00     0.284 A 
HETATM    2  N3  UNL     1      24.737   2.809  51.013  1.00  0.00     0.078 N 
HETATM    3  C6  UNL     1      23.690   2.106  50.838  1.00  0.00     0.312 A 
HETATM    4  C7  UNL     1      23.236   3.407  50.525  1.00  0.00     0.301 A 
HETATM    5  S2  UNL     1      24.747   4.413  50.778  1.00  0.00     0.116 SA
ENDROOT
BRANCH   4   6
HETATM    6  S1  UNL     1      21.786   4.558  49.987  1.00  0.00    -0.106 SA
BRANCH   6   7
HETATM    7  C8  UNL     1      20.653   4.451  51.365  1.00  0.00     0.164 C 
BRANCH   7   8
HETATM    8  C9  UNL     1      20.301   3.028  51.602  1.00  0.00     0.154 A 
HETATM    9  N4  UNL     1      19.522   2.134  50.983  1.00  0.00    -0.237 NA
HETATM   10  C10 UNL     1      19.554   0.959  51.622  1.00  0.00     0.152 A 
HETATM   11  C11 UNL     1      20.415   1.167  52.702  1.00  0.00     0.080 A 
HETATM   12  O2  UNL     1      20.851   2.426  52.663  1.00  0.00    -0.297 OA
BRANCH  11  13
HETATM   13  C12 UNL     1      20.579  -0.052  53.548  1.00  0.00    -0.000 C 
HETATM   14  C13 UNL     1      19.354  -0.902  53.395  1.00  0.00     0.021 C 
HETATM   15  C14 UNL     1      21.790  -0.818  52.990  1.00  0.00     0.021 C 
HETATM   16  C15 UNL     1      20.866   0.291  54.974  1.00  0.00     0.021 C 
ENDBRANCH  11  13
ENDBRANCH   7   8
ENDBRANCH   6   7
ENDBRANCH   4   6
BRANCH   1  17
HETATM   17  N2  UNL     1      27.188   2.735  51.676  1.00  0.00    -0.298 N 
HETATM   18  C4  UNL     1      27.154   2.340  53.045  1.00  0.00     0.251 C 
HETATM   19  O1  UNL     1      25.910   2.280  53.356  1.00  0.00    -0.271 OA
HETATM   20  H9  UNL     1      28.000   2.895  51.046  1.00  0.00     0.171 HD
BRANCH  18  21
HETATM   21  C3  UNL     1      28.508   2.127  53.678  1.00  0.00     0.372 C 
BRANCH  21  22
HETATM   22  N1  UNL     1      28.311   1.143  54.733  1.00  0.00     0.091 N 
HETATM   23  H6  UNL     1      27.364   1.252  55.178  1.00  0.00     0.316 HD
BRANCH  22  24
HETATM   24  C2  UNL     1      28.467  -0.208  54.199  1.00  0.00     0.265 C 
HETATM   25  C1  UNL     1      29.819  -0.394  53.581  1.00  0.00     0.037 C 
ENDBRANCH  22  24
ENDBRANCH  21  22
ENDBRANCH  18  21
ENDBRANCH   1  17
TORSDOF 9
ENDMDL
MODEL 8
REMARK VINA RESULT:      -5.8      2.812      4.753
REMARK  9 active torsions:
REMARK  status: ('A' for Active; 'I' for Inactive)
REMARK    1  A    between atoms: C2_2  and  N1_3 
REMARK    2  A    between atoms: N1_3  and  C3_4 
REMARK    3  A    between atoms: C3_4  and  C4_5 
REMARK       I    between atoms: C4_5  and  N2_7 
REMARK    4  A    between atoms: N2_7  and  C5_8 
REMARK    5  A    between atoms: C7_11  and  S1_12 
REMARK    6  A    between atoms: C7_11  and  S2_23 
REMARK    7  A    between atoms: S1_12  and  C8_13 
REMARK    8  A    between atoms: C8_13  and  C9_14 
REMARK    9  A    between atoms: C11_17  and  C12_18 
ROOT
HETATM    1  C5  UNL     1      24.668   1.722  51.914  1.00  0.00     0.284 A 
HETATM    2  N3  UNL     1      24.334   2.530  51.308  1.00  0.00     0.078 N 
HETATM    3  C6  UNL     1      24.102   3.030  50.160  1.00  0.00     0.312 A 
HETATM    4  C7  UNL     1      23.723   4.078  51.029  1.00  0.00     0.301 A 
HETATM    5  S2  UNL     1      24.061   3.353  52.678  1.00  0.00     0.116 SA
ENDROOT
BRANCH   4   6
HETATM    6  S1  UNL     1      23.019   5.860  51.248  1.00  0.00    -0.106 SA
BRANCH   6   7
HETATM    7  C8  UNL     1      21.298   5.672  50.800  1.00  0.00     0.164 C 
BRANCH   7   8
HETATM    8  C9  UNL     1      20.805   4.358  51.287  1.00  0.00     0.154 A 
HETATM    9  N4  UNL     1      20.462   3.864  52.481  1.00  0.00    -0.237 NA
HETATM   10  C10 UNL     1      20.075   2.588  52.370  1.00  0.00     0.152 A 
HETATM   11  C11 UNL     1      20.197   2.299  51.008  1.00  0.00     0.080 A 
HETATM   12  O2  UNL     1      20.641   3.388  50.380  1.00  0.00    -0.297 OA
BRANCH  11  13
HETATM   13  C12 UNL     1      19.806   0.896  50.683  1.00  0.00    -0.000 C 
HETATM   14  C13 UNL     1      20.880   0.291  49.830  1.00  0.00     0.021 C 
HETATM   15  C14 UNL     1      19.742   0.134  52.016  1.00  0.00     0.021 C 
HETATM   16  C15 UNL     1      18.456   0.825  50.044  1.00  0.00     0.021 C 
ENDBRANCH  11  13
ENDBRANCH   7   8
ENDBRANCH   6   7
ENDBRANCH   4   6
BRANCH   1  17
HETATM   17  N2  UNL     1      25.178   0.470  52.531  1.00  0.00    -0.298 N 
HETATM   18  C4  UNL     1      26.574   0.449  52.240  1.00  0.00     0.251 C 
HETATM   19  O1  UNL     1      26.803   1.521  51.571  1.00  0.00    -0.271 OA
HETATM   20  H9  UNL     1      24.594  -0.212  53.056  1.00  0.00     0.171 HD
BRANCH  18  21
HETATM   21  C3  UNL     1      27.315  -0.753  52.772  1.00  0.00     0.372 C 
BRANCH  21  22
HETATM   22  N1  UNL     1      27.421  -0.560  54.211  1.00  0.00     0.091 N 
HETATM   23  H6  UNL     1      27.152  -1.436  54.730  1.00  0.00     0.316 HD
BRANCH  22  24
HETATM   24  C2  UNL     1      28.779  -0.157  54.569  1.00  0.00     0.265 C 
HETATM   25  C1  UNL     1      29.756  -0.533  53.497  1.00  0.00     0.037 C 
ENDBRANCH  22  24
ENDBRANCH  21  22
ENDBRANCH  18  21
ENDBRANCH   1  17
TORSDOF 9
ENDMDL
MODEL 9
REMARK VINA RESULT:      -5.8      3.617      4.500
REMARK  9 active torsions:
REMARK  status: ('A' for Active; 'I' for Inactive)
REMARK    1  A    between atoms: C2_2  and  N1_3 
REMARK    2  A    between atoms: N1_3  and  C3_4 
REMARK    3  A    between atoms: C3_4  and  C4_5 
REMARK       I    between atoms: C4_5  and  N2_7 
REMARK    4  A    between atoms: N2_7  and  C5_8 
REMARK    5  A    between atoms: C7_11  and  S1_12 
REMARK    6  A    between atoms: C7_11  and  S2_23 
REMARK    7  A    between atoms: S1_12  and  C8_13 
REMARK    8  A    between atoms: C8_13  and  C9_14 
REMARK    9  A    between atoms: C11_17  and  C12_18 
ROOT
HETATM    1  C5  UNL     1      25.985   2.535  51.010  1.00  0.00     0.284 A 
HETATM    2  N3  UNL     1      26.168   3.309  50.302  1.00  0.00     0.078 N 
HETATM    3  C6  UNL     1      26.884   3.821  49.383  1.00  0.00     0.312 A 
HETATM    4  C7  UNL     1      25.826   4.751  49.496  1.00  0.00     0.301 A 
HETATM    5  S2  UNL     1      24.800   4.008  50.820  1.00  0.00     0.116 SA
ENDROOT
BRANCH   4   6
HETATM    6  S1  UNL     1      25.000   6.384  48.889  1.00  0.00    -0.106 SA
BRANCH   6   7
HETATM    7  C8  UNL     1      26.007   7.652  49.647  1.00  0.00     0.164 C 
BRANCH   7   8
HETATM    8  C9  UNL     1      27.323   7.709  48.959  1.00  0.00     0.154 A 
HETATM    9  N4  UNL     1      27.852   7.111  47.887  1.00  0.00    -0.237 NA
HETATM   10  C10 UNL     1      29.110   7.524  47.690  1.00  0.00     0.152 A 
HETATM   11  C11 UNL     1      29.348   8.437  48.721  1.00  0.00     0.080 A 
HETATM   12  O2  UNL     1      28.250   8.527  49.471  1.00  0.00    -0.297 OA
BRANCH  11  13
HETATM   13  C12 UNL     1      30.723   9.014  48.668  1.00  0.00    -0.000 C 
HETATM   14  C13 UNL     1      31.126   9.147  47.231  1.00  0.00     0.021 C 
HETATM   15  C14 UNL     1      30.638  10.416  49.293  1.00  0.00     0.021 C 
HETATM   16  C15 UNL     1      31.698   8.211  49.467  1.00  0.00     0.021 C 
ENDBRANCH  11  13
ENDBRANCH   7   8
ENDBRANCH   6   7
ENDBRANCH   4   6
BRANCH   1  17
HETATM   17  N2  UNL     1      25.957   1.351  51.908  1.00  0.00    -0.298 N 
HETATM   18  C4  UNL     1      27.162   1.426  52.666  1.00  0.00     0.251 C 
HETATM   19  O1  UNL     1      27.762   2.484  52.257  1.00  0.00    -0.271 OA
HETATM   20  H9  UNL     1      25.192   0.647  51.936  1.00  0.00     0.171 HD
BRANCH  18  21
HETATM   21  C3  UNL     1      27.358   0.306  53.659  1.00  0.00     0.372 C 
BRANCH  21  22
HETATM   22  N1  UNL     1      28.617   0.581  54.336  1.00  0.00     0.091 N 
HETATM   23  H6  UNL     1      28.588   0.253  55.335  1.00  0.00     0.316 HD
BRANCH  22  24
HETATM   24  C2  UNL     1      29.722  -0.059  53.626  1.00  0.00     0.265 C 
HETATM   25  C1  UNL     1      29.470  -1.524  53.436  1.00  0.00     0.037 C 
ENDBRANCH  22  24
ENDBRANCH  21  22
ENDBRANCH  18  21
ENDBRANCH   1  17
TORSDOF 9
ENDMDL
