MODEL 1
REMARK VINA RESULT:      -7.3      0.000      0.000
REMARK  5 active torsions:
REMARK  status: ('A' for Active; 'I' for Inactive)
REMARK    1  A    between atoms: S1_2  and  C2_3 
REMARK    2  A    between atoms: C3_4  and  O1_5 
REMARK    3  A    between atoms: O1_5  and  C4_6 
REMARK    4  A    between atoms: C4_6  and  N1_8 
REMARK    5  A    between atoms: N1_8  and  C6_9 
ROOT
HETATM    1  C2  UNL     1      22.083   2.286  51.674  1.00  0.00     0.106 A 
HETATM    2  C3  UNL     1      23.194   1.777  52.323  1.00  0.00     0.117 A 
HETATM    3  C12 UNL     1      24.244   2.214  51.537  1.00  0.00     0.027 A 
HETATM    4  C13 UNL     1      25.616   2.023  51.671  1.00  0.00     0.017 A 
HETATM    5  C14 UNL     1      26.560   2.536  50.782  1.00  0.00     0.001 A 
HETATM    6  C15 UNL     1      26.045   3.274  49.717  1.00  0.00     0.002 A 
HETATM    7  C16 UNL     1      24.682   3.486  49.551  1.00  0.00     0.030 A 
HETATM    8  C17 UNL     1      23.793   2.953  50.463  1.00  0.00     0.048 A 
HETATM    9  N2  UNL     1      22.457   2.980  50.576  1.00  0.00    -0.343 N 
HETATM   10  C18 UNL     1      21.546   3.648  49.662  1.00  0.00     0.157 C 
ENDROOT
BRANCH   2  11
HETATM   11  O1  UNL     1      23.221   1.019  53.474  1.00  0.00    -0.323 OA
BRANCH  11  12
HETATM   12  C4  UNL     1      23.283  -0.418  53.459  1.00  0.00     0.223 C 
HETATM   13  C5  UNL     1      21.960  -0.984  53.938  1.00  0.00     0.063 C 
BRANCH  12  14
HETATM   14  N1  UNL     1      24.289  -0.791  54.427  1.00  0.00    -0.364 N 
HETATM   15  H8  UNL     1      24.055  -1.216  55.365  1.00  0.00     0.162 HD
BRANCH  14  16
HETATM   16  C6  UNL     1      25.667  -0.601  54.152  1.00  0.00     0.029 A 
HETATM   17  C7  UNL     1      26.491   0.198  54.914  1.00  0.00     0.029 A 
HETATM   18  C8  UNL     1      27.833   0.418  54.692  1.00  0.00     0.002 A 
HETATM   19  C9  UNL     1      28.393  -0.234  53.592  1.00  0.00     0.000 A 
HETATM   20  C10 UNL     1      27.646  -1.051  52.776  1.00  0.00     0.002 A 
HETATM   21  C11 UNL     1      26.306  -1.203  53.090  1.00  0.00     0.029 A 
ENDBRANCH  14  16
ENDBRANCH  12  14
ENDBRANCH  11  12
ENDBRANCH   2  11
BRANCH   1  22
HETATM   22  S1  UNL     1      20.385   2.062  52.211  1.00  0.00    -0.114 SA
HETATM   23  C1  UNL     1      19.745   0.587  51.369  1.00  0.00     0.097 C 
ENDBRANCH   1  22
TORSDOF 5
ENDMDL
MODEL 2
REMARK VINA RESULT:      -7.2      1.768      4.088
REMARK  5 active torsions:
REMARK  status: ('A' for Active; 'I' for Inactive)
REMARK    1  A    between atoms: S1_2  and  C2_3 
REMARK    2  A    between atoms: C3_4  and  O1_5 
REMARK    3  A    between atoms: O1_5  and  C4_6 
REMARK    4  A    between atoms: C4_6  and  N1_8 
REMARK    5  A    between atoms: N1_8  and  C6_9 
ROOT
HETATM    1  C2  UNL     1      22.953   2.386  52.145  1.00  0.00     0.106 A 
HETATM    2  C3  UNL     1      23.792   1.361  52.544  1.00  0.00     0.117 A 
HETATM    3  C12 UNL     1      22.942   0.503  53.217  1.00  0.00     0.027 A 
HETATM    4  C13 UNL     1      23.194  -0.709  53.851  1.00  0.00     0.017 A 
HETATM    5  C14 UNL     1      22.215  -1.466  54.495  1.00  0.00     0.001 A 
HETATM    6  C15 UNL     1      20.927  -0.930  54.470  1.00  0.00     0.002 A 
HETATM    7  C16 UNL     1      20.639   0.277  53.847  1.00  0.00     0.030 A 
HETATM    8  C17 UNL     1      21.648   0.984  53.226  1.00  0.00     0.048 A 
HETATM    9  N2  UNL     1      21.688   2.146  52.556  1.00  0.00    -0.343 N 
HETATM   10  C18 UNL     1      20.552   3.016  52.309  1.00  0.00     0.157 C 
ENDROOT
BRANCH   2  11
HETATM   11  O1  UNL     1      25.146   1.246  52.315  1.00  0.00    -0.323 OA
BRANCH  11  12
HETATM   12  C4  UNL     1      26.132   1.928  53.110  1.00  0.00     0.223 C 
HETATM   13  C5  UNL     1      27.316   2.296  52.237  1.00  0.00     0.063 C 
BRANCH  12  14
HETATM   14  N1  UNL     1      26.598   0.972  54.088  1.00  0.00    -0.364 N 
HETATM   15  H8  UNL     1      26.403   1.067  55.123  1.00  0.00     0.162 HD
BRANCH  14  16
HETATM   16  C6  UNL     1      27.353  -0.161  53.694  1.00  0.00     0.029 A 
HETATM   17  C7  UNL     1      26.807  -1.258  53.067  1.00  0.00     0.029 A 
HETATM   18  C8  UNL     1      27.492  -2.384  52.665  1.00  0.00     0.002 A 
HETATM   19  C9  UNL     1      28.865  -2.397  52.923  1.00  0.00     0.000 A 
HETATM   20  C10 UNL     1      29.495  -1.344  53.545  1.00  0.00     0.002 A 
HETATM   21  C11 UNL     1      28.711  -0.264  53.907  1.00  0.00     0.029 A 
ENDBRANCH  14  16
ENDBRANCH  12  14
ENDBRANCH  11  12
ENDBRANCH   2  11
BRANCH   1  22
HETATM   22  S1  UNL     1      23.465   3.831  51.211  1.00  0.00    -0.114 SA
HETATM   23  C1  UNL     1      24.168   3.240  49.646  1.00  0.00     0.097 C 
ENDBRANCH   1  22
TORSDOF 5
ENDMDL
MODEL 3
REMARK VINA RESULT:      -7.1      1.938      4.205
REMARK  5 active torsions:
REMARK  status: ('A' for Active; 'I' for Inactive)
REMARK    1  A    between atoms: S1_2  and  C2_3 
REMARK    2  A    between atoms: C3_4  and  O1_5 
REMARK    3  A    between atoms: O1_5  and  C4_6 
REMARK    4  A    between atoms: C4_6  and  N1_8 
REMARK    5  A    between atoms: N1_8  and  C6_9 
ROOT
HETATM    1  C2  UNL     1      21.278   1.287  50.915  1.00  0.00     0.106 A 
HETATM    2  C3  UNL     1      22.531   1.217  51.497  1.00  0.00     0.117 A 
HETATM    3  C12 UNL     1      22.331   0.371  52.572  1.00  0.00     0.027 A 
HETATM    4  C13 UNL     1      23.219  -0.087  53.541  1.00  0.00     0.017 A 
HETATM    5  C14 UNL     1      22.859  -0.950  54.576  1.00  0.00     0.001 A 
HETATM    6  C15 UNL     1      21.521  -1.346  54.592  1.00  0.00     0.002 A 
HETATM    7  C16 UNL     1      20.608  -0.909  53.641  1.00  0.00     0.030 A 
HETATM    8  C17 UNL     1      21.020  -0.054  52.640  1.00  0.00     0.048 A 
HETATM    9  N2  UNL     1      20.396   0.528  51.604  1.00  0.00    -0.343 N 
HETATM   10  C18 UNL     1      18.992   0.371  51.270  1.00  0.00     0.157 C 
ENDROOT
BRANCH   2  11
HETATM   11  O1  UNL     1      23.684   1.850  51.086  1.00  0.00    -0.323 OA
BRANCH  11  12
HETATM   12  C4  UNL     1      24.164   3.064  51.689  1.00  0.00     0.223 C 
HETATM   13  C5  UNL     1      23.937   4.223  50.738  1.00  0.00     0.063 C 
BRANCH  12  14
HETATM   14  N1  UNL     1      25.592   2.904  51.843  1.00  0.00    -0.364 N 
HETATM   15  H8  UNL     1      26.293   3.596  51.461  1.00  0.00     0.162 HD
BRANCH  14  16
HETATM   16  C6  UNL     1      26.128   1.787  52.531  1.00  0.00     0.029 A 
HETATM   17  C7  UNL     1      26.593   0.655  51.899  1.00  0.00     0.029 A 
HETATM   18  C8  UNL     1      27.121  -0.457  52.517  1.00  0.00     0.002 A 
HETATM   19  C9  UNL     1      27.185  -0.418  53.911  1.00  0.00     0.000 A 
HETATM   20  C10 UNL     1      26.744   0.671  54.626  1.00  0.00     0.002 A 
HETATM   21  C11 UNL     1      26.230   1.734  53.904  1.00  0.00     0.029 A 
ENDBRANCH  14  16
ENDBRANCH  12  14
ENDBRANCH  11  12
ENDBRANCH   2  11
BRANCH   1  22
HETATM   22  S1  UNL     1      20.873   2.245  49.452  1.00  0.00    -0.114 SA
HETATM   23  C1  UNL     1      21.957   1.669  48.115  1.00  0.00     0.097 C 
ENDBRANCH   1  22
TORSDOF 5
ENDMDL
MODEL 4
REMARK VINA RESULT:      -6.9      2.412      6.333
REMARK  5 active torsions:
REMARK  status: ('A' for Active; 'I' for Inactive)
REMARK    1  A    between atoms: S1_2  and  C2_3 
REMARK    2  A    between atoms: C3_4  and  O1_5 
REMARK    3  A    between atoms: O1_5  and  C4_6 
REMARK    4  A    between atoms: C4_6  and  N1_8 
REMARK    5  A    between atoms: N1_8  and  C6_9 
ROOT
HETATM    1  C2  UNL     1      25.033   0.929  52.353  1.00  0.00     0.106 A 
HETATM    2  C3  UNL     1      23.842   1.568  52.056  1.00  0.00     0.117 A 
HETATM    3  C12 UNL     1      22.925   0.912  52.856  1.00  0.00     0.027 A 
HETATM    4  C13 UNL     1      21.555   1.100  53.005  1.00  0.00     0.017 A 
HETATM    5  C14 UNL     1      20.757   0.346  53.866  1.00  0.00     0.001 A 
HETATM    6  C15 UNL     1      21.424  -0.639  54.595  1.00  0.00     0.002 A 
HETATM    7  C16 UNL     1      22.791  -0.855  54.473  1.00  0.00     0.030 A 
HETATM    8  C17 UNL     1      23.529  -0.078  53.604  1.00  0.00     0.048 A 
HETATM    9  N2  UNL     1      24.829  -0.042  53.271  1.00  0.00    -0.343 N 
HETATM   10  C18 UNL     1      25.861  -0.910  53.810  1.00  0.00     0.157 C 
ENDROOT
BRANCH   2  11
HETATM   11  O1  UNL     1      23.644   2.605  51.171  1.00  0.00    -0.323 OA
BRANCH  11  12
HETATM   12  C4  UNL     1      24.187   3.921  51.377  1.00  0.00     0.223 C 
HETATM   13  C5  UNL     1      23.286   4.696  52.318  1.00  0.00     0.063 C 
BRANCH  12  14
HETATM   14  N1  UNL     1      24.146   4.584  50.094  1.00  0.00    -0.364 N 
HETATM   15  H8  UNL     1      23.249   4.752  49.561  1.00  0.00     0.162 HD
BRANCH  14  16
HETATM   16  C6  UNL     1      25.336   5.051  49.480  1.00  0.00     0.029 A 
HETATM   17  C7  UNL     1      25.478   6.320  48.965  1.00  0.00     0.029 A 
HETATM   18  C8  UNL     1      26.608   6.824  48.359  1.00  0.00     0.002 A 
HETATM   19  C9  UNL     1      27.699   5.958  48.266  1.00  0.00     0.000 A 
HETATM   20  C10 UNL     1      27.647   4.672  48.753  1.00  0.00     0.002 A 
HETATM   21  C11 UNL     1      26.462   4.269  49.343  1.00  0.00     0.029 A 
ENDBRANCH  14  16
ENDBRANCH  12  14
ENDBRANCH  11  12
ENDBRANCH   2  11
BRANCH   1  22
HETATM   22  S1  UNL     1      26.625   1.328  51.627  1.00  0.00    -0.114 SA
HETATM   23  C1  UNL     1      27.634   2.088  52.929  1.00  0.00     0.097 C 
ENDBRANCH   1  22
TORSDOF 5
ENDMDL
MODEL 5
REMARK VINA RESULT:      -6.8      2.026      5.490
REMARK  5 active torsions:
REMARK  status: ('A' for Active; 'I' for Inactive)
REMARK    1  A    between atoms: S1_2  and  C2_3 
REMARK    2  A    between atoms: C3_4  and  O1_5 
REMARK    3  A    between atoms: O1_5  and  C4_6 
REMARK    4  A    between atoms: C4_6  and  N1_8 
REMARK    5  A    between atoms: N1_8  and  C6_9 
ROOT
HETATM    1  C2  UNL     1      22.671   1.215  52.530  1.00  0.00     0.106 A 
HETATM    2  C3  UNL     1      23.716   1.756  51.803  1.00  0.00     0.117 A 
HETATM    3  C12 UNL     1      24.805   1.013  52.219  1.00  0.00     0.027 A 
HETATM    4  C13 UNL     1      26.144   1.083  51.846  1.00  0.00     0.017 A 
HETATM    5  C14 UNL     1      27.137   0.251  52.364  1.00  0.00     0.001 A 
HETATM    6  C15 UNL     1      26.708  -0.685  53.304  1.00  0.00     0.002 A 
HETATM    7  C16 UNL     1      25.380  -0.784  53.699  1.00  0.00     0.030 A 
HETATM    8  C17 UNL     1      24.440   0.066  53.153  1.00  0.00     0.048 A 
HETATM    9  N2  UNL     1      23.118   0.216  53.324  1.00  0.00    -0.343 N 
HETATM   10  C18 UNL     1      22.289  -0.571  54.221  1.00  0.00     0.157 C 
ENDROOT
BRANCH   2  11
HETATM   11  O1  UNL     1      23.659   2.787  50.891  1.00  0.00    -0.323 OA
BRANCH  11  12
HETATM   12  C4  UNL     1      24.200   4.093  51.155  1.00  0.00     0.223 C 
HETATM   13  C5  UNL     1      23.259   4.853  52.070  1.00  0.00     0.063 C 
BRANCH  12  14
HETATM   14  N1  UNL     1      24.226   4.787  49.889  1.00  0.00    -0.364 N 
HETATM   15  H8  UNL     1      23.354   5.011  49.337  1.00  0.00     0.162 HD
BRANCH  14  16
HETATM   16  C6  UNL     1      25.453   5.210  49.318  1.00  0.00     0.029 A 
HETATM   17  C7  UNL     1      25.651   6.463  48.781  1.00  0.00     0.029 A 
HETATM   18  C8  UNL     1      26.819   6.924  48.214  1.00  0.00     0.002 A 
HETATM   19  C9  UNL     1      27.891   6.028  48.190  1.00  0.00     0.000 A 
HETATM   20  C10 UNL     1      27.783   4.757  48.703  1.00  0.00     0.002 A 
HETATM   21  C11 UNL     1      26.564   4.397  49.249  1.00  0.00     0.029 A 
ENDBRANCH  14  16
ENDBRANCH  12  14
ENDBRANCH  11  12
ENDBRANCH   2  11
BRANCH   1  22
HETATM   22  S1  UNL     1      20.962   1.757  52.437  1.00  0.00    -0.114 SA
HETATM   23  C1  UNL     1      20.078   0.572  51.385  1.00  0.00     0.097 C 
ENDBRANCH   1  22
TORSDOF 5
ENDMDL
MODEL 6
REMARK VINA RESULT:      -6.5      2.148      5.507
REMARK  5 active torsions:
REMARK  status: ('A' for Active; 'I' for Inactive)
REMARK    1  A    between atoms: S1_2  and  C2_3 
REMARK    2  A    between atoms: C3_4  and  O1_5 
REMARK    3  A    between atoms: O1_5  and  C4_6 
REMARK    4  A    between atoms: C4_6  and  N1_8 
REMARK    5  A    between atoms: N1_8  and  C6_9 
ROOT
HETATM    1  C2  UNL     1      21.867   1.076  51.787  1.00  0.00     0.106 A 
HETATM    2  C3  UNL     1      23.226   0.981  52.028  1.00  0.00     0.117 A 
HETATM    3  C12 UNL     1      23.291   0.188  53.158  1.00  0.00     0.027 A 
HETATM    4  C13 UNL     1      24.388  -0.264  53.885  1.00  0.00     0.017 A 
HETATM    5  C14 UNL     1      24.287  -1.070  55.020  1.00  0.00     0.001 A 
HETATM    6  C15 UNL     1      22.990  -1.412  55.402  1.00  0.00     0.002 A 
HETATM    7  C16 UNL     1      21.872  -0.979  54.700  1.00  0.00     0.030 A 
HETATM    8  C17 UNL     1      22.032  -0.183  53.584  1.00  0.00     0.048 A 
HETATM    9  N2  UNL     1      21.176   0.380  52.718  1.00  0.00    -0.343 N 
HETATM   10  C18 UNL     1      19.729   0.265  52.768  1.00  0.00     0.157 C 
ENDROOT
BRANCH   2  11
HETATM   11  O1  UNL     1      24.249   1.551  51.301  1.00  0.00    -0.323 OA
BRANCH  11  12
HETATM   12  C4  UNL     1      24.788   2.850  51.600  1.00  0.00     0.223 C 
HETATM   13  C5  UNL     1      24.096   3.413  52.827  1.00  0.00     0.063 C 
BRANCH  12  14
HETATM   14  N1  UNL     1      24.445   3.701  50.483  1.00  0.00    -0.364 N 
HETATM   15  H8  UNL     1      23.463   3.780  50.100  1.00  0.00     0.162 HD
BRANCH  14  16
HETATM   16  C6  UNL     1      25.434   4.485  49.837  1.00  0.00     0.029 A 
HETATM   17  C7  UNL     1      25.322   5.844  49.647  1.00  0.00     0.029 A 
HETATM   18  C8  UNL     1      26.249   6.653  49.027  1.00  0.00     0.002 A 
HETATM   19  C9  UNL     1      27.403   6.022  48.555  1.00  0.00     0.000 A 
HETATM   20  C10 UNL     1      27.599   4.668  48.702  1.00  0.00     0.002 A 
HETATM   21  C11 UNL     1      26.603   3.951  49.340  1.00  0.00     0.029 A 
ENDBRANCH  14  16
ENDBRANCH  12  14
ENDBRANCH  11  12
ENDBRANCH   2  11
BRANCH   1  22
HETATM   22  S1  UNL     1      21.122   1.988  50.434  1.00  0.00    -0.114 SA
HETATM   23  C1  UNL     1      20.646   3.616  51.080  1.00  0.00     0.097 C 
ENDBRANCH   1  22
TORSDOF 5
ENDMDL
MODEL 7
REMARK VINA RESULT:      -6.5      2.285      4.752
REMARK  5 active torsions:
REMARK  status: ('A' for Active; 'I' for Inactive)
REMARK    1  A    between atoms: S1_2  and  C2_3 
REMARK    2  A    between atoms: C3_4  and  O1_5 
REMARK    3  A    between atoms: O1_5  and  C4_6 
REMARK    4  A    between atoms: C4_6  and  N1_8 
REMARK    5  A    between atoms: N1_8  and  C6_9 
ROOT
HETATM    1  C2  UNL     1      24.348   3.990  50.893  1.00  0.00     0.106 A 
HETATM    2  C3  UNL     1      23.682   3.265  51.865  1.00  0.00     0.117 A 
HETATM    3  C12 UNL     1      24.579   2.261  52.178  1.00  0.00     0.027 A 
HETATM    4  C13 UNL     1      24.484   1.214  53.090  1.00  0.00     0.017 A 
HETATM    5  C14 UNL     1      25.490   0.269  53.293  1.00  0.00     0.001 A 
HETATM    6  C15 UNL     1      26.634   0.431  52.511  1.00  0.00     0.002 A 
HETATM    7  C16 UNL     1      26.764   1.464  51.591  1.00  0.00     0.030 A 
HETATM    8  C17 UNL     1      25.735   2.370  51.433  1.00  0.00     0.048 A 
HETATM    9  N2  UNL     1      25.562   3.446  50.650  1.00  0.00    -0.343 N 
HETATM   10  C18 UNL     1      26.525   3.952  49.688  1.00  0.00     0.157 C 
ENDROOT
BRANCH   2  11
HETATM   11  O1  UNL     1      22.426   3.506  52.380  1.00  0.00    -0.323 OA
BRANCH  11  12
HETATM   12  C4  UNL     1      21.222   3.047  51.743  1.00  0.00     0.223 C 
HETATM   13  C5  UNL     1      20.357   4.239  51.381  1.00  0.00     0.063 C 
BRANCH  12  14
HETATM   14  N1  UNL     1      20.505   2.278  52.735  1.00  0.00    -0.364 N 
HETATM   15  H8  UNL     1      19.619   2.621  53.199  1.00  0.00     0.162 HD
BRANCH  14  16
HETATM   16  C6  UNL     1      20.969   1.001  53.138  1.00  0.00     0.029 A 
HETATM   17  C7  UNL     1      21.429   0.046  52.260  1.00  0.00     0.029 A 
HETATM   18  C8  UNL     1      21.889  -1.208  52.596  1.00  0.00     0.002 A 
HETATM   19  C9  UNL     1      21.883  -1.525  53.957  1.00  0.00     0.000 A 
HETATM   20  C10 UNL     1      21.440  -0.633  54.905  1.00  0.00     0.002 A 
HETATM   21  C11 UNL     1      20.999   0.600  54.457  1.00  0.00     0.029 A 
ENDBRANCH  14  16
ENDBRANCH  12  14
ENDBRANCH  11  12
ENDBRANCH   2  11
BRANCH   1  22
HETATM   22  S1  UNL     1      23.699   5.446  50.068  1.00  0.00    -0.114 SA
HETATM   23  C1  UNL     1      24.356   6.895  50.941  1.00  0.00     0.097 C 
ENDBRANCH   1  22
TORSDOF 5
ENDMDL
MODEL 8
REMARK VINA RESULT:      -6.4      1.797      3.900
REMARK  5 active torsions:
REMARK  status: ('A' for Active; 'I' for Inactive)
REMARK    1  A    between atoms: S1_2  and  C2_3 
REMARK    2  A    between atoms: C3_4  and  O1_5 
REMARK    3  A    between atoms: O1_5  and  C4_6 
REMARK    4  A    between atoms: C4_6  and  N1_8 
REMARK    5  A    between atoms: N1_8  and  C6_9 
ROOT
HETATM    1  C2  UNL     1      23.271   1.664  51.409  1.00  0.00     0.106 A 
HETATM    2  C3  UNL     1      23.213   0.948  52.592  1.00  0.00     0.117 A 
HETATM    3  C12 UNL     1      21.902   0.510  52.630  1.00  0.00     0.027 A 
HETATM    4  C13 UNL     1      21.231  -0.260  53.575  1.00  0.00     0.017 A 
HETATM    5  C14 UNL     1      19.889  -0.623  53.468  1.00  0.00     0.001 A 
HETATM    6  C15 UNL     1      19.229  -0.161  52.329  1.00  0.00     0.002 A 
HETATM    7  C16 UNL     1      19.867   0.609  51.364  1.00  0.00     0.030 A 
HETATM    8  C17 UNL     1      21.197   0.938  51.523  1.00  0.00     0.048 A 
HETATM    9  N2  UNL     1      22.069   1.647  50.790  1.00  0.00    -0.343 N 
HETATM   10  C18 UNL     1      21.774   2.298  49.525  1.00  0.00     0.157 C 
ENDROOT
BRANCH   2  11
HETATM   11  O1  UNL     1      24.230   0.738  53.497  1.00  0.00    -0.323 OA
BRANCH  11  12
HETATM   12  C4  UNL     1      24.861  -0.541  53.678  1.00  0.00     0.223 C 
HETATM   13  C5  UNL     1      25.556  -0.575  55.026  1.00  0.00     0.063 C 
BRANCH  12  14
HETATM   14  N1  UNL     1      25.885  -0.637  52.662  1.00  0.00    -0.364 N 
HETATM   15  H8  UNL     1      25.672  -0.847  51.649  1.00  0.00     0.162 HD
BRANCH  14  16
HETATM   16  C6  UNL     1      27.251  -0.447  52.989  1.00  0.00     0.029 A 
HETATM   17  C7  UNL     1      28.160  -1.477  53.087  1.00  0.00     0.029 A 
HETATM   18  C8  UNL     1      29.496  -1.349  53.401  1.00  0.00     0.002 A 
HETATM   19  C9  UNL     1      29.954  -0.051  53.638  1.00  0.00     0.000 A 
HETATM   20  C10 UNL     1      29.117   1.037  53.562  1.00  0.00     0.002 A 
HETATM   21  C11 UNL     1      27.793   0.795  53.239  1.00  0.00     0.029 A 
ENDBRANCH  14  16
ENDBRANCH  12  14
ENDBRANCH  11  12
ENDBRANCH   2  11
BRANCH   1  22
HETATM   22  S1  UNL     1      24.731   2.497  50.780  1.00  0.00    -0.114 SA
HETATM   23  C1  UNL     1      24.461   4.280  50.980  1.00  0.00     0.097 C 
ENDBRANCH   1  22
TORSDOF 5
ENDMDL
MODEL 9
REMARK VINA RESULT:      -6.3      2.386      3.183
REMARK  5 active torsions:
REMARK  status: ('A' for Active; 'I' for Inactive)
REMARK    1  A    between atoms: S1_2  and  C2_3 
REMARK    2  A    between atoms: C3_4  and  O1_5 
REMARK    3  A    between atoms: O1_5  and  C4_6 
REMARK    4  A    between atoms: C4_6  and  N1_8 
REMARK    5  A    between atoms: N1_8  and  C6_9 
ROOT
HETATM    1  C2  UNL     1      22.823   3.668  49.751  1.00  0.00     0.106 A 
HETATM    2  C3  UNL     1      24.144   3.383  50.048  1.00  0.00     0.117 A 
HETATM    3  C12 UNL     1      24.829   4.441  49.479  1.00  0.00     0.027 A 
HETATM    4  C13 UNL     1      26.191   4.722  49.441  1.00  0.00     0.017 A 
HETATM    5  C14 UNL     1      26.733   5.847  48.819  1.00  0.00     0.001 A 
HETATM    6  C15 UNL     1      25.812   6.705  48.219  1.00  0.00     0.002 A 
HETATM    7  C16 UNL     1      24.446   6.457  48.238  1.00  0.00     0.030 A 
HETATM    8  C17 UNL     1      23.966   5.327  48.868  1.00  0.00     0.048 A 
HETATM    9  N2  UNL     1      22.736   4.823  49.053  1.00  0.00    -0.343 N 
HETATM   10  C18 UNL     1      21.500   5.419  48.579  1.00  0.00     0.157 C 
ENDROOT
BRANCH   2  11
HETATM   11  O1  UNL     1      24.633   2.298  50.742  1.00  0.00    -0.323 OA
BRANCH  11  12
HETATM   12  C4  UNL     1      24.904   2.334  52.154  1.00  0.00     0.223 C 
HETATM   13  C5  UNL     1      24.101   3.452  52.792  1.00  0.00     0.063 C 
BRANCH  12  14
HETATM   14  N1  UNL     1      26.302   2.673  52.292  1.00  0.00    -0.364 N 
HETATM   15  H8  UNL     1      26.696   3.614  52.016  1.00  0.00     0.162 HD
BRANCH  14  16
HETATM   16  C6  UNL     1      27.227   1.737  52.819  1.00  0.00     0.029 A 
HETATM   17  C7  UNL     1      27.119   0.376  52.637  1.00  0.00     0.029 A 
HETATM   18  C8  UNL     1      27.987  -0.576  53.126  1.00  0.00     0.002 A 
HETATM   19  C9  UNL     1      29.070  -0.102  53.870  1.00  0.00     0.000 A 
HETATM   20  C10 UNL     1      29.257   1.241  54.102  1.00  0.00     0.002 A 
HETATM   21  C11 UNL     1      28.324   2.110  53.565  1.00  0.00     0.029 A 
ENDBRANCH  14  16
ENDBRANCH  12  14
ENDBRANCH  11  12
ENDBRANCH   2  11
BRANCH   1  22
HETATM   22  S1  UNL     1      21.419   2.655  50.225  1.00  0.00    -0.114 SA
HETATM   23  C1  UNL     1      20.940   1.686  48.768  1.00  0.00     0.097 C 
ENDBRANCH   1  22
TORSDOF 5
ENDMDL
