MODEL 1
REMARK VINA RESULT:      -7.8      0.000      0.000
REMARK  5 active torsions:
REMARK  status: ('A' for Active; 'I' for Inactive)
REMARK    1  A    between atoms: O1_2  and  C2_3 
REMARK    2  A    between atoms: C5_6  and  C6_7 
REMARK    3  A    between atoms: C6_7  and  C7_8 
REMARK       I    between atoms: C7_8  and  N1_10 
REMARK    4  A    between atoms: N1_10  and  S1_11 
REMARK    5  A    between atoms: S1_11  and  C8_14 
ROOT
HETATM    1  C7  UNL     1      24.155   1.884  52.188  1.00  0.00     0.235 C 
HETATM    2  O2  UNL     1      24.588   2.952  52.692  1.00  0.00    -0.272 OA
HETATM    3  N1  UNL     1      25.238   0.933  52.194  1.00  0.00    -0.250 N 
HETATM    4  H9  UNL     1      25.222  -0.063  51.843  1.00  0.00     0.181 HD
ENDROOT
BRANCH   3   5
HETATM    5  S1  UNL     1      26.762   1.470  52.850  1.00  0.00     0.265 S 
HETATM    6  O3  UNL     1      27.383   2.434  51.854  1.00  0.00    -0.200 OA
HETATM    7  O4  UNL     1      26.531   2.189  54.142  1.00  0.00    -0.200 OA
BRANCH   5   8
HETATM    8  C8  UNL     1      27.875   0.173  53.084  1.00  0.00     0.079 A 
HETATM    9  C9  UNL     1      27.392  -1.100  52.805  1.00  0.00     0.025 A 
HETATM   10  C10 UNL     1      28.133  -2.258  52.931  1.00  0.00     0.002 A 
HETATM   11  C11 UNL     1      29.452  -2.122  53.369  1.00  0.00     0.000 A 
HETATM   12  C12 UNL     1      29.946  -0.868  53.650  1.00  0.00     0.002 A 
HETATM   13  C13 UNL     1      29.164   0.260  53.507  1.00  0.00     0.025 A 
ENDBRANCH   5   8
ENDBRANCH   3   5
BRANCH   1  14
HETATM   14  C6  UNL     1      22.905   1.335  51.611  1.00  0.00     0.142 C 
BRANCH  14  15
HETATM   15  C5  UNL     1      22.065   0.645  52.613  1.00  0.00    -0.051 A 
HETATM   16  C4  UNL     1      20.764   0.142  52.184  1.00  0.00     0.006 A 
HETATM   17  C3  UNL     1      20.202  -0.436  53.256  1.00  0.00     0.009 A 
HETATM   18  C2  UNL     1      21.097  -0.348  54.448  1.00  0.00     0.167 A 
HETATM   19  C14 UNL     1      22.278   0.385  53.871  1.00  0.00     0.016 A 
BRANCH  18  20
HETATM   20  O1  UNL     1      21.519  -1.588  54.873  1.00  0.00    -0.383 OA
HETATM   21  C1  UNL     1      22.808  -1.523  55.406  1.00  0.00     0.202 C 
ENDBRANCH  18  20
ENDBRANCH  14  15
ENDBRANCH   1  14
TORSDOF 5
ENDMDL
MODEL 2
REMARK VINA RESULT:      -7.6      1.651      2.376
REMARK  5 active torsions:
REMARK  status: ('A' for Active; 'I' for Inactive)
REMARK    1  A    between atoms: O1_2  and  C2_3 
REMARK    2  A    between atoms: C5_6  and  C6_7 
REMARK    3  A    between atoms: C6_7  and  C7_8 
REMARK       I    between atoms: C7_8  and  N1_10 
REMARK    4  A    between atoms: N1_10  and  S1_11 
REMARK    5  A    between atoms: S1_11  and  C8_14 
ROOT
HETATM    1  C7  UNL     1      25.639   2.504  52.815  1.00  0.00     0.235 C 
HETATM    2  O2  UNL     1      26.315   2.193  51.801  1.00  0.00    -0.272 OA
HETATM    3  N1  UNL     1      26.491   2.350  53.966  1.00  0.00    -0.250 N 
HETATM    4  H9  UNL     1      26.244   2.525  54.978  1.00  0.00     0.181 HD
ENDROOT
BRANCH   3   5
HETATM    5  S1  UNL     1      28.124   1.809  53.678  1.00  0.00     0.265 S 
HETATM    6  O3  UNL     1      28.631   2.508  52.429  1.00  0.00    -0.200 OA
HETATM    7  O4  UNL     1      28.995   2.189  54.835  1.00  0.00    -0.200 OA
BRANCH   5   8
HETATM    8  C8  UNL     1      28.218   0.109  53.398  1.00  0.00     0.079 A 
HETATM    9  C9  UNL     1      29.463  -0.473  53.603  1.00  0.00     0.025 A 
HETATM   10  C10 UNL     1      29.732  -1.816  53.430  1.00  0.00     0.002 A 
HETATM   11  C11 UNL     1      28.671  -2.627  53.023  1.00  0.00     0.000 A 
HETATM   12  C12 UNL     1      27.431  -2.067  52.816  1.00  0.00     0.002 A 
HETATM   13  C13 UNL     1      27.213  -0.717  53.003  1.00  0.00     0.025 A 
ENDBRANCH   5   8
ENDBRANCH   3   5
BRANCH   1  14
HETATM   14  C6  UNL     1      24.274   2.966  53.162  1.00  0.00     0.142 C 
BRANCH  14  15
HETATM   15  C5  UNL     1      23.225   1.999  52.776  1.00  0.00    -0.051 A 
HETATM   16  C4  UNL     1      23.445   0.591  53.087  1.00  0.00     0.006 A 
HETATM   17  C3  UNL     1      22.369  -0.075  52.645  1.00  0.00     0.009 A 
HETATM   18  C2  UNL     1      21.379   0.853  52.019  1.00  0.00     0.167 A 
HETATM   19  C14 UNL     1      22.081   2.175  52.180  1.00  0.00     0.016 A 
BRANCH  18  20
HETATM   20  O1  UNL     1      20.195   0.899  52.720  1.00  0.00    -0.383 OA
HETATM   21  C1  UNL     1      19.838  -0.367  53.186  1.00  0.00     0.202 C 
ENDBRANCH  18  20
ENDBRANCH  14  15
ENDBRANCH   1  14
TORSDOF 5
ENDMDL
MODEL 3
REMARK VINA RESULT:      -7.5      3.787      6.254
REMARK  5 active torsions:
REMARK  status: ('A' for Active; 'I' for Inactive)
REMARK    1  A    between atoms: O1_2  and  C2_3 
REMARK    2  A    between atoms: C5_6  and  C6_7 
REMARK    3  A    between atoms: C6_7  and  C7_8 
REMARK       I    between atoms: C7_8  and  N1_10 
REMARK    4  A    between atoms: N1_10  and  S1_11 
REMARK    5  A    between atoms: S1_11  and  C8_14 
ROOT
HETATM    1  C7  UNL     1      26.563   2.515  50.988  1.00  0.00     0.235 C 
HETATM    2  O2  UNL     1      27.531   2.679  51.774  1.00  0.00    -0.272 OA
HETATM    3  N1  UNL     1      25.618   1.646  51.642  1.00  0.00    -0.250 N 
HETATM    4  H9  UNL     1      24.694   1.301  51.267  1.00  0.00     0.181 HD
ENDROOT
BRANCH   3   5
HETATM    5  S1  UNL     1      26.031   1.085  53.241  1.00  0.00     0.265 S 
HETATM    6  O3  UNL     1      26.609   2.261  54.010  1.00  0.00    -0.200 OA
HETATM    7  O4  UNL     1      24.800   0.604  53.943  1.00  0.00    -0.200 OA
BRANCH   5   8
HETATM    8  C8  UNL     1      27.225  -0.160  53.218  1.00  0.00     0.079 A 
HETATM    9  C9  UNL     1      28.476   0.187  53.713  1.00  0.00     0.025 A 
HETATM   10  C10 UNL     1      29.554  -0.673  53.776  1.00  0.00     0.002 A 
HETATM   11  C11 UNL     1      29.356  -1.972  53.305  1.00  0.00     0.000 A 
HETATM   12  C12 UNL     1      28.123  -2.333  52.811  1.00  0.00     0.002 A 
HETATM   13  C13 UNL     1      27.076  -1.436  52.770  1.00  0.00     0.025 A 
ENDBRANCH   5   8
ENDBRANCH   3   5
BRANCH   1  14
HETATM   14  C6  UNL     1      26.123   2.936  49.637  1.00  0.00     0.142 C 
BRANCH  14  15
HETATM   15  C5  UNL     1      26.391   4.364  49.364  1.00  0.00    -0.051 A 
HETATM   16  C4  UNL     1      27.623   4.707  48.662  1.00  0.00     0.006 A 
HETATM   17  C3  UNL     1      27.638   6.041  48.536  1.00  0.00     0.009 A 
HETATM   18  C2  UNL     1      26.419   6.654  49.146  1.00  0.00     0.167 A 
HETATM   19  C14 UNL     1      25.700   5.431  49.647  1.00  0.00     0.016 A 
BRANCH  18  20
HETATM   20  O1  UNL     1      25.624   7.274  48.208  1.00  0.00    -0.383 OA
HETATM   21  C1  UNL     1      26.398   7.947  47.260  1.00  0.00     0.202 C 
ENDBRANCH  18  20
ENDBRANCH  14  15
ENDBRANCH   1  14
TORSDOF 5
ENDMDL
MODEL 4
REMARK VINA RESULT:      -7.4      3.658      4.881
REMARK  5 active torsions:
REMARK  status: ('A' for Active; 'I' for Inactive)
REMARK    1  A    between atoms: O1_2  and  C2_3 
REMARK    2  A    between atoms: C5_6  and  C6_7 
REMARK    3  A    between atoms: C6_7  and  C7_8 
REMARK       I    between atoms: C7_8  and  N1_10 
REMARK    4  A    between atoms: N1_10  and  S1_11 
REMARK    5  A    between atoms: S1_11  and  C8_14 
ROOT
HETATM    1  C7  UNL     1      26.383   2.489  51.104  1.00  0.00     0.235 C 
HETATM    2  O2  UNL     1      25.643   1.676  51.714  1.00  0.00    -0.272 OA
HETATM    3  N1  UNL     1      27.525   2.750  51.944  1.00  0.00    -0.250 N 
HETATM    4  H9  UNL     1      28.342   3.386  51.740  1.00  0.00     0.181 HD
ENDROOT
BRANCH   3   5
HETATM    5  S1  UNL     1      27.583   1.928  53.481  1.00  0.00     0.265 S 
HETATM    6  O3  UNL     1      28.652   2.598  54.325  1.00  0.00    -0.200 OA
HETATM    7  O4  UNL     1      26.263   2.058  54.175  1.00  0.00    -0.200 OA
BRANCH   5   8
HETATM    8  C8  UNL     1      28.009   0.263  53.325  1.00  0.00     0.079 A 
HETATM    9  C9  UNL     1      29.319  -0.062  53.656  1.00  0.00     0.025 A 
HETATM   10  C10 UNL     1      29.842  -1.339  53.595  1.00  0.00     0.002 A 
HETATM   11  C11 UNL     1      28.985  -2.355  53.171  1.00  0.00     0.000 A 
HETATM   12  C12 UNL     1      27.684  -2.050  52.839  1.00  0.00     0.002 A 
HETATM   13  C13 UNL     1      27.208  -0.758  52.917  1.00  0.00     0.025 A 
ENDBRANCH   5   8
ENDBRANCH   3   5
BRANCH   1  14
HETATM   14  C6  UNL     1      26.425   3.233  49.823  1.00  0.00     0.142 C 
BRANCH  14  15
HETATM   15  C5  UNL     1      25.287   4.163  49.661  1.00  0.00    -0.051 A 
HETATM   16  C4  UNL     1      24.003   3.607  49.248  1.00  0.00     0.006 A 
HETATM   17  C3  UNL     1      23.144   4.634  49.173  1.00  0.00     0.009 A 
HETATM   18  C2  UNL     1      23.810   5.922  49.531  1.00  0.00     0.167 A 
HETATM   19  C14 UNL     1      25.209   5.452  49.826  1.00  0.00     0.016 A 
BRANCH  18  20
HETATM   20  O1  UNL     1      23.286   6.477  50.676  1.00  0.00    -0.383 OA
HETATM   21  C1  UNL     1      21.892   6.404  50.677  1.00  0.00     0.202 C 
ENDBRANCH  18  20
ENDBRANCH  14  15
ENDBRANCH   1  14
TORSDOF 5
ENDMDL
MODEL 5
REMARK VINA RESULT:      -7.2      2.297      3.916
REMARK  5 active torsions:
REMARK  status: ('A' for Active; 'I' for Inactive)
REMARK    1  A    between atoms: O1_2  and  C2_3 
REMARK    2  A    between atoms: C5_6  and  C6_7 
REMARK    3  A    between atoms: C6_7  and  C7_8 
REMARK       I    between atoms: C7_8  and  N1_10 
REMARK    4  A    between atoms: N1_10  and  S1_11 
REMARK    5  A    between atoms: S1_11  and  C8_14 
ROOT
HETATM    1  C7  UNL     1      24.085   2.028  52.277  1.00  0.00     0.235 C 
HETATM    2  O2  UNL     1      24.628   3.094  52.664  1.00  0.00    -0.272 OA
HETATM    3  N1  UNL     1      25.076   0.985  52.353  1.00  0.00    -0.250 N 
HETATM    4  H9  UNL     1      24.959  -0.034  52.102  1.00  0.00     0.181 HD
ENDROOT
BRANCH   3   5
HETATM    5  S1  UNL     1      26.661   1.437  52.923  1.00  0.00     0.265 S 
HETATM    6  O3  UNL     1      27.274   2.373  51.896  1.00  0.00    -0.200 OA
HETATM    7  O4  UNL     1      26.543   2.160  54.229  1.00  0.00    -0.200 OA
BRANCH   5   8
HETATM    8  C8  UNL     1      27.716   0.082  53.089  1.00  0.00     0.079 A 
HETATM    9  C9  UNL     1      27.183  -1.150  52.730  1.00  0.00     0.025 A 
HETATM   10  C10 UNL     1      27.873  -2.345  52.794  1.00  0.00     0.002 A 
HETATM   11  C11 UNL     1      29.191  -2.291  53.251  1.00  0.00     0.000 A 
HETATM   12  C12 UNL     1      29.734  -1.078  53.611  1.00  0.00     0.002 A 
HETATM   13  C13 UNL     1      29.003   0.088  53.528  1.00  0.00     0.025 A 
ENDBRANCH   5   8
ENDBRANCH   3   5
BRANCH   1  14
HETATM   14  C6  UNL     1      22.774   1.546  51.782  1.00  0.00     0.142 C 
BRANCH  14  15
HETATM   15  C5  UNL     1      22.589   1.770  50.332  1.00  0.00    -0.051 A 
HETATM   16  C4  UNL     1      21.585   0.971  49.639  1.00  0.00     0.006 A 
HETATM   17  C3  UNL     1      21.607   1.354  48.354  1.00  0.00     0.009 A 
HETATM   18  C2  UNL     1      22.623   2.424  48.127  1.00  0.00     0.167 A 
HETATM   19  C14 UNL     1      23.185   2.590  49.514  1.00  0.00     0.016 A 
BRANCH  18  20
HETATM   20  O1  UNL     1      22.048   3.615  47.745  1.00  0.00    -0.383 OA
HETATM   21  C1  UNL     1      21.825   3.645  46.367  1.00  0.00     0.202 C 
ENDBRANCH  18  20
ENDBRANCH  14  15
ENDBRANCH   1  14
TORSDOF 5
ENDMDL
MODEL 6
REMARK VINA RESULT:      -7.2      3.078      5.939
REMARK  5 active torsions:
REMARK  status: ('A' for Active; 'I' for Inactive)
REMARK    1  A    between atoms: O1_2  and  C2_3 
REMARK    2  A    between atoms: C5_6  and  C6_7 
REMARK    3  A    between atoms: C6_7  and  C7_8 
REMARK       I    between atoms: C7_8  and  N1_10 
REMARK    4  A    between atoms: N1_10  and  S1_11 
REMARK    5  A    between atoms: S1_11  and  C8_14 
ROOT
HETATM    1  C7  UNL     1      23.828   1.585  52.541  1.00  0.00     0.235 C 
HETATM    2  O2  UNL     1      23.838   2.791  52.899  1.00  0.00    -0.272 OA
HETATM    3  N1  UNL     1      23.371   1.544  51.175  1.00  0.00    -0.250 N 
HETATM    4  H9  UNL     1      23.243   0.692  50.564  1.00  0.00     0.181 HD
ENDROOT
BRANCH   3   5
HETATM    5  S1  UNL     1      22.977   3.068  50.424  1.00  0.00     0.265 S 
HETATM    6  O3  UNL     1      22.091   2.778  49.225  1.00  0.00    -0.200 OA
HETATM    7  O4  UNL     1      22.223   3.928  51.389  1.00  0.00    -0.200 OA
BRANCH   5   8
HETATM    8  C8  UNL     1      24.373   3.903  49.850  1.00  0.00     0.079 A 
HETATM    9  C9  UNL     1      25.554   3.170  49.827  1.00  0.00     0.025 A 
HETATM   10  C10 UNL     1      26.770   3.666  49.402  1.00  0.00     0.002 A 
HETATM   11  C11 UNL     1      26.796   4.993  48.969  1.00  0.00     0.000 A 
HETATM   12  C12 UNL     1      25.635   5.733  48.984  1.00  0.00     0.002 A 
HETATM   13  C13 UNL     1      24.444   5.191  49.419  1.00  0.00     0.025 A 
ENDBRANCH   5   8
ENDBRANCH   3   5
BRANCH   1  14
HETATM   14  C6  UNL     1      24.136   0.243  53.089  1.00  0.00     0.142 C 
BRANCH  14  15
HETATM   15  C5  UNL     1      25.553   0.095  53.484  1.00  0.00    -0.051 A 
HETATM   16  C4  UNL     1      26.530  -0.179  52.435  1.00  0.00     0.006 A 
HETATM   17  C3  UNL     1      27.725  -0.268  53.035  1.00  0.00     0.009 A 
HETATM   18  C2  UNL     1      27.607  -0.058  54.509  1.00  0.00     0.167 A 
HETATM   19  C14 UNL     1      26.125   0.169  54.651  1.00  0.00     0.016 A 
BRANCH  18  20
HETATM   20  O1  UNL     1      28.263   1.078  54.927  1.00  0.00    -0.383 OA
HETATM   21  C1  UNL     1      29.408   1.305  54.162  1.00  0.00     0.202 C 
ENDBRANCH  18  20
ENDBRANCH  14  15
ENDBRANCH   1  14
TORSDOF 5
ENDMDL
MODEL 7
REMARK VINA RESULT:      -7.2      2.760      5.239
REMARK  5 active torsions:
REMARK  status: ('A' for Active; 'I' for Inactive)
REMARK    1  A    between atoms: O1_2  and  C2_3 
REMARK    2  A    between atoms: C5_6  and  C6_7 
REMARK    3  A    between atoms: C6_7  and  C7_8 
REMARK       I    between atoms: C7_8  and  N1_10 
REMARK    4  A    between atoms: N1_10  and  S1_11 
REMARK    5  A    between atoms: S1_11  and  C8_14 
ROOT
HETATM    1  C7  UNL     1      26.656   1.822  52.447  1.00  0.00     0.235 C 
HETATM    2  O2  UNL     1      26.470   1.966  53.682  1.00  0.00    -0.272 OA
HETATM    3  N1  UNL     1      26.756   0.409  52.187  1.00  0.00    -0.250 N 
HETATM    4  H9  UNL     1      26.913  -0.065  51.256  1.00  0.00     0.181 HD
ENDROOT
BRANCH   3   5
HETATM    5  S1  UNL     1      26.606  -0.663  53.555  1.00  0.00     0.265 S 
HETATM    6  O3  UNL     1      27.074  -2.040  53.119  1.00  0.00    -0.200 OA
HETATM    7  O4  UNL     1      27.480  -0.184  54.671  1.00  0.00    -0.200 OA
BRANCH   5   8
HETATM    8  C8  UNL     1      24.977  -0.815  54.100  1.00  0.00     0.079 A 
HETATM    9  C9  UNL     1      23.993  -0.463  53.183  1.00  0.00     0.025 A 
HETATM   10  C10 UNL     1      22.637  -0.519  53.436  1.00  0.00     0.002 A 
HETATM   11  C11 UNL     1      22.247  -0.959  54.702  1.00  0.00     0.000 A 
HETATM   12  C12 UNL     1      23.208  -1.312  55.623  1.00  0.00     0.002 A 
HETATM   13  C13 UNL     1      24.552  -1.239  55.320  1.00  0.00     0.025 A 
ENDBRANCH   5   8
ENDBRANCH   3   5
BRANCH   1  14
HETATM   14  C6  UNL     1      26.797   2.648  51.224  1.00  0.00     0.142 C 
BRANCH  14  15
HETATM   15  C5  UNL     1      25.498   2.972  50.597  1.00  0.00    -0.051 A 
HETATM   16  C4  UNL     1      25.491   3.923  49.491  1.00  0.00     0.006 A 
HETATM   17  C3  UNL     1      24.215   4.049  49.098  1.00  0.00     0.009 A 
HETATM   18  C2  UNL     1      23.310   3.189  49.919  1.00  0.00     0.167 A 
HETATM   19  C14 UNL     1      24.295   2.546  50.858  1.00  0.00     0.016 A 
BRANCH  18  20
HETATM   20  O1  UNL     1      22.711   2.201  49.171  1.00  0.00    -0.383 OA
HETATM   21  C1  UNL     1      22.318   2.686  47.922  1.00  0.00     0.202 C 
ENDBRANCH  18  20
ENDBRANCH  14  15
ENDBRANCH   1  14
TORSDOF 5
ENDMDL
MODEL 8
REMARK VINA RESULT:      -7.1      2.236      6.214
REMARK  5 active torsions:
REMARK  status: ('A' for Active; 'I' for Inactive)
REMARK    1  A    between atoms: O1_2  and  C2_3 
REMARK    2  A    between atoms: C5_6  and  C6_7 
REMARK    3  A    between atoms: C6_7  and  C7_8 
REMARK       I    between atoms: C7_8  and  N1_10 
REMARK    4  A    between atoms: N1_10  and  S1_11 
REMARK    5  A    between atoms: S1_11  and  C8_14 
ROOT
HETATM    1  C7  UNL     1      24.916   2.587  51.771  1.00  0.00     0.235 C 
HETATM    2  O2  UNL     1      24.127   3.086  52.613  1.00  0.00    -0.272 OA
HETATM    3  N1  UNL     1      24.126   1.833  50.832  1.00  0.00    -0.250 N 
HETATM    4  H9  UNL     1      24.467   1.284  49.997  1.00  0.00     0.181 HD
ENDROOT
BRANCH   3   5
HETATM    5  S1  UNL     1      22.400   1.807  51.087  1.00  0.00     0.265 S 
HETATM    6  O3  UNL     1      21.941   3.241  51.293  1.00  0.00    -0.200 OA
HETATM    7  O4  UNL     1      21.718   1.248  49.879  1.00  0.00    -0.200 OA
BRANCH   5   8
HETATM    8  C8  UNL     1      21.953   0.910  52.491  1.00  0.00     0.079 A 
HETATM    9  C9  UNL     1      22.797  -0.138  52.838  1.00  0.00     0.025 A 
HETATM   10  C10 UNL     1      22.603  -0.966  53.926  1.00  0.00     0.002 A 
HETATM   11  C11 UNL     1      21.480  -0.718  54.718  1.00  0.00     0.000 A 
HETATM   12  C12 UNL     1      20.634   0.316  54.388  1.00  0.00     0.002 A 
HETATM   13  C13 UNL     1      20.872   1.116  53.290  1.00  0.00     0.025 A 
ENDBRANCH   5   8
ENDBRANCH   3   5
BRANCH   1  14
HETATM   14  C6  UNL     1      26.367   2.548  51.470  1.00  0.00     0.142 C 
BRANCH  14  15
HETATM   15  C5  UNL     1      27.121   1.672  52.392  1.00  0.00    -0.051 A 
HETATM   16  C4  UNL     1      26.778   0.254  52.422  1.00  0.00     0.006 A 
HETATM   17  C3  UNL     1      27.589  -0.320  53.322  1.00  0.00     0.009 A 
HETATM   18  C2  UNL     1      28.510   0.683  53.936  1.00  0.00     0.167 A 
HETATM   19  C14 UNL     1      28.084   1.940  53.226  1.00  0.00     0.016 A 
BRANCH  18  20
HETATM   20  O1  UNL     1      29.829   0.434  53.628  1.00  0.00    -0.383 OA
HETATM   21  C1  UNL     1      30.092  -0.936  53.614  1.00  0.00     0.202 C 
ENDBRANCH  18  20
ENDBRANCH  14  15
ENDBRANCH   1  14
TORSDOF 5
ENDMDL
MODEL 9
REMARK VINA RESULT:      -7.1      1.635      2.575
REMARK  5 active torsions:
REMARK  status: ('A' for Active; 'I' for Inactive)
REMARK    1  A    between atoms: O1_2  and  C2_3 
REMARK    2  A    between atoms: C5_6  and  C6_7 
REMARK    3  A    between atoms: C6_7  and  C7_8 
REMARK       I    between atoms: C7_8  and  N1_10 
REMARK    4  A    between atoms: N1_10  and  S1_11 
REMARK    5  A    between atoms: S1_11  and  C8_14 
ROOT
HETATM    1  C7  UNL     1      23.418   0.563  53.311  1.00  0.00     0.235 C 
HETATM    2  O2  UNL     1      23.637   1.786  53.121  1.00  0.00    -0.272 OA
HETATM    3  N1  UNL     1      24.696  -0.097  53.394  1.00  0.00    -0.250 N 
HETATM    4  H9  UNL     1      24.881  -1.125  53.547  1.00  0.00     0.181 HD
ENDROOT
BRANCH   3   5
HETATM    5  S1  UNL     1      26.116   0.900  53.223  1.00  0.00     0.265 S 
HETATM    6  O3  UNL     1      26.056   1.563  51.857  1.00  0.00    -0.200 OA
HETATM    7  O4  UNL     1      26.119   1.962  54.278  1.00  0.00    -0.200 OA
BRANCH   5   8
HETATM    8  C8  UNL     1      27.578  -0.012  53.296  1.00  0.00     0.079 A 
HETATM    9  C9  UNL     1      28.724   0.700  53.628  1.00  0.00     0.025 A 
HETATM   10  C10 UNL     1      29.983   0.143  53.735  1.00  0.00     0.002 A 
HETATM   11  C11 UNL     1      30.092  -1.227  53.490  1.00  0.00     0.000 A 
HETATM   12  C12 UNL     1      28.967  -1.948  53.159  1.00  0.00     0.002 A 
HETATM   13  C13 UNL     1      27.730  -1.344  53.065  1.00  0.00     0.025 A 
ENDBRANCH   5   8
ENDBRANCH   3   5
BRANCH   1  14
HETATM   14  C6  UNL     1      22.275  -0.368  53.467  1.00  0.00     0.142 C 
BRANCH  14  15
HETATM   15  C5  UNL     1      21.113   0.005  52.633  1.00  0.00    -0.051 A 
HETATM   16  C4  UNL     1      21.352   0.327  51.231  1.00  0.00     0.006 A 
HETATM   17  C3  UNL     1      20.161   0.628  50.694  1.00  0.00     0.009 A 
HETATM   18  C2  UNL     1      19.070   0.521  51.709  1.00  0.00     0.167 A 
HETATM   19  C14 UNL     1      19.848   0.105  52.928  1.00  0.00     0.016 A 
BRANCH  18  20
HETATM   20  O1  UNL     1      18.172  -0.476  51.404  1.00  0.00    -0.383 OA
HETATM   21  C1  UNL     1      17.616  -1.022  52.562  1.00  0.00     0.202 C 
ENDBRANCH  18  20
ENDBRANCH  14  15
ENDBRANCH   1  14
TORSDOF 5
ENDMDL
