MODEL 1
REMARK VINA RESULT:      -7.0      0.000      0.000
REMARK  5 active torsions:
REMARK  status: ('A' for Active; 'I' for Inactive)
REMARK    1  A    between atoms: N2_8  and  C6_9 
REMARK    2  A    between atoms: C6_9  and  P1_10 
REMARK    3  A    between atoms: P1_10  and  C7_11 
REMARK    4  A    between atoms: C8_12  and  C9_13 
REMARK    5  A    between atoms: C9_13  and  N3_14 
ROOT
HETATM    1  N1  UNL     1      28.997  -3.214  53.303  1.00  0.00    -0.289 NA
HETATM    2  C1  UNL     1      28.282  -2.180  53.136  1.00  0.00     0.140 A 
HETATM    3  S1  UNL     1      26.604  -2.113  52.505  1.00  0.00    -0.069 SA
HETATM    4  C2  UNL     1      26.453  -0.311  52.630  1.00  0.00     0.023 A 
HETATM    5  C3  UNL     1      27.580   0.172  53.109  1.00  0.00     0.011 A 
HETATM    6  C4  UNL     1      27.555   1.651  53.249  1.00  0.00     0.074 C 
HETATM    7  C5  UNL     1      27.044   2.192  51.928  1.00  0.00     0.278 C 
HETATM    8  N2  UNL     1      25.651   1.836  51.755  1.00  0.00     0.097 N 
HETATM    9  C14 UNL     1      25.326   0.550  52.288  1.00  0.00     0.319 C 
HETATM   10  C15 UNL     1      28.628  -0.788  53.409  1.00  0.00     0.214 A 
HETATM   11  O2  UNL     1      29.757  -0.480  53.871  1.00  0.00    -0.285 OA
HETATM   12  H1  UNL     1      29.957  -3.149  53.674  1.00  0.00     0.188 HD
ENDROOT
BRANCH   8  13
HETATM   13  C6  UNL     1      24.742   2.841  52.273  1.00  0.00     0.307 C 
BRANCH  13  14
HETATM   14  P1  UNL     1      23.496   3.205  50.970  1.00  0.00    -0.077 P 
HETATM   15  H8  UNL     1      23.918   4.171  50.001  1.00  0.00     0.063 HD
BRANCH  14  16
HETATM   16  C7  UNL     1      22.763   1.714  50.225  1.00  0.00     0.003 C 
HETATM   17  C8  UNL     1      21.822   1.080  50.918  1.00  0.00    -0.007 C 
BRANCH  17  18
HETATM   18  C9  UNL     1      21.332   1.524  52.275  1.00  0.00     0.144 C 
BRANCH  18  19
HETATM   19  N3  UNL     1      21.339   0.346  53.092  1.00  0.00    -0.405 N 
HETATM   20  C10 UNL     1      20.079  -0.095  53.579  1.00  0.00     0.143 C 
HETATM   21  C11 UNL     1      20.265  -1.566  53.960  1.00  0.00     0.187 C 
HETATM   22  O1  UNL     1      21.243  -1.648  54.918  1.00  0.00    -0.388 OA
HETATM   23  C12 UNL     1      22.469  -1.170  54.516  1.00  0.00     0.187 C 
HETATM   24  C13 UNL     1      22.402   0.277  54.036  1.00  0.00     0.143 C 
ENDBRANCH  18  19
ENDBRANCH  17  18
ENDBRANCH  14  16
ENDBRANCH  13  14
ENDBRANCH   8  13
TORSDOF 5
ENDMDL
MODEL 2
REMARK VINA RESULT:      -6.7      3.408      5.656
REMARK  5 active torsions:
REMARK  status: ('A' for Active; 'I' for Inactive)
REMARK    1  A    between atoms: N2_8  and  C6_9 
REMARK    2  A    between atoms: C6_9  and  P1_10 
REMARK    3  A    between atoms: P1_10  and  C7_11 
REMARK    4  A    between atoms: C8_12  and  C9_13 
REMARK    5  A    between atoms: C9_13  and  N3_14 
ROOT
HETATM    1  N1  UNL     1      30.377   0.499  53.702  1.00  0.00    -0.289 NA
HETATM    2  C1  UNL     1      29.130   0.588  53.482  1.00  0.00     0.140 A 
HETATM    3  S1  UNL     1      28.169   2.089  53.281  1.00  0.00    -0.069 SA
HETATM    4  C2  UNL     1      26.589   1.238  53.023  1.00  0.00     0.023 A 
HETATM    5  C3  UNL     1      26.796  -0.060  53.086  1.00  0.00     0.011 A 
HETATM    6  C4  UNL     1      25.553  -0.848  52.886  1.00  0.00     0.074 C 
HETATM    7  C5  UNL     1      24.513  -0.240  53.807  1.00  0.00     0.278 C 
HETATM    8  N2  UNL     1      24.162   1.086  53.347  1.00  0.00     0.097 N 
HETATM    9  C14 UNL     1      25.264   1.799  52.780  1.00  0.00     0.319 C 
HETATM   10  C15 UNL     1      28.160  -0.493  53.334  1.00  0.00     0.214 A 
HETATM   11  O2  UNL     1      28.514  -1.697  53.421  1.00  0.00    -0.285 OA
HETATM   12  H1  UNL     1      30.841  -0.416  53.803  1.00  0.00     0.188 HD
ENDROOT
BRANCH   8  13
HETATM   13  C6  UNL     1      23.036   1.087  52.430  1.00  0.00     0.307 C 
BRANCH  13  14
HETATM   14  P1  UNL     1      23.043   2.686  51.523  1.00  0.00    -0.077 P 
HETATM   15  H8  UNL     1      23.970   3.652  52.032  1.00  0.00     0.063 HD
BRANCH  14  16
HETATM   16  C7  UNL     1      23.125   2.498  49.713  1.00  0.00     0.003 C 
HETATM   17  C8  UNL     1      23.460   3.568  48.999  1.00  0.00    -0.007 C 
BRANCH  17  18
HETATM   18  C9  UNL     1      23.775   4.917  49.600  1.00  0.00     0.144 C 
BRANCH  18  19
HETATM   19  N3  UNL     1      25.102   5.234  49.161  1.00  0.00    -0.405 N 
HETATM   20  C10 UNL     1      26.159   4.486  49.748  1.00  0.00     0.143 C 
HETATM   21  C11 UNL     1      27.353   4.627  48.801  1.00  0.00     0.187 C 
HETATM   22  O1  UNL     1      27.666   5.958  48.689  1.00  0.00    -0.388 OA
HETATM   23  C12 UNL     1      26.649   6.738  48.187  1.00  0.00     0.187 C 
HETATM   24  C13 UNL     1      25.368   6.624  49.007  1.00  0.00     0.143 C 
ENDBRANCH  18  19
ENDBRANCH  17  18
ENDBRANCH  14  16
ENDBRANCH  13  14
ENDBRANCH   8  13
TORSDOF 5
ENDMDL
MODEL 3
REMARK VINA RESULT:      -6.6      3.663      5.289
REMARK  5 active torsions:
REMARK  status: ('A' for Active; 'I' for Inactive)
REMARK    1  A    between atoms: N2_8  and  C6_9 
REMARK    2  A    between atoms: C6_9  and  P1_10 
REMARK    3  A    between atoms: P1_10  and  C7_11 
REMARK    4  A    between atoms: C8_12  and  C9_13 
REMARK    5  A    between atoms: C9_13  and  N3_14 
ROOT
HETATM    1  N1  UNL     1      30.127   0.693  53.731  1.00  0.00    -0.289 NA
HETATM    2  C1  UNL     1      28.884   0.693  53.479  1.00  0.00     0.140 A 
HETATM    3  S1  UNL     1      27.857   2.111  53.087  1.00  0.00    -0.069 SA
HETATM    4  C2  UNL     1      26.326   1.159  52.901  1.00  0.00     0.023 A 
HETATM    5  C3  UNL     1      26.593  -0.112  53.118  1.00  0.00     0.011 A 
HETATM    6  C4  UNL     1      25.394  -0.978  52.988  1.00  0.00     0.074 C 
HETATM    7  C5  UNL     1      24.305  -0.321  53.813  1.00  0.00     0.278 C 
HETATM    8  N2  UNL     1      23.902   0.924  53.195  1.00  0.00     0.097 N 
HETATM    9  C14 UNL     1      24.982   1.621  52.570  1.00  0.00     0.319 C 
HETATM   10  C15 UNL     1      27.970  -0.445  53.441  1.00  0.00     0.214 A 
HETATM   11  O2  UNL     1      28.378  -1.612  53.673  1.00  0.00    -0.285 OA
HETATM   12  H1  UNL     1      30.631  -0.181  53.946  1.00  0.00     0.188 HD
ENDROOT
BRANCH   8  13
HETATM   13  C6  UNL     1      22.800   0.763  52.264  1.00  0.00     0.307 C 
BRANCH  13  14
HETATM   14  P1  UNL     1      22.876   2.142  51.050  1.00  0.00    -0.077 P 
HETATM   15  H8  UNL     1      22.952   1.725  49.683  1.00  0.00     0.063 HD
BRANCH  14  16
HETATM   16  C7  UNL     1      21.626   3.435  51.336  1.00  0.00     0.003 C 
HETATM   17  C8  UNL     1      22.032   4.569  51.900  1.00  0.00    -0.007 C 
BRANCH  17  18
HETATM   18  C9  UNL     1      23.459   4.840  52.312  1.00  0.00     0.144 C 
BRANCH  18  19
HETATM   19  N3  UNL     1      23.927   5.865  51.425  1.00  0.00    -0.405 N 
HETATM   20  C10 UNL     1      22.946   6.761  50.918  1.00  0.00     0.143 C 
HETATM   21  C11 UNL     1      23.710   8.001  50.448  1.00  0.00     0.187 C 
HETATM   22  O1  UNL     1      24.608   7.621  49.483  1.00  0.00    -0.388 OA
HETATM   23  C12 UNL     1      25.539   6.702  49.908  1.00  0.00     0.187 C 
HETATM   24  C13 UNL     1      24.896   5.439  50.474  1.00  0.00     0.143 C 
ENDBRANCH  18  19
ENDBRANCH  17  18
ENDBRANCH  14  16
ENDBRANCH  13  14
ENDBRANCH   8  13
TORSDOF 5
ENDMDL
MODEL 4
REMARK VINA RESULT:      -6.5      4.105      6.628
REMARK  5 active torsions:
REMARK  status: ('A' for Active; 'I' for Inactive)
REMARK    1  A    between atoms: N2_8  and  C6_9 
REMARK    2  A    between atoms: C6_9  and  P1_10 
REMARK    3  A    between atoms: P1_10  and  C7_11 
REMARK    4  A    between atoms: C8_12  and  C9_13 
REMARK    5  A    between atoms: C9_13  and  N3_14 
ROOT
HETATM    1  N1  UNL     1      28.644   0.262  54.948  1.00  0.00    -0.289 NA
HETATM    2  C1  UNL     1      27.673   0.673  54.243  1.00  0.00     0.140 A 
HETATM    3  S1  UNL     1      27.671   2.059  53.103  1.00  0.00    -0.069 SA
HETATM    4  C2  UNL     1      25.938   1.862  52.608  1.00  0.00     0.023 A 
HETATM    5  C3  UNL     1      25.431   0.836  53.257  1.00  0.00     0.011 A 
HETATM    6  C4  UNL     1      24.005   0.592  52.917  1.00  0.00     0.074 C 
HETATM    7  C5  UNL     1      23.308   1.933  53.033  1.00  0.00     0.278 C 
HETATM    8  N2  UNL     1      23.767   2.821  51.986  1.00  0.00     0.097 N 
HETATM    9  C14 UNL     1      25.149   2.647  51.665  1.00  0.00     0.319 C 
HETATM   10  C15 UNL     1      26.318   0.135  54.170  1.00  0.00     0.214 A 
HETATM   11  O2  UNL     1      25.979  -0.862  54.858  1.00  0.00    -0.285 OA
HETATM   12  H1  UNL     1      28.545  -0.549  55.577  1.00  0.00     0.188 HD
ENDROOT
BRANCH   8  13
HETATM   13  C6  UNL     1      22.957   2.746  50.785  1.00  0.00     0.307 C 
BRANCH  13  14
HETATM   14  P1  UNL     1      24.018   3.204  49.355  1.00  0.00    -0.077 P 
HETATM   15  H8  UNL     1      24.207   2.156  48.398  1.00  0.00     0.063 HD
BRANCH  14  16
HETATM   16  C7  UNL     1      23.568   4.797  48.594  1.00  0.00     0.003 C 
HETATM   17  C8  UNL     1      24.276   5.866  48.945  1.00  0.00    -0.007 C 
BRANCH  17  18
HETATM   18  C9  UNL     1      25.421   5.833  49.928  1.00  0.00     0.144 C 
BRANCH  18  19
HETATM   19  N3  UNL     1      26.591   6.161  49.168  1.00  0.00    -0.405 N 
HETATM   20  C10 UNL     1      26.455   7.204  48.212  1.00  0.00     0.143 C 
HETATM   21  C11 UNL     1      27.875   7.697  47.920  1.00  0.00     0.187 C 
HETATM   22  O1  UNL     1      28.609   6.646  47.432  1.00  0.00    -0.388 OA
HETATM   23  C12 UNL     1      28.714   5.580  48.296  1.00  0.00     0.187 C 
HETATM   24  C13 UNL     1      27.352   5.042  48.727  1.00  0.00     0.143 C 
ENDBRANCH  18  19
ENDBRANCH  17  18
ENDBRANCH  14  16
ENDBRANCH  13  14
ENDBRANCH   8  13
TORSDOF 5
ENDMDL
MODEL 5
REMARK VINA RESULT:      -6.5      3.728      5.403
REMARK  5 active torsions:
REMARK  status: ('A' for Active; 'I' for Inactive)
REMARK    1  A    between atoms: N2_8  and  C6_9 
REMARK    2  A    between atoms: C6_9  and  P1_10 
REMARK    3  A    between atoms: P1_10  and  C7_11 
REMARK    4  A    between atoms: C8_12  and  C9_13 
REMARK    5  A    between atoms: C9_13  and  N3_14 
ROOT
HETATM    1  N1  UNL     1      28.055   0.926  54.673  1.00  0.00    -0.289 NA
HETATM    2  C1  UNL     1      26.934   0.857  54.084  1.00  0.00     0.140 A 
HETATM    3  S1  UNL     1      26.364   1.867  52.715  1.00  0.00    -0.069 SA
HETATM    4  C2  UNL     1      24.745   1.063  52.581  1.00  0.00     0.023 A 
HETATM    5  C3  UNL     1      24.667   0.121  53.497  1.00  0.00     0.011 A 
HETATM    6  C4  UNL     1      23.368  -0.599  53.467  1.00  0.00     0.074 C 
HETATM    7  C5  UNL     1      22.293   0.469  53.442  1.00  0.00     0.278 C 
HETATM    8  N2  UNL     1      22.328   1.174  52.178  1.00  0.00     0.097 N 
HETATM    9  C14 UNL     1      23.649   1.337  51.658  1.00  0.00     0.319 C 
HETATM   10  C15 UNL     1      25.825  -0.052  54.357  1.00  0.00     0.214 A 
HETATM   11  O2  UNL     1      25.900  -0.909  55.275  1.00  0.00    -0.285 OA
HETATM   12  H1  UNL     1      28.291   0.297  55.455  1.00  0.00     0.188 HD
ENDROOT
BRANCH   8  13
HETATM   13  C6  UNL     1      21.461   0.582  51.176  1.00  0.00     0.307 C 
BRANCH  13  14
HETATM   14  P1  UNL     1      20.041   1.720  50.909  1.00  0.00    -0.077 P 
HETATM   15  H8  UNL     1      18.767   1.072  50.838  1.00  0.00     0.063 HD
BRANCH  14  16
HETATM   16  C7  UNL     1      20.049   3.168  52.014  1.00  0.00     0.003 C 
HETATM   17  C8  UNL     1      20.718   4.244  51.612  1.00  0.00    -0.007 C 
BRANCH  17  18
HETATM   18  C9  UNL     1      21.464   4.332  50.302  1.00  0.00     0.144 C 
BRANCH  18  19
HETATM   19  N3  UNL     1      22.385   5.419  50.455  1.00  0.00    -0.405 N 
HETATM   20  C10 UNL     1      23.601   5.130  51.130  1.00  0.00     0.143 C 
HETATM   21  C11 UNL     1      24.580   6.238  50.732  1.00  0.00     0.187 C 
HETATM   22  O1  UNL     1      24.053   7.444  51.118  1.00  0.00    -0.388 OA
HETATM   23  C12 UNL     1      22.839   7.741  50.540  1.00  0.00     0.187 C 
HETATM   24  C13 UNL     1      21.790   6.665  50.803  1.00  0.00     0.143 C 
ENDBRANCH  18  19
ENDBRANCH  17  18
ENDBRANCH  14  16
ENDBRANCH  13  14
ENDBRANCH   8  13
TORSDOF 5
ENDMDL
MODEL 6
REMARK VINA RESULT:      -6.5      3.369      5.588
REMARK  5 active torsions:
REMARK  status: ('A' for Active; 'I' for Inactive)
REMARK    1  A    between atoms: N2_8  and  C6_9 
REMARK    2  A    between atoms: C6_9  and  P1_10 
REMARK    3  A    between atoms: P1_10  and  C7_11 
REMARK    4  A    between atoms: C8_12  and  C9_13 
REMARK    5  A    between atoms: C9_13  and  N3_14 
ROOT
HETATM    1  N1  UNL     1      27.510   0.514  55.001  1.00  0.00    -0.289 NA
HETATM    2  C1  UNL     1      26.430   0.484  54.337  1.00  0.00     0.140 A 
HETATM    3  S1  UNL     1      25.974   1.539  52.959  1.00  0.00    -0.069 SA
HETATM    4  C2  UNL     1      24.350   0.777  52.698  1.00  0.00     0.023 A 
HETATM    5  C3  UNL     1      24.192  -0.185  53.582  1.00  0.00     0.011 A 
HETATM    6  C4  UNL     1      22.882  -0.874  53.449  1.00  0.00     0.074 C 
HETATM    7  C5  UNL     1      21.834   0.219  53.379  1.00  0.00     0.278 C 
HETATM    8  N2  UNL     1      21.968   0.952  52.139  1.00  0.00     0.097 N 
HETATM    9  C14 UNL     1      23.325   1.097  51.711  1.00  0.00     0.319 C 
HETATM   10  C15 UNL     1      25.285  -0.405  54.513  1.00  0.00     0.214 A 
HETATM   11  O2  UNL     1      25.281  -1.285  55.412  1.00  0.00    -0.285 OA
HETATM   12  H1  UNL     1      27.680  -0.139  55.781  1.00  0.00     0.188 HD
ENDROOT
BRANCH   8  13
HETATM   13  C6  UNL     1      21.158   0.404  51.067  1.00  0.00     0.307 C 
BRANCH  13  14
HETATM   14  P1  UNL     1      20.869   1.737  49.834  1.00  0.00    -0.077 P 
HETATM   15  H8  UNL     1      20.783   3.052  50.393  1.00  0.00     0.063 HD
BRANCH  14  16
HETATM   16  C7  UNL     1      21.972   1.644  48.387  1.00  0.00     0.003 C 
HETATM   17  C8  UNL     1      22.556   2.769  47.987  1.00  0.00    -0.007 C 
BRANCH  17  18
HETATM   18  C9  UNL     1      22.360   4.106  48.659  1.00  0.00     0.144 C 
BRANCH  18  19
HETATM   19  N3  UNL     1      23.679   4.613  48.900  1.00  0.00    -0.405 N 
HETATM   20  C10 UNL     1      24.327   4.159  50.080  1.00  0.00     0.143 C 
HETATM   21  C11 UNL     1      25.822   4.407  49.863  1.00  0.00     0.187 C 
HETATM   22  O1  UNL     1      26.015   5.749  49.655  1.00  0.00    -0.388 OA
HETATM   23  C12 UNL     1      25.352   6.253  48.560  1.00  0.00     0.187 C 
HETATM   24  C13 UNL     1      23.848   5.998  48.621  1.00  0.00     0.143 C 
ENDBRANCH  18  19
ENDBRANCH  17  18
ENDBRANCH  14  16
ENDBRANCH  13  14
ENDBRANCH   8  13
TORSDOF 5
ENDMDL
MODEL 7
REMARK VINA RESULT:      -6.3      2.927      4.747
REMARK  5 active torsions:
REMARK  status: ('A' for Active; 'I' for Inactive)
REMARK    1  A    between atoms: N2_8  and  C6_9 
REMARK    2  A    between atoms: C6_9  and  P1_10 
REMARK    3  A    between atoms: P1_10  and  C7_11 
REMARK    4  A    between atoms: C8_12  and  C9_13 
REMARK    5  A    between atoms: C9_13  and  N3_14 
ROOT
HETATM    1  N1  UNL     1      29.541  -1.243  53.619  1.00  0.00    -0.289 NA
HETATM    2  C1  UNL     1      28.389  -0.726  53.510  1.00  0.00     0.140 A 
HETATM    3  S1  UNL     1      26.927  -1.475  52.787  1.00  0.00    -0.069 SA
HETATM    4  C2  UNL     1      25.850  -0.047  53.078  1.00  0.00     0.023 A 
HETATM    5  C3  UNL     1      26.553   0.896  53.668  1.00  0.00     0.011 A 
HETATM    6  C4  UNL     1      25.752   2.115  53.949  1.00  0.00     0.074 C 
HETATM    7  C5  UNL     1      25.033   2.456  52.659  1.00  0.00     0.278 C 
HETATM    8  N2  UNL     1      24.038   1.447  52.367  1.00  0.00     0.097 N 
HETATM    9  C14 UNL     1      24.438   0.130  52.753  1.00  0.00     0.319 C 
HETATM   10  C15 UNL     1      27.949   0.599  53.937  1.00  0.00     0.214 A 
HETATM   11  O2  UNL     1      28.746   1.398  54.495  1.00  0.00    -0.285 OA
HETATM   12  H1  UNL     1      30.323  -0.728  54.053  1.00  0.00     0.188 HD
ENDROOT
BRANCH   8  13
HETATM   13  C6  UNL     1      22.735   1.760  52.924  1.00  0.00     0.307 C 
BRANCH  13  14
HETATM   14  P1  UNL     1      21.503   1.691  51.560  1.00  0.00    -0.077 P 
HETATM   15  H8  UNL     1      20.432   2.633  51.681  1.00  0.00     0.063 HD
BRANCH  14  16
HETATM   16  C7  UNL     1      22.253   1.667  49.900  1.00  0.00     0.003 C 
HETATM   17  C8  UNL     1      22.638   2.830  49.383  1.00  0.00    -0.007 C 
BRANCH  17  18
HETATM   18  C9  UNL     1      22.491   4.156  50.090  1.00  0.00     0.144 C 
BRANCH  18  19
HETATM   19  N3  UNL     1      23.781   4.776  50.017  1.00  0.00    -0.405 N 
HETATM   20  C10 UNL     1      23.798   6.193  49.900  1.00  0.00     0.143 C 
HETATM   21  C11 UNL     1      25.195   6.636  50.343  1.00  0.00     0.187 C 
HETATM   22  O1  UNL     1      26.121   6.042  49.524  1.00  0.00    -0.388 OA
HETATM   23  C12 UNL     1      26.099   4.666  49.551  1.00  0.00     0.187 C 
HETATM   24  C13 UNL     1      24.727   4.098  49.199  1.00  0.00     0.143 C 
ENDBRANCH  18  19
ENDBRANCH  17  18
ENDBRANCH  14  16
ENDBRANCH  13  14
ENDBRANCH   8  13
TORSDOF 5
ENDMDL
MODEL 8
REMARK VINA RESULT:      -6.3      2.868      4.302
REMARK  5 active torsions:
REMARK  status: ('A' for Active; 'I' for Inactive)
REMARK    1  A    between atoms: N2_8  and  C6_9 
REMARK    2  A    between atoms: C6_9  and  P1_10 
REMARK    3  A    between atoms: P1_10  and  C7_11 
REMARK    4  A    between atoms: C8_12  and  C9_13 
REMARK    5  A    between atoms: C9_13  and  N3_14 
ROOT
HETATM    1  N1  UNL     1      29.351   1.888  53.252  1.00  0.00    -0.289 NA
HETATM    2  C1  UNL     1      28.168   1.435  53.192  1.00  0.00     0.140 A 
HETATM    3  S1  UNL     1      26.765   2.173  52.350  1.00  0.00    -0.069 SA
HETATM    4  C2  UNL     1      25.594   0.868  52.808  1.00  0.00     0.023 A 
HETATM    5  C3  UNL     1      26.228  -0.032  53.529  1.00  0.00     0.011 A 
HETATM    6  C4  UNL     1      25.347  -1.149  53.956  1.00  0.00     0.074 C 
HETATM    7  C5  UNL     1      24.103  -0.507  54.539  1.00  0.00     0.278 C 
HETATM    8  N2  UNL     1      23.350   0.149  53.491  1.00  0.00     0.097 N 
HETATM    9  C14 UNL     1      24.176   0.741  52.486  1.00  0.00     0.319 C 
HETATM   10  C15 UNL     1      27.639   0.209  53.782  1.00  0.00     0.214 A 
HETATM   11  O2  UNL     1      28.377  -0.559  54.452  1.00  0.00    -0.285 OA
HETATM   12  H1  UNL     1      30.093   1.386  53.764  1.00  0.00     0.188 HD
ENDROOT
BRANCH   8  13
HETATM   13  C6  UNL     1      22.357  -0.716  52.882  1.00  0.00     0.307 C 
BRANCH  13  14
HETATM   14  P1  UNL     1      20.703  -0.214  53.512  1.00  0.00    -0.077 P 
HETATM   15  H8  UNL     1      20.735   0.831  54.490  1.00  0.00     0.063 HD
BRANCH  14  16
HETATM   16  C7  UNL     1      19.477   0.072  52.196  1.00  0.00     0.003 C 
HETATM   17  C8  UNL     1      19.608   1.174  51.464  1.00  0.00    -0.007 C 
BRANCH  17  18
HETATM   18  C9  UNL     1      20.707   2.191  51.660  1.00  0.00     0.144 C 
BRANCH  18  19
HETATM   19  N3  UNL     1      21.306   2.364  50.370  1.00  0.00    -0.405 N 
HETATM   20  C10 UNL     1      21.747   1.184  49.711  1.00  0.00     0.143 C 
HETATM   21  C11 UNL     1      21.861   1.545  48.228  1.00  0.00     0.187 C 
HETATM   22  O1  UNL     1      22.761   2.573  48.098  1.00  0.00    -0.388 OA
HETATM   23  C12 UNL     1      22.411   3.719  48.774  1.00  0.00     0.187 C 
HETATM   24  C13 UNL     1      22.192   3.473  50.264  1.00  0.00     0.143 C 
ENDBRANCH  18  19
ENDBRANCH  17  18
ENDBRANCH  14  16
ENDBRANCH  13  14
ENDBRANCH   8  13
TORSDOF 5
ENDMDL
MODEL 9
REMARK VINA RESULT:      -6.2      4.809      6.662
REMARK  5 active torsions:
REMARK  status: ('A' for Active; 'I' for Inactive)
REMARK    1  A    between atoms: N2_8  and  C6_9 
REMARK    2  A    between atoms: C6_9  and  P1_10 
REMARK    3  A    between atoms: P1_10  and  C7_11 
REMARK    4  A    between atoms: C8_12  and  C9_13 
REMARK    5  A    between atoms: C9_13  and  N3_14 
ROOT
HETATM    1  N1  UNL     1      30.447   7.635  47.277  1.00  0.00    -0.289 NA
HETATM    2  C1  UNL     1      29.322   7.162  47.623  1.00  0.00     0.140 A 
HETATM    3  S1  UNL     1      27.738   8.004  47.598  1.00  0.00    -0.069 SA
HETATM    4  C2  UNL     1      26.792   6.593  48.231  1.00  0.00     0.023 A 
HETATM    5  C3  UNL     1      27.620   5.590  48.434  1.00  0.00     0.011 A 
HETATM    6  C4  UNL     1      26.935   4.380  48.957  1.00  0.00     0.074 C 
HETATM    7  C5  UNL     1      26.075   4.847  50.114  1.00  0.00     0.278 C 
HETATM    8  N2  UNL     1      24.993   5.673  49.623  1.00  0.00     0.097 N 
HETATM    9  C14 UNL     1      25.363   6.483  48.505  1.00  0.00     0.319 C 
HETATM   10  C15 UNL     1      29.020   5.824  48.124  1.00  0.00     0.214 A 
HETATM   11  O2  UNL     1      29.927   4.965  48.265  1.00  0.00    -0.285 OA
HETATM   12  H1  UNL     1      31.306   7.068  47.328  1.00  0.00     0.188 HD
ENDROOT
BRANCH   8  13
HETATM   13  C6  UNL     1      23.794   4.914  49.320  1.00  0.00     0.307 C 
BRANCH  13  14
HETATM   14  P1  UNL     1      23.196   4.150  50.883  1.00  0.00    -0.077 P 
HETATM   15  H8  UNL     1      22.060   4.800  51.462  1.00  0.00     0.063 HD
BRANCH  14  16
HETATM   16  C7  UNL     1      23.016   2.340  50.788  1.00  0.00     0.003 C 
HETATM   17  C8  UNL     1      23.975   1.598  51.333  1.00  0.00    -0.007 C 
BRANCH  17  18
HETATM   18  C9  UNL     1      25.192   2.167  52.020  1.00  0.00     0.144 C 
BRANCH  18  19
HETATM   19  N3  UNL     1      25.764   1.078  52.756  1.00  0.00    -0.405 N 
HETATM   20  C10 UNL     1      26.170   1.357  54.090  1.00  0.00     0.143 C 
HETATM   21  C11 UNL     1      26.255   0.002  54.798  1.00  0.00     0.187 C 
HETATM   22  O1  UNL     1      27.167  -0.779  54.136  1.00  0.00    -0.388 OA
HETATM   23  C12 UNL     1      26.852  -1.024  52.819  1.00  0.00     0.187 C 
HETATM   24  C13 UNL     1      26.664   0.261  52.016  1.00  0.00     0.143 C 
ENDBRANCH  18  19
ENDBRANCH  17  18
ENDBRANCH  14  16
ENDBRANCH  13  14
ENDBRANCH   8  13
TORSDOF 5
ENDMDL
