MODEL 1
REMARK VINA RESULT:      -6.9      0.000      0.000
REMARK  12 active torsions:
REMARK  status: ('A' for Active; 'I' for Inactive)
REMARK    1  A    between atoms: N1_2  and  C3_4 
REMARK    2  A    between atoms: C3_4  and  C4_5 
REMARK    3  A    between atoms: C4_5  and  C5_6 
REMARK    4  A    between atoms: C4_5  and  O2_22 
REMARK    5  A    between atoms: C5_6  and  C6_7 
REMARK    6  A    between atoms: C6_7  and  C7_8 
REMARK    7  A    between atoms: C9_10  and  O1_11 
REMARK    8  A    between atoms: O1_11  and  C10_12 
REMARK    9  A    between atoms: C10_12  and  C11_13 
REMARK   10  A    between atoms: C11_13  and  C12_14 
REMARK   11  A    between atoms: O2_22  and  C19_23 
REMARK   12  A    between atoms: C19_23  and  N3_24 
ROOT
HETATM    1  C7  UNL     1      22.755  -0.386  54.028  1.00  0.00    -0.074 A 
HETATM    2  C8  UNL     1      22.372   0.742  53.441  1.00  0.00     0.039 A 
HETATM    3  C9  UNL     1      20.908   0.899  53.324  1.00  0.00     0.065 A 
HETATM    4  C17 UNL     1      20.446  -0.207  53.878  1.00  0.00     0.014 A 
HETATM    5  C18 UNL     1      21.512  -1.106  54.365  1.00  0.00     0.064 A 
ENDROOT
BRANCH   1   6
HETATM    6  C6  UNL     1      24.180  -0.770  54.260  1.00  0.00     0.037 C 
BRANCH   6   7
HETATM    7  C5  UNL     1      25.123   0.197  53.597  1.00  0.00     0.038 C 
BRANCH   7   8
HETATM    8  C4  UNL     1      26.540  -0.262  53.778  1.00  0.00     0.152 C 
BRANCH   8   9
HETATM    9  C3  UNL     1      27.435   0.414  52.785  1.00  0.00     0.303 C 
BRANCH   9  10
HETATM   10  N1  UNL     1      28.624   0.961  53.478  1.00  0.00     0.082 N 
HETATM   11  C1  UNL     1      28.594   0.461  54.840  1.00  0.00     0.309 C 
HETATM   12  C2  UNL     1      28.442   2.408  53.531  1.00  0.00     0.309 C 
ENDBRANCH   9  10
ENDBRANCH   8   9
BRANCH   8  13
HETATM   13  O2  UNL     1      26.543  -1.648  53.641  1.00  0.00    -0.361 OA
BRANCH  13  14
HETATM   14  C19 UNL     1      27.083  -2.114  52.471  1.00  0.00     0.350 C 
BRANCH  14  15
HETATM   15  N3  UNL     1      28.127  -3.054  52.854  1.00  0.00    -0.115 NA
HETATM   16  O3  UNL     1      29.128  -2.698  53.419  1.00  0.00    -0.065 OA
ENDBRANCH  14  15
ENDBRANCH  13  14
ENDBRANCH   8  13
ENDBRANCH   7   8
ENDBRANCH   6   7
ENDBRANCH   1   6
BRANCH   3  17
HETATM   17  O1  UNL     1      20.306   2.004  52.742  1.00  0.00    -0.351 OA
BRANCH  17  18
HETATM   18  C10 UNL     1      20.701   2.460  51.482  1.00  0.00     0.180 C 
BRANCH  18  19
HETATM   19  C11 UNL     1      21.448   3.756  51.625  1.00  0.00     0.062 C 
BRANCH  19  20
HETATM   20  C12 UNL     1      22.886   3.618  51.264  1.00  0.00    -0.060 A 
HETATM   21  C13 UNL     1      23.160   3.362  49.997  1.00  0.00     0.006 A 
HETATM   22  C14 UNL     1      24.599   3.235  49.698  1.00  0.00     0.017 A 
HETATM   23  C15 UNL     1      25.550   3.364  50.608  1.00  0.00     0.083 A 
HETATM   24  N2  UNL     1      25.179   3.640  51.952  1.00  0.00    -0.395 N 
HETATM   25  C16 UNL     1      23.814   3.794  52.411  1.00  0.00     0.153 A 
HETATM   26  H22 UNL     1      25.918   3.745  52.684  1.00  0.00     0.159 HD
ENDBRANCH  19  20
ENDBRANCH  18  19
ENDBRANCH  17  18
ENDBRANCH   3  17
TORSDOF 12
ENDMDL
MODEL 2
REMARK VINA RESULT:      -6.7      5.371      7.971
REMARK  12 active torsions:
REMARK  status: ('A' for Active; 'I' for Inactive)
REMARK    1  A    between atoms: N1_2  and  C3_4 
REMARK    2  A    between atoms: C3_4  and  C4_5 
REMARK    3  A    between atoms: C4_5  and  C5_6 
REMARK    4  A    between atoms: C4_5  and  O2_22 
REMARK    5  A    between atoms: C5_6  and  C6_7 
REMARK    6  A    between atoms: C6_7  and  C7_8 
REMARK    7  A    between atoms: C9_10  and  O1_11 
REMARK    8  A    between atoms: O1_11  and  C10_12 
REMARK    9  A    between atoms: C10_12  and  C11_13 
REMARK   10  A    between atoms: C11_13  and  C12_14 
REMARK   11  A    between atoms: O2_22  and  C19_23 
REMARK   12  A    between atoms: C19_23  and  N3_24 
ROOT
HETATM    1  C7  UNL     1      26.792   4.531  49.140  1.00  0.00    -0.074 A 
HETATM    2  C8  UNL     1      27.922   4.896  48.546  1.00  0.00     0.039 A 
HETATM    3  C9  UNL     1      28.002   6.336  48.226  1.00  0.00     0.065 A 
HETATM    4  C17 UNL     1      26.848   6.802  48.669  1.00  0.00     0.014 A 
HETATM    5  C18 UNL     1      25.990   5.762  49.271  1.00  0.00     0.064 A 
ENDROOT
BRANCH   1   6
HETATM    6  C6  UNL     1      26.479   3.132  49.560  1.00  0.00     0.037 C 
BRANCH   6   7
HETATM    7  C5  UNL     1      25.791   3.102  50.898  1.00  0.00     0.038 C 
BRANCH   7   8
HETATM    8  C4  UNL     1      26.332   1.976  51.728  1.00  0.00     0.152 C 
BRANCH   8   9
HETATM    9  C3  UNL     1      25.415   1.694  52.879  1.00  0.00     0.303 C 
BRANCH   9  10
HETATM   10  N1  UNL     1      24.641   0.461  52.608  1.00  0.00     0.082 N 
HETATM   11  C1  UNL     1      23.242   0.774  52.838  1.00  0.00     0.309 C 
HETATM   12  C2  UNL     1      25.050  -0.514  53.614  1.00  0.00     0.309 C 
ENDBRANCH   9  10
ENDBRANCH   8   9
BRANCH   8  13
HETATM   13  O2  UNL     1      27.609   2.347  52.143  1.00  0.00    -0.361 OA
BRANCH  13  14
HETATM   14  C19 UNL     1      28.111   1.622  53.191  1.00  0.00     0.350 C 
BRANCH  14  15
HETATM   15  N3  UNL     1      28.644   2.594  54.136  1.00  0.00    -0.115 NA
HETATM   16  O3  UNL     1      29.551   2.326  54.880  1.00  0.00    -0.065 OA
ENDBRANCH  14  15
ENDBRANCH  13  14
ENDBRANCH   8  13
ENDBRANCH   7   8
ENDBRANCH   6   7
ENDBRANCH   1   6
BRANCH   3  17
HETATM   17  O1  UNL     1      29.097   6.917  47.604  1.00  0.00    -0.351 OA
BRANCH  17  18
HETATM   18  C10 UNL     1      30.098   7.546  48.348  1.00  0.00     0.180 C 
BRANCH  18  19
HETATM   19  C11 UNL     1      31.376   7.566  47.559  1.00  0.00     0.062 C 
BRANCH  19  20
HETATM   20  C12 UNL     1      31.989   6.213  47.447  1.00  0.00    -0.060 A 
HETATM   21  C13 UNL     1      32.325   5.811  46.234  1.00  0.00     0.006 A 
HETATM   22  C14 UNL     1      32.926   4.465  46.184  1.00  0.00     0.017 A 
HETATM   23  C15 UNL     1      33.119   3.708  47.252  1.00  0.00     0.083 A 
HETATM   24  N2  UNL     1      32.732   4.208  48.525  1.00  0.00    -0.395 N 
HETATM   25  C16 UNL     1      32.130   5.507  48.746  1.00  0.00     0.153 A 
HETATM   26  H22 UNL     1      32.877   3.624  49.378  1.00  0.00     0.159 HD
ENDBRANCH  19  20
ENDBRANCH  18  19
ENDBRANCH  17  18
ENDBRANCH   3  17
TORSDOF 12
ENDMDL
MODEL 3
REMARK VINA RESULT:      -6.6      1.766      2.242
REMARK  12 active torsions:
REMARK  status: ('A' for Active; 'I' for Inactive)
REMARK    1  A    between atoms: N1_2  and  C3_4 
REMARK    2  A    between atoms: C3_4  and  C4_5 
REMARK    3  A    between atoms: C4_5  and  C5_6 
REMARK    4  A    between atoms: C4_5  and  O2_22 
REMARK    5  A    between atoms: C5_6  and  C6_7 
REMARK    6  A    between atoms: C6_7  and  C7_8 
REMARK    7  A    between atoms: C9_10  and  O1_11 
REMARK    8  A    between atoms: O1_11  and  C10_12 
REMARK    9  A    between atoms: C10_12  and  C11_13 
REMARK   10  A    between atoms: C11_13  and  C12_14 
REMARK   11  A    between atoms: O2_22  and  C19_23 
REMARK   12  A    between atoms: C19_23  and  N3_24 
ROOT
HETATM    1  C7  UNL     1      22.938  -0.366  53.756  1.00  0.00    -0.074 A 
HETATM    2  C8  UNL     1      22.462   0.555  52.926  1.00  0.00     0.039 A 
HETATM    3  C9  UNL     1      21.087   0.997  53.234  1.00  0.00     0.065 A 
HETATM    4  C17 UNL     1      20.777   0.282  54.300  1.00  0.00     0.014 A 
HETATM    5  C18 UNL     1      21.862  -0.621  54.734  1.00  0.00     0.064 A 
ENDROOT
BRANCH   1   6
HETATM    6  C6  UNL     1      24.301  -0.968  53.650  1.00  0.00     0.037 C 
BRANCH   6   7
HETATM    7  C5  UNL     1      25.138  -0.646  54.858  1.00  0.00     0.038 C 
BRANCH   7   8
HETATM    8  C4  UNL     1      26.271   0.259  54.470  1.00  0.00     0.152 C 
BRANCH   8   9
HETATM    9  C3  UNL     1      26.372   0.353  52.979  1.00  0.00     0.303 C 
BRANCH   9  10
HETATM   10  N1  UNL     1      26.304   1.773  52.563  1.00  0.00     0.082 N 
HETATM   11  C1  UNL     1      25.602   2.492  53.610  1.00  0.00     0.309 C 
HETATM   12  C2  UNL     1      25.476   1.814  51.363  1.00  0.00     0.309 C 
ENDBRANCH   9  10
ENDBRANCH   8   9
BRANCH   8  13
HETATM   13  O2  UNL     1      27.427  -0.257  55.051  1.00  0.00    -0.361 OA
BRANCH  13  14
HETATM   14  C19 UNL     1      28.598   0.135  54.458  1.00  0.00     0.350 C 
BRANCH  14  15
HETATM   15  N3  UNL     1      28.983   1.380  55.109  1.00  0.00    -0.115 NA
HETATM   16  O3  UNL     1      29.122   2.403  54.492  1.00  0.00    -0.065 OA
ENDBRANCH  14  15
ENDBRANCH  13  14
ENDBRANCH   8  13
ENDBRANCH   7   8
ENDBRANCH   6   7
ENDBRANCH   1   6
BRANCH   3  17
HETATM   17  O1  UNL     1      20.410   1.949  52.488  1.00  0.00    -0.351 OA
BRANCH  17  18
HETATM   18  C10 UNL     1      20.931   3.235  52.316  1.00  0.00     0.180 C 
BRANCH  18  19
HETATM   19  C11 UNL     1      21.216   3.474  50.861  1.00  0.00     0.062 C 
BRANCH  19  20
HETATM   20  C12 UNL     1      22.543   4.114  50.645  1.00  0.00    -0.060 A 
HETATM   21  C13 UNL     1      23.031   4.071  49.418  1.00  0.00     0.006 A 
HETATM   22  C14 UNL     1      24.347   4.719  49.264  1.00  0.00     0.017 A 
HETATM   23  C15 UNL     1      25.000   5.299  50.258  1.00  0.00     0.083 A 
HETATM   24  N2  UNL     1      24.411   5.305  51.552  1.00  0.00    -0.395 N 
HETATM   25  C16 UNL     1      23.127   4.715  51.871  1.00  0.00     0.153 A 
HETATM   26  H22 UNL     1      24.912   5.759  52.348  1.00  0.00     0.159 HD
ENDBRANCH  19  20
ENDBRANCH  18  19
ENDBRANCH  17  18
ENDBRANCH   3  17
TORSDOF 12
ENDMDL
MODEL 4
REMARK VINA RESULT:      -6.6      5.341      8.054
REMARK  12 active torsions:
REMARK  status: ('A' for Active; 'I' for Inactive)
REMARK    1  A    between atoms: N1_2  and  C3_4 
REMARK    2  A    between atoms: C3_4  and  C4_5 
REMARK    3  A    between atoms: C4_5  and  C5_6 
REMARK    4  A    between atoms: C4_5  and  O2_22 
REMARK    5  A    between atoms: C5_6  and  C6_7 
REMARK    6  A    between atoms: C6_7  and  C7_8 
REMARK    7  A    between atoms: C9_10  and  O1_11 
REMARK    8  A    between atoms: O1_11  and  C10_12 
REMARK    9  A    between atoms: C10_12  and  C11_13 
REMARK   10  A    between atoms: C11_13  and  C12_14 
REMARK   11  A    between atoms: O2_22  and  C19_23 
REMARK   12  A    between atoms: C19_23  and  N3_24 
ROOT
HETATM    1  C7  UNL     1      27.152   4.790  48.950  1.00  0.00    -0.074 A 
HETATM    2  C8  UNL     1      26.787   3.647  49.520  1.00  0.00     0.039 A 
HETATM    3  C9  UNL     1      25.438   3.672  50.119  1.00  0.00     0.065 A 
HETATM    4  C17 UNL     1      25.025   4.901  49.869  1.00  0.00     0.014 A 
HETATM    5  C18 UNL     1      26.016   5.712  49.134  1.00  0.00     0.064 A 
ENDROOT
BRANCH   1   6
HETATM    6  C6  UNL     1      28.469   5.011  48.279  1.00  0.00     0.037 C 
BRANCH   6   7
HETATM    7  C5  UNL     1      28.766   6.478  48.124  1.00  0.00     0.038 C 
BRANCH   7   8
HETATM    8  C4  UNL     1      30.171   6.765  48.567  1.00  0.00     0.152 C 
BRANCH   8   9
HETATM    9  C3  UNL     1      30.946   7.396  47.451  1.00  0.00     0.303 C 
BRANCH   9  10
HETATM   10  N1  UNL     1      31.059   8.854  47.686  1.00  0.00     0.082 N 
HETATM   11  C1  UNL     1      32.319   9.285  47.108  1.00  0.00     0.309 C 
HETATM   12  C2  UNL     1      31.148   9.035  49.131  1.00  0.00     0.309 C 
ENDBRANCH   9  10
ENDBRANCH   8   9
BRANCH   8  13
HETATM   13  O2  UNL     1      30.726   5.558  48.985  1.00  0.00    -0.361 OA
BRANCH  13  14
HETATM   14  C19 UNL     1      32.064   5.417  48.730  1.00  0.00     0.350 C 
BRANCH  14  15
HETATM   15  N3  UNL     1      32.219   4.113  48.099  1.00  0.00    -0.115 NA
HETATM   16  O3  UNL     1      31.692   3.848  47.051  1.00  0.00    -0.065 OA
ENDBRANCH  14  15
ENDBRANCH  13  14
ENDBRANCH   8  13
ENDBRANCH   7   8
ENDBRANCH   6   7
ENDBRANCH   1   6
BRANCH   3  17
HETATM   17  O1  UNL     1      24.872   2.581  50.762  1.00  0.00    -0.351 OA
BRANCH  17  18
HETATM   18  C10 UNL     1      25.278   2.212  52.047  1.00  0.00     0.180 C 
BRANCH  18  19
HETATM   19  C11 UNL     1      25.721   0.777  52.043  1.00  0.00     0.062 C 
BRANCH  19  20
HETATM   20  C12 UNL     1      27.076   0.605  52.635  1.00  0.00    -0.060 A 
HETATM   21  C13 UNL     1      27.461  -0.633  52.890  1.00  0.00     0.006 A 
HETATM   22  C14 UNL     1      28.810  -0.743  53.476  1.00  0.00     0.017 A 
HETATM   23  C15 UNL     1      29.585   0.298  53.732  1.00  0.00     0.083 A 
HETATM   24  N2  UNL     1      29.103   1.601  53.431  1.00  0.00    -0.395 N 
HETATM   25  C16 UNL     1      27.804   1.880  52.853  1.00  0.00     0.153 A 
HETATM   26  H22 UNL     1      29.701   2.434  53.626  1.00  0.00     0.159 HD
ENDBRANCH  19  20
ENDBRANCH  18  19
ENDBRANCH  17  18
ENDBRANCH   3  17
TORSDOF 12
ENDMDL
MODEL 5
REMARK VINA RESULT:      -6.6      2.430      7.297
REMARK  12 active torsions:
REMARK  status: ('A' for Active; 'I' for Inactive)
REMARK    1  A    between atoms: N1_2  and  C3_4 
REMARK    2  A    between atoms: C3_4  and  C4_5 
REMARK    3  A    between atoms: C4_5  and  C5_6 
REMARK    4  A    between atoms: C4_5  and  O2_22 
REMARK    5  A    between atoms: C5_6  and  C6_7 
REMARK    6  A    between atoms: C6_7  and  C7_8 
REMARK    7  A    between atoms: C9_10  and  O1_11 
REMARK    8  A    between atoms: O1_11  and  C10_12 
REMARK    9  A    between atoms: C10_12  and  C11_13 
REMARK   10  A    between atoms: C11_13  and  C12_14 
REMARK   11  A    between atoms: O2_22  and  C19_23 
REMARK   12  A    between atoms: C19_23  and  N3_24 
ROOT
HETATM    1  C7  UNL     1      21.258  -0.106  52.851  1.00  0.00    -0.074 A 
HETATM    2  C8  UNL     1      22.563   0.127  52.928  1.00  0.00     0.039 A 
HETATM    3  C9  UNL     1      23.255  -0.642  53.982  1.00  0.00     0.065 A 
HETATM    4  C17 UNL     1      22.279  -1.346  54.525  1.00  0.00     0.014 A 
HETATM    5  C18 UNL     1      20.963  -1.099  53.901  1.00  0.00     0.064 A 
ENDROOT
BRANCH   1   6
HETATM    6  C6  UNL     1      20.345   0.551  51.867  1.00  0.00     0.037 C 
BRANCH   6   7
HETATM    7  C5  UNL     1      19.652   1.742  52.473  1.00  0.00     0.038 C 
BRANCH   7   8
HETATM    8  C4  UNL     1      20.045   2.991  51.740  1.00  0.00     0.152 C 
BRANCH   8   9
HETATM    9  C3  UNL     1      21.337   3.523  52.279  1.00  0.00     0.303 C 
BRANCH   9  10
HETATM   10  N1  UNL     1      22.367   3.504  51.215  1.00  0.00     0.082 N 
HETATM   11  C1  UNL     1      23.654   3.683  51.860  1.00  0.00     0.309 C 
HETATM   12  C2  UNL     1      22.120   4.675  50.380  1.00  0.00     0.309 C 
ENDBRANCH   9  10
ENDBRANCH   8   9
BRANCH   8  13
HETATM   13  O2  UNL     1      18.996   3.897  51.880  1.00  0.00    -0.361 OA
BRANCH  13  14
HETATM   14  C19 UNL     1      18.160   3.986  50.798  1.00  0.00     0.350 C 
BRANCH  14  15
HETATM   15  N3  UNL     1      16.841   4.297  51.332  1.00  0.00    -0.115 NA
HETATM   16  O3  UNL     1      16.571   4.135  52.493  1.00  0.00    -0.065 OA
ENDBRANCH  14  15
ENDBRANCH  13  14
ENDBRANCH   8  13
ENDBRANCH   7   8
ENDBRANCH   6   7
ENDBRANCH   1   6
BRANCH   3  17
HETATM   17  O1  UNL     1      24.616  -0.542  54.225  1.00  0.00    -0.351 OA
BRANCH  17  18
HETATM   18  C10 UNL     1      25.380   0.476  53.647  1.00  0.00     0.180 C 
BRANCH  18  19
HETATM   19  C11 UNL     1      26.087  -0.053  52.432  1.00  0.00     0.062 C 
BRANCH  19  20
HETATM   20  C12 UNL     1      27.275  -0.877  52.787  1.00  0.00    -0.060 A 
HETATM   21  C13 UNL     1      28.328  -0.232  53.256  1.00  0.00     0.006 A 
HETATM   22  C14 UNL     1      29.475  -1.098  53.589  1.00  0.00     0.017 A 
HETATM   23  C15 UNL     1      29.469  -2.412  53.438  1.00  0.00     0.083 A 
HETATM   24  N2  UNL     1      28.299  -3.037  52.927  1.00  0.00    -0.395 N 
HETATM   25  C16 UNL     1      27.090  -2.332  52.552  1.00  0.00     0.153 A 
HETATM   26  H22 UNL     1      28.277  -4.074  52.801  1.00  0.00     0.159 HD
ENDBRANCH  19  20
ENDBRANCH  18  19
ENDBRANCH  17  18
ENDBRANCH   3  17
TORSDOF 12
ENDMDL
MODEL 6
REMARK VINA RESULT:      -6.5      5.319      8.375
REMARK  12 active torsions:
REMARK  status: ('A' for Active; 'I' for Inactive)
REMARK    1  A    between atoms: N1_2  and  C3_4 
REMARK    2  A    between atoms: C3_4  and  C4_5 
REMARK    3  A    between atoms: C4_5  and  C5_6 
REMARK    4  A    between atoms: C4_5  and  O2_22 
REMARK    5  A    between atoms: C5_6  and  C6_7 
REMARK    6  A    between atoms: C6_7  and  C7_8 
REMARK    7  A    between atoms: C9_10  and  O1_11 
REMARK    8  A    between atoms: O1_11  and  C10_12 
REMARK    9  A    between atoms: C10_12  and  C11_13 
REMARK   10  A    between atoms: C11_13  and  C12_14 
REMARK   11  A    between atoms: O2_22  and  C19_23 
REMARK   12  A    between atoms: C19_23  and  N3_24 
ROOT
HETATM    1  C7  UNL     1      27.207   5.015  48.938  1.00  0.00    -0.074 A 
HETATM    2  C8  UNL     1      26.877   3.826  49.428  1.00  0.00     0.039 A 
HETATM    3  C9  UNL     1      25.544   3.780  50.061  1.00  0.00     0.065 A 
HETATM    4  C17 UNL     1      25.103   5.016  49.915  1.00  0.00     0.014 A 
HETATM    5  C18 UNL     1      26.060   5.899  49.219  1.00  0.00     0.064 A 
ENDROOT
BRANCH   1   6
HETATM    6  C6  UNL     1      28.502   5.311  48.253  1.00  0.00     0.037 C 
BRANCH   6   7
HETATM    7  C5  UNL     1      28.546   6.729  47.752  1.00  0.00     0.038 C 
BRANCH   7   8
HETATM    8  C4  UNL     1      29.872   7.349  48.081  1.00  0.00     0.152 C 
BRANCH   8   9
HETATM    9  C3  UNL     1      30.756   6.350  48.762  1.00  0.00     0.303 C 
BRANCH   9  10
HETATM   10  N1  UNL     1      32.039   6.239  48.031  1.00  0.00     0.082 N 
HETATM   11  C1  UNL     1      32.510   4.876  48.197  1.00  0.00     0.309 C 
HETATM   12  C2  UNL     1      32.980   7.122  48.711  1.00  0.00     0.309 C 
ENDBRANCH   9  10
ENDBRANCH   8   9
BRANCH   8  13
HETATM   13  O2  UNL     1      29.620   8.466  48.874  1.00  0.00    -0.361 OA
BRANCH  13  14
HETATM   14  C19 UNL     1      28.356   8.983  48.760  1.00  0.00     0.350 C 
BRANCH  14  15
HETATM   15  N3  UNL     1      27.947   9.349  50.110  1.00  0.00    -0.115 NA
HETATM   16  O3  UNL     1      26.817   9.675  50.365  1.00  0.00    -0.065 OA
ENDBRANCH  14  15
ENDBRANCH  13  14
ENDBRANCH   8  13
ENDBRANCH   7   8
ENDBRANCH   6   7
ENDBRANCH   1   6
BRANCH   3  17
HETATM   17  O1  UNL     1      25.013   2.633  50.633  1.00  0.00    -0.351 OA
BRANCH  17  18
HETATM   18  C10 UNL     1      25.334   2.266  51.942  1.00  0.00     0.180 C 
BRANCH  18  19
HETATM   19  C11 UNL     1      25.741   0.821  51.976  1.00  0.00     0.062 C 
BRANCH  19  20
HETATM   20  C12 UNL     1      27.079   0.628  52.600  1.00  0.00    -0.060 A 
HETATM   21  C13 UNL     1      27.456  -0.618  52.825  1.00  0.00     0.006 A 
HETATM   22  C14 UNL     1      28.789  -0.749  53.445  1.00  0.00     0.017 A 
HETATM   23  C15 UNL     1      29.556   0.283  53.757  1.00  0.00     0.083 A 
HETATM   24  N2  UNL     1      29.083   1.595  53.485  1.00  0.00    -0.395 N 
HETATM   25  C16 UNL     1      27.801   1.895  52.881  1.00  0.00     0.153 A 
HETATM   26  H22 UNL     1      29.675   2.421  53.725  1.00  0.00     0.159 HD
ENDBRANCH  19  20
ENDBRANCH  18  19
ENDBRANCH  17  18
ENDBRANCH   3  17
TORSDOF 12
ENDMDL
MODEL 7
REMARK VINA RESULT:      -6.4      2.407      3.369
REMARK  12 active torsions:
REMARK  status: ('A' for Active; 'I' for Inactive)
REMARK    1  A    between atoms: N1_2  and  C3_4 
REMARK    2  A    between atoms: C3_4  and  C4_5 
REMARK    3  A    between atoms: C4_5  and  C5_6 
REMARK    4  A    between atoms: C4_5  and  O2_22 
REMARK    5  A    between atoms: C5_6  and  C6_7 
REMARK    6  A    between atoms: C6_7  and  C7_8 
REMARK    7  A    between atoms: C9_10  and  O1_11 
REMARK    8  A    between atoms: O1_11  and  C10_12 
REMARK    9  A    between atoms: C10_12  and  C11_13 
REMARK   10  A    between atoms: C11_13  and  C12_14 
REMARK   11  A    between atoms: O2_22  and  C19_23 
REMARK   12  A    between atoms: C19_23  and  N3_24 
ROOT
HETATM    1  C7  UNL     1      23.169  -0.226  53.770  1.00  0.00    -0.074 A 
HETATM    2  C8  UNL     1      22.535   0.688  53.044  1.00  0.00     0.039 A 
HETATM    3  C9  UNL     1      21.102   0.834  53.370  1.00  0.00     0.065 A 
HETATM    4  C17 UNL     1      20.926  -0.049  54.337  1.00  0.00     0.014 A 
HETATM    5  C18 UNL     1      22.157  -0.787  54.685  1.00  0.00     0.064 A 
ENDROOT
BRANCH   1   6
HETATM    6  C6  UNL     1      24.619  -0.555  53.625  1.00  0.00     0.037 C 
BRANCH   6   7
HETATM    7  C5  UNL     1      25.324   0.449  52.753  1.00  0.00     0.038 C 
BRANCH   7   8
HETATM    8  C4  UNL     1      26.516  -0.187  52.100  1.00  0.00     0.152 C 
BRANCH   8   9
HETATM    9  C3  UNL     1      27.110  -1.224  53.004  1.00  0.00     0.303 C 
BRANCH   9  10
HETATM   10  N1  UNL     1      28.552  -0.949  53.196  1.00  0.00     0.082 N 
HETATM   11  C1  UNL     1      29.250  -2.216  53.076  1.00  0.00     0.309 C 
HETATM   12  C2  UNL     1      28.705  -0.486  54.571  1.00  0.00     0.309 C 
ENDBRANCH   9  10
ENDBRANCH   8   9
BRANCH   8  13
HETATM   13  O2  UNL     1      27.414   0.835  51.799  1.00  0.00    -0.361 OA
BRANCH  13  14
HETATM   14  C19 UNL     1      27.098   2.058  52.329  1.00  0.00     0.350 C 
BRANCH  14  15
HETATM   15  N3  UNL     1      28.330   2.579  52.906  1.00  0.00    -0.115 NA
HETATM   16  O3  UNL     1      28.456   2.744  54.091  1.00  0.00    -0.065 OA
ENDBRANCH  14  15
ENDBRANCH  13  14
ENDBRANCH   8  13
ENDBRANCH   7   8
ENDBRANCH   6   7
ENDBRANCH   1   6
BRANCH   3  17
HETATM   17  O1  UNL     1      20.264   1.732  52.727  1.00  0.00    -0.351 OA
BRANCH  17  18
HETATM   18  C10 UNL     1      19.138   1.292  52.027  1.00  0.00     0.180 C 
BRANCH  18  19
HETATM   19  C11 UNL     1      19.564   0.400  50.896  1.00  0.00     0.062 C 
BRANCH  19  20
HETATM   20  C12 UNL     1      20.161   1.167  49.768  1.00  0.00    -0.060 A 
HETATM   21  C13 UNL     1      21.409   0.876  49.446  1.00  0.00     0.006 A 
HETATM   22  C14 UNL     1      21.948   1.666  48.323  1.00  0.00     0.017 A 
HETATM   23  C15 UNL     1      21.257   2.593  47.681  1.00  0.00     0.083 A 
HETATM   24  N2  UNL     1      19.919   2.852  48.085  1.00  0.00    -0.395 N 
HETATM   25  C16 UNL     1      19.241   2.165  49.165  1.00  0.00     0.153 A 
HETATM   26  H22 UNL     1      19.358   3.580  47.589  1.00  0.00     0.159 HD
ENDBRANCH  19  20
ENDBRANCH  18  19
ENDBRANCH  17  18
ENDBRANCH   3  17
TORSDOF 12
ENDMDL
MODEL 8
REMARK VINA RESULT:      -6.3      2.329      3.259
REMARK  12 active torsions:
REMARK  status: ('A' for Active; 'I' for Inactive)
REMARK    1  A    between atoms: N1_2  and  C3_4 
REMARK    2  A    between atoms: C3_4  and  C4_5 
REMARK    3  A    between atoms: C4_5  and  C5_6 
REMARK    4  A    between atoms: C4_5  and  O2_22 
REMARK    5  A    between atoms: C5_6  and  C6_7 
REMARK    6  A    between atoms: C6_7  and  C7_8 
REMARK    7  A    between atoms: C9_10  and  O1_11 
REMARK    8  A    between atoms: O1_11  and  C10_12 
REMARK    9  A    between atoms: C10_12  and  C11_13 
REMARK   10  A    between atoms: C11_13  and  C12_14 
REMARK   11  A    between atoms: O2_22  and  C19_23 
REMARK   12  A    between atoms: C19_23  and  N3_24 
ROOT
HETATM    1  C7  UNL     1      24.028  -0.771  54.288  1.00  0.00    -0.074 A 
HETATM    2  C8  UNL     1      23.267  -0.451  53.247  1.00  0.00     0.039 A 
HETATM    3  C9  UNL     1      21.820  -0.637  53.473  1.00  0.00     0.065 A 
HETATM    4  C17 UNL     1      21.769  -1.087  54.714  1.00  0.00     0.014 A 
HETATM    5  C18 UNL     1      23.099  -1.217  55.343  1.00  0.00     0.064 A 
ENDROOT
BRANCH   1   6
HETATM    6  C6  UNL     1      25.518  -0.669  54.302  1.00  0.00     0.037 C 
BRANCH   6   7
HETATM    7  C5  UNL     1      26.113  -1.150  53.006  1.00  0.00     0.038 C 
BRANCH   7   8
HETATM    8  C4  UNL     1      27.070  -0.127  52.470  1.00  0.00     0.152 C 
BRANCH   8   9
HETATM    9  C3  UNL     1      27.567   0.749  53.579  1.00  0.00     0.303 C 
BRANCH   9  10
HETATM   10  N1  UNL     1      29.032   0.925  53.457  1.00  0.00     0.082 N 
HETATM   11  C1  UNL     1      29.643  -0.361  53.743  1.00  0.00     0.309 C 
HETATM   12  C2  UNL     1      29.427   1.850  54.513  1.00  0.00     0.309 C 
ENDBRANCH   9  10
ENDBRANCH   8   9
BRANCH   8  13
HETATM   13  O2  UNL     1      26.397   0.591  51.484  1.00  0.00    -0.361 OA
BRANCH  13  14
HETATM   14  C19 UNL     1      26.187   1.913  51.772  1.00  0.00     0.350 C 
BRANCH  14  15
HETATM   15  N3  UNL     1      26.793   2.665  50.681  1.00  0.00    -0.115 NA
HETATM   16  O3  UNL     1      26.422   3.772  50.388  1.00  0.00    -0.065 OA
ENDBRANCH  14  15
ENDBRANCH  13  14
ENDBRANCH   8  13
ENDBRANCH   7   8
ENDBRANCH   6   7
ENDBRANCH   1   6
BRANCH   3  17
HETATM   17  O1  UNL     1      20.859  -0.361  52.512  1.00  0.00    -0.351 OA
BRANCH  17  18
HETATM   18  C10 UNL     1      20.019   0.749  52.631  1.00  0.00     0.180 C 
BRANCH  18  19
HETATM   19  C11 UNL     1      20.761   1.990  52.227  1.00  0.00     0.062 C 
BRANCH  19  20
HETATM   20  C12 UNL     1      21.128   1.981  50.784  1.00  0.00    -0.060 A 
HETATM   21  C13 UNL     1      22.385   2.260  50.488  1.00  0.00     0.006 A 
HETATM   22  C14 UNL     1      22.691   2.237  49.045  1.00  0.00     0.017 A 
HETATM   23  C15 UNL     1      21.795   1.964  48.111  1.00  0.00     0.083 A 
HETATM   24  N2  UNL     1      20.461   1.675  48.505  1.00  0.00    -0.395 N 
HETATM   25  C16 UNL     1      19.998   1.655  49.878  1.00  0.00     0.153 A 
HETATM   26  H22 UNL     1      19.741   1.457  47.780  1.00  0.00     0.159 HD
ENDBRANCH  19  20
ENDBRANCH  18  19
ENDBRANCH  17  18
ENDBRANCH   3  17
TORSDOF 12
ENDMDL
MODEL 9
REMARK VINA RESULT:      -6.2      2.188      3.487
REMARK  12 active torsions:
REMARK  status: ('A' for Active; 'I' for Inactive)
REMARK    1  A    between atoms: N1_2  and  C3_4 
REMARK    2  A    between atoms: C3_4  and  C4_5 
REMARK    3  A    between atoms: C4_5  and  C5_6 
REMARK    4  A    between atoms: C4_5  and  O2_22 
REMARK    5  A    between atoms: C5_6  and  C6_7 
REMARK    6  A    between atoms: C6_7  and  C7_8 
REMARK    7  A    between atoms: C9_10  and  O1_11 
REMARK    8  A    between atoms: O1_11  and  C10_12 
REMARK    9  A    between atoms: C10_12  and  C11_13 
REMARK   10  A    between atoms: C11_13  and  C12_14 
REMARK   11  A    between atoms: O2_22  and  C19_23 
REMARK   12  A    between atoms: C19_23  and  N3_24 
ROOT
HETATM    1  C7  UNL     1      23.591  -0.668  54.114  1.00  0.00    -0.074 A 
HETATM    2  C8  UNL     1      22.830  -0.283  53.096  1.00  0.00     0.039 A 
HETATM    3  C9  UNL     1      21.388  -0.537  53.287  1.00  0.00     0.065 A 
HETATM    4  C17 UNL     1      21.341  -1.097  54.483  1.00  0.00     0.014 A 
HETATM    5  C18 UNL     1      22.668  -1.237  55.114  1.00  0.00     0.064 A 
ENDROOT
BRANCH   1   6
HETATM    6  C6  UNL     1      25.077  -0.517  54.155  1.00  0.00     0.037 C 
BRANCH   6   7
HETATM    7  C5  UNL     1      25.633  -0.198  52.794  1.00  0.00     0.038 C 
BRANCH   7   8
HETATM    8  C4  UNL     1      26.120   1.220  52.759  1.00  0.00     0.152 C 
BRANCH   8   9
HETATM    9  C3  UNL     1      25.663   1.894  51.502  1.00  0.00     0.303 C 
BRANCH   9  10
HETATM   10  N1  UNL     1      24.392   2.610  51.754  1.00  0.00     0.082 N 
HETATM   11  C1  UNL     1      24.399   3.802  50.925  1.00  0.00     0.309 C 
HETATM   12  C2  UNL     1      24.428   3.038  53.149  1.00  0.00     0.309 C 
ENDBRANCH   9  10
ENDBRANCH   8   9
BRANCH   8  13
HETATM   13  O2  UNL     1      27.508   1.182  52.869  1.00  0.00    -0.361 OA
BRANCH  13  14
HETATM   14  C19 UNL     1      28.071   2.267  53.487  1.00  0.00     0.350 C 
BRANCH  14  15
HETATM   15  N3  UNL     1      28.863   1.738  54.589  1.00  0.00    -0.115 NA
HETATM   16  O3  UNL     1      29.760   2.367  55.087  1.00  0.00    -0.065 OA
ENDBRANCH  14  15
ENDBRANCH  13  14
ENDBRANCH   8  13
ENDBRANCH   7   8
ENDBRANCH   6   7
ENDBRANCH   1   6
BRANCH   3  17
HETATM   17  O1  UNL     1      20.427  -0.210  52.343  1.00  0.00    -0.351 OA
BRANCH  17  18
HETATM   18  C10 UNL     1      20.054   1.119  52.125  1.00  0.00     0.180 C 
BRANCH  18  19
HETATM   19  C11 UNL     1      19.466   1.259  50.750  1.00  0.00     0.062 C 
BRANCH  19  20
HETATM   20  C12 UNL     1      20.424   1.869  49.787  1.00  0.00    -0.060 A 
HETATM   21  C13 UNL     1      21.186   1.038  49.098  1.00  0.00     0.006 A 
HETATM   22  C14 UNL     1      22.116   1.698  48.162  1.00  0.00     0.017 A 
HETATM   23  C15 UNL     1      22.196   3.009  48.012  1.00  0.00     0.083 A 
HETATM   24  N2  UNL     1      21.345   3.841  48.789  1.00  0.00    -0.395 N 
HETATM   25  C16 UNL     1      20.378   3.353  49.751  1.00  0.00     0.153 A 
HETATM   26  H22 UNL     1      21.395   4.879  48.683  1.00  0.00     0.159 HD
ENDBRANCH  19  20
ENDBRANCH  18  19
ENDBRANCH  17  18
ENDBRANCH   3  17
TORSDOF 12
ENDMDL
