MODEL 1
REMARK VINA RESULT:      -7.1      0.000      0.000
REMARK  3 active torsions:
REMARK  status: ('A' for Active; 'I' for Inactive)
REMARK    1  A    between atoms: N1_4  and  C4_5 
REMARK    2  A    between atoms: C4_5  and  C6_7 
REMARK    3  A    between atoms: C8_9  and  N2_10 
ROOT
HETATM    1  C6  UNL     1      25.064   1.481  52.507  1.00  0.00     0.068 A 
HETATM    2  C7  UNL     1      25.769   2.478  51.925  1.00  0.00     0.068 A 
HETATM    3  C8  UNL     1      25.123   3.125  50.907  1.00  0.00     0.097 A 
HETATM    4  S1  UNL     1      23.579   2.439  50.692  1.00  0.00     0.029 SA
HETATM    5  N4  UNL     1      23.676   1.158  52.020  1.00  0.00    -0.212 NA
ENDROOT
BRANCH   1   6
HETATM    6  C4  UNL     1      25.476   0.569  53.646  1.00  0.00     0.128 C 
HETATM    7  C5  UNL     1      24.803  -0.762  53.293  1.00  0.00     0.039 C 
BRANCH   6   8
HETATM    8  N1  UNL     1      26.857   0.321  53.718  1.00  0.00    -0.398 N 
HETATM    9  C3  UNL     1      27.501   0.142  54.956  1.00  0.00     0.149 C 
HETATM   10  C2  UNL     1      28.953   0.586  54.693  1.00  0.00     0.135 C 
HETATM   11  C1  UNL     1      28.897   1.860  53.890  1.00  0.00     0.041 C 
HETATM   12  O1  UNL     1      29.532  -0.375  53.940  1.00  0.00    -0.378 OA
HETATM   13  C14 UNL     1      28.795  -1.015  52.990  1.00  0.00     0.135 C 
HETATM   14  C13 UNL     1      27.397  -0.553  52.750  1.00  0.00     0.149 C 
HETATM   15  C15 UNL     1      28.858  -2.497  53.313  1.00  0.00     0.041 C 
ENDBRANCH   6   8
ENDBRANCH   1   6
BRANCH   3  16
HETATM   16  N2  UNL     1      25.690   4.218  50.151  1.00  0.00    -0.344 N 
HETATM   17  C9  UNL     1      25.107   5.491  50.219  1.00  0.00     0.111 A 
HETATM   18  C10 UNL     1      25.571   6.538  49.555  1.00  0.00     0.133 A 
HETATM   19  N3  UNL     1      26.732   6.388  48.715  1.00  0.00    -0.274 NA
HETATM   20  C11 UNL     1      27.262   5.213  48.658  1.00  0.00     0.109 A 
HETATM   21  C12 UNL     1      26.861   3.955  49.335  1.00  0.00     0.175 A 
ENDBRANCH   3  16
TORSDOF 3
ENDMDL
MODEL 2
REMARK VINA RESULT:      -6.9      2.678      6.617
REMARK  3 active torsions:
REMARK  status: ('A' for Active; 'I' for Inactive)
REMARK    1  A    between atoms: N1_4  and  C4_5 
REMARK    2  A    between atoms: C4_5  and  C6_7 
REMARK    3  A    between atoms: C8_9  and  N2_10 
ROOT
HETATM    1  C6  UNL     1      23.539   1.348  51.985  1.00  0.00     0.068 A 
HETATM    2  C7  UNL     1      24.862   1.138  52.170  1.00  0.00     0.068 A 
HETATM    3  C8  UNL     1      25.172   0.180  53.096  1.00  0.00     0.097 A 
HETATM    4  S1  UNL     1      23.735  -0.466  53.743  1.00  0.00     0.029 SA
HETATM    5  N4  UNL     1      22.534   0.551  52.775  1.00  0.00    -0.212 NA
ENDROOT
BRANCH   1   6
HETATM    6  C4  UNL     1      22.855   2.327  51.051  1.00  0.00     0.128 C 
HETATM    7  C5  UNL     1      21.679   2.848  51.885  1.00  0.00     0.039 C 
BRANCH   6   8
HETATM    8  N1  UNL     1      23.638   3.442  50.709  1.00  0.00    -0.398 N 
HETATM    9  C3  UNL     1      23.769   3.857  49.371  1.00  0.00     0.149 C 
HETATM   10  C2  UNL     1      25.136   4.567  49.329  1.00  0.00     0.135 C 
HETATM   11  C1  UNL     1      26.111   3.716  50.102  1.00  0.00     0.041 C 
HETATM   12  O1  UNL     1      24.990   5.748  49.971  1.00  0.00    -0.378 OA
HETATM   13  C14 UNL     1      24.177   5.821  51.061  1.00  0.00     0.135 C 
HETATM   14  C13 UNL     1      23.559   4.561  51.567  1.00  0.00     0.149 C 
HETATM   15  C15 UNL     1      23.139   6.886  50.761  1.00  0.00     0.041 C 
ENDBRANCH   6   8
ENDBRANCH   1   6
BRANCH   3  16
HETATM   16  N2  UNL     1      26.520  -0.204  53.447  1.00  0.00    -0.344 N 
HETATM   17  C9  UNL     1      27.173   0.431  54.512  1.00  0.00     0.111 A 
HETATM   18  C10 UNL     1      28.406   0.130  54.890  1.00  0.00     0.133 A 
HETATM   19  N3  UNL     1      29.133  -0.896  54.188  1.00  0.00    -0.274 NA
HETATM   20  C11 UNL     1      28.525  -1.475  53.209  1.00  0.00     0.109 A 
HETATM   21  C12 UNL     1      27.160  -1.251  52.672  1.00  0.00     0.175 A 
ENDBRANCH   3  16
TORSDOF 3
ENDMDL
MODEL 3
REMARK VINA RESULT:      -6.8      3.700      6.853
REMARK  3 active torsions:
REMARK  status: ('A' for Active; 'I' for Inactive)
REMARK    1  A    between atoms: N1_4  and  C4_5 
REMARK    2  A    between atoms: C4_5  and  C6_7 
REMARK    3  A    between atoms: C8_9  and  N2_10 
ROOT
HETATM    1  C6  UNL     1      23.501   0.996  51.867  1.00  0.00     0.068 A 
HETATM    2  C7  UNL     1      24.769   1.379  52.144  1.00  0.00     0.068 A 
HETATM    3  C8  UNL     1      25.352   0.729  53.198  1.00  0.00     0.097 A 
HETATM    4  S1  UNL     1      24.250  -0.396  53.847  1.00  0.00     0.029 SA
HETATM    5  N4  UNL     1      22.840  -0.072  52.698  1.00  0.00    -0.212 NA
ENDROOT
BRANCH   1   6
HETATM    6  C4  UNL     1      22.572   1.507  50.784  1.00  0.00     0.128 C 
HETATM    7  C5  UNL     1      21.357   0.580  50.895  1.00  0.00     0.039 C 
BRANCH   6   8
HETATM    8  N1  UNL     1      22.107   2.816  50.990  1.00  0.00    -0.398 N 
HETATM    9  C3  UNL     1      22.585   3.890  50.217  1.00  0.00     0.149 C 
HETATM   10  C2  UNL     1      22.415   5.118  51.132  1.00  0.00     0.135 C 
HETATM   11  C1  UNL     1      22.890   4.725  52.507  1.00  0.00     0.041 C 
HETATM   12  O1  UNL     1      21.092   5.389  51.192  1.00  0.00    -0.378 OA
HETATM   13  C14 UNL     1      20.199   4.361  51.199  1.00  0.00     0.135 C 
HETATM   14  C13 UNL     1      20.726   2.966  51.244  1.00  0.00     0.149 C 
HETATM   15  C15 UNL     1      19.270   4.582  50.020  1.00  0.00     0.041 C 
ENDBRANCH   6   8
ENDBRANCH   1   6
BRANCH   3  16
HETATM   16  N2  UNL     1      26.696   0.981  53.663  1.00  0.00    -0.344 N 
HETATM   17  C9  UNL     1      27.380   2.128  53.239  1.00  0.00     0.111 A 
HETATM   18  C10 UNL     1      28.612   2.423  53.625  1.00  0.00     0.133 A 
HETATM   19  N3  UNL     1      29.305   1.537  54.524  1.00  0.00    -0.274 NA
HETATM   20  C11 UNL     1      28.668   0.483  54.909  1.00  0.00     0.109 A 
HETATM   21  C12 UNL     1      27.300   0.020  54.569  1.00  0.00     0.175 A 
ENDBRANCH   3  16
TORSDOF 3
ENDMDL
MODEL 4
REMARK VINA RESULT:      -6.8      3.412      5.814
REMARK  3 active torsions:
REMARK  status: ('A' for Active; 'I' for Inactive)
REMARK    1  A    between atoms: N1_4  and  C4_5 
REMARK    2  A    between atoms: C4_5  and  C6_7 
REMARK    3  A    between atoms: C8_9  and  N2_10 
ROOT
HETATM    1  C6  UNL     1      23.633   1.842  51.697  1.00  0.00     0.068 A 
HETATM    2  C7  UNL     1      22.600   1.221  52.313  1.00  0.00     0.068 A 
HETATM    3  C8  UNL     1      21.534   0.933  51.505  1.00  0.00     0.097 A 
HETATM    4  S1  UNL     1      21.864   1.469  49.922  1.00  0.00     0.029 SA
HETATM    5  N4  UNL     1      23.549   2.163  50.228  1.00  0.00    -0.212 NA
ENDROOT
BRANCH   1   6
HETATM    6  C4  UNL     1      24.950   2.303  52.289  1.00  0.00     0.128 C 
HETATM    7  C5  UNL     1      24.521   3.300  53.371  1.00  0.00     0.039 C 
BRANCH   6   8
HETATM    8  N1  UNL     1      25.681   1.292  52.933  1.00  0.00    -0.398 N 
HETATM    9  C3  UNL     1      26.038   0.109  52.259  1.00  0.00     0.149 C 
HETATM   10  C2  UNL     1      26.164  -0.940  53.381  1.00  0.00     0.135 C 
HETATM   11  C1  UNL     1      24.987  -0.757  54.304  1.00  0.00     0.041 C 
HETATM   12  O1  UNL     1      27.296  -0.659  54.063  1.00  0.00    -0.378 OA
HETATM   13  C14 UNL     1      27.657   0.641  54.253  1.00  0.00     0.135 C 
HETATM   14  C13 UNL     1      26.726   1.708  53.786  1.00  0.00     0.149 C 
HETATM   15  C15 UNL     1      29.047   0.798  53.665  1.00  0.00     0.041 C 
ENDBRANCH   6   8
ENDBRANCH   1   6
BRANCH   3  16
HETATM   16  N2  UNL     1      20.330   0.273  51.955  1.00  0.00    -0.344 N 
HETATM   17  C9  UNL     1      19.184   0.285  51.148  1.00  0.00     0.111 A 
HETATM   18  C10 UNL     1      18.047  -0.299  51.494  1.00  0.00     0.133 A 
HETATM   19  N3  UNL     1      17.958  -0.987  52.757  1.00  0.00    -0.274 NA
HETATM   20  C11 UNL     1      19.018  -0.992  53.493  1.00  0.00     0.109 A 
HETATM   21  C12 UNL     1      20.351  -0.390  53.246  1.00  0.00     0.175 A 
ENDBRANCH   3  16
TORSDOF 3
ENDMDL
MODEL 5
REMARK VINA RESULT:      -6.7      3.530      7.169
REMARK  3 active torsions:
REMARK  status: ('A' for Active; 'I' for Inactive)
REMARK    1  A    between atoms: N1_4  and  C4_5 
REMARK    2  A    between atoms: C4_5  and  C6_7 
REMARK    3  A    between atoms: C8_9  and  N2_10 
ROOT
HETATM    1  C6  UNL     1      23.104   1.747  52.576  1.00  0.00     0.068 A 
HETATM    2  C7  UNL     1      24.433   1.549  52.728  1.00  0.00     0.068 A 
HETATM    3  C8  UNL     1      24.779   0.346  53.281  1.00  0.00     0.097 A 
HETATM    4  S1  UNL     1      23.368  -0.549  53.614  1.00  0.00     0.029 SA
HETATM    5  N4  UNL     1      22.131   0.682  53.007  1.00  0.00    -0.212 NA
ENDROOT
BRANCH   1   6
HETATM    6  C4  UNL     1      22.384   2.955  52.008  1.00  0.00     0.128 C 
HETATM    7  C5  UNL     1      23.387   4.095  52.218  1.00  0.00     0.039 C 
BRANCH   6   8
HETATM    8  N1  UNL     1      22.132   2.882  50.628  1.00  0.00    -0.398 N 
HETATM    9  C3  UNL     1      20.856   3.161  50.105  1.00  0.00     0.149 C 
HETATM   10  C2  UNL     1      20.798   2.345  48.799  1.00  0.00     0.135 C 
HETATM   11  C1  UNL     1      21.365   0.980  49.095  1.00  0.00     0.041 C 
HETATM   12  O1  UNL     1      21.603   2.964  47.907  1.00  0.00    -0.378 OA
HETATM   13  C14 UNL     1      22.757   3.545  48.339  1.00  0.00     0.135 C 
HETATM   14  C13 UNL     1      23.137   3.382  49.772  1.00  0.00     0.149 C 
HETATM   15  C15 UNL     1      22.691   5.004  47.928  1.00  0.00     0.041 C 
ENDBRANCH   6   8
ENDBRANCH   1   6
BRANCH   3  16
HETATM   16  N2  UNL     1      26.139  -0.072  53.530  1.00  0.00    -0.344 N 
HETATM   17  C9  UNL     1      26.855   0.480  54.601  1.00  0.00     0.111 A 
HETATM   18  C10 UNL     1      28.103   0.145  54.890  1.00  0.00     0.133 A 
HETATM   19  N3  UNL     1      28.781  -0.834  54.078  1.00  0.00    -0.274 NA
HETATM   20  C11 UNL     1      28.114  -1.336  53.094  1.00  0.00     0.109 A 
HETATM   21  C12 UNL     1      26.725  -1.065  52.649  1.00  0.00     0.175 A 
ENDBRANCH   3  16
TORSDOF 3
ENDMDL
MODEL 6
REMARK VINA RESULT:      -6.6      3.640      6.862
REMARK  3 active torsions:
REMARK  status: ('A' for Active; 'I' for Inactive)
REMARK    1  A    between atoms: N1_4  and  C4_5 
REMARK    2  A    between atoms: C4_5  and  C6_7 
REMARK    3  A    between atoms: C8_9  and  N2_10 
ROOT
HETATM    1  C6  UNL     1      24.243   2.272  52.179  1.00  0.00     0.068 A 
HETATM    2  C7  UNL     1      24.868   1.160  52.629  1.00  0.00     0.068 A 
HETATM    3  C8  UNL     1      26.182   1.048  52.265  1.00  0.00     0.097 A 
HETATM    4  S1  UNL     1      26.625   2.399  51.326  1.00  0.00     0.029 SA
HETATM    5  N4  UNL     1      24.997   3.272  51.343  1.00  0.00    -0.212 NA
ENDROOT
BRANCH   1   6
HETATM    6  C4  UNL     1      22.804   2.701  52.389  1.00  0.00     0.128 C 
HETATM    7  C5  UNL     1      22.551   3.669  51.229  1.00  0.00     0.039 C 
BRANCH   6   8
HETATM    8  N1  UNL     1      21.866   1.663  52.266  1.00  0.00    -0.398 N 
HETATM    9  C3  UNL     1      20.753   1.580  53.123  1.00  0.00     0.149 C 
HETATM   10  C2  UNL     1      20.413   0.078  53.155  1.00  0.00     0.135 C 
HETATM   11  C1  UNL     1      21.710  -0.676  53.298  1.00  0.00     0.041 C 
HETATM   12  O1  UNL     1      19.863  -0.230  51.959  1.00  0.00    -0.378 OA
HETATM   13  C14 UNL     1      20.330   0.375  50.832  1.00  0.00     0.135 C 
HETATM   14  C13 UNL     1      21.508   1.283  50.955  1.00  0.00     0.149 C 
HETATM   15  C15 UNL     1      19.145   1.064  50.182  1.00  0.00     0.041 C 
ENDBRANCH   6   8
ENDBRANCH   1   6
BRANCH   3  16
HETATM   16  N2  UNL     1      27.037  -0.055  52.638  1.00  0.00    -0.344 N 
HETATM   17  C9  UNL     1      26.638  -1.371  52.365  1.00  0.00     0.111 A 
HETATM   18  C10 UNL     1      27.370  -2.430  52.676  1.00  0.00     0.133 A 
HETATM   19  N3  UNL     1      28.641  -2.248  53.328  1.00  0.00    -0.274 NA
HETATM   20  C11 UNL     1      29.000  -1.033  53.575  1.00  0.00     0.109 A 
HETATM   21  C12 UNL     1      28.298   0.243  53.291  1.00  0.00     0.175 A 
ENDBRANCH   3  16
TORSDOF 3
ENDMDL
MODEL 7
REMARK VINA RESULT:      -6.5      2.700      3.782
REMARK  3 active torsions:
REMARK  status: ('A' for Active; 'I' for Inactive)
REMARK    1  A    between atoms: N1_4  and  C4_5 
REMARK    2  A    between atoms: C4_5  and  C6_7 
REMARK    3  A    between atoms: C8_9  and  N2_10 
ROOT
HETATM    1  C6  UNL     1      23.262   3.582  51.070  1.00  0.00     0.068 A 
HETATM    2  C7  UNL     1      24.394   3.772  50.354  1.00  0.00     0.068 A 
HETATM    3  C8  UNL     1      24.832   5.066  50.296  1.00  0.00     0.097 A 
HETATM    4  S1  UNL     1      23.768   6.062  51.179  1.00  0.00     0.029 SA
HETATM    5  N4  UNL     1      22.584   4.754  51.729  1.00  0.00    -0.212 NA
ENDROOT
BRANCH   1   6
HETATM    6  C4  UNL     1      22.510   2.292  51.331  1.00  0.00     0.128 C 
HETATM    7  C5  UNL     1      22.404   1.657  49.940  1.00  0.00     0.039 C 
BRANCH   6   8
HETATM    8  N1  UNL     1      23.197   1.377  52.146  1.00  0.00    -0.398 N 
HETATM    9  C3  UNL     1      23.878   1.799  53.302  1.00  0.00     0.149 C 
HETATM   10  C2  UNL     1      24.991   0.750  53.488  1.00  0.00     0.135 C 
HETATM   11  C1  UNL     1      25.601   0.494  52.133  1.00  0.00     0.041 C 
HETATM   12  O1  UNL     1      24.399  -0.387  53.916  1.00  0.00    -0.378 OA
HETATM   13  C14 UNL     1      23.170  -0.723  53.435  1.00  0.00     0.135 C 
HETATM   14  C13 UNL     1      22.571   0.131  52.369  1.00  0.00     0.149 C 
HETATM   15  C15 UNL     1      22.254  -0.863  54.637  1.00  0.00     0.041 C 
ENDBRANCH   6   8
ENDBRANCH   1   6
BRANCH   3  16
HETATM   16  N2  UNL     1      26.017   5.492  49.588  1.00  0.00    -0.344 N 
HETATM   17  C9  UNL     1      26.252   6.857  49.376  1.00  0.00     0.111 A 
HETATM   18  C10 UNL     1      27.316   7.319  48.738  1.00  0.00     0.133 A 
HETATM   19  N3  UNL     1      28.295   6.394  48.226  1.00  0.00    -0.274 NA
HETATM   20  C11 UNL     1      28.070   5.139  48.426  1.00  0.00     0.109 A 
HETATM   21  C12 UNL     1      26.937   4.474  49.115  1.00  0.00     0.175 A 
ENDBRANCH   3  16
TORSDOF 3
ENDMDL
MODEL 8
REMARK VINA RESULT:      -6.5      3.467      6.845
REMARK  3 active torsions:
REMARK  status: ('A' for Active; 'I' for Inactive)
REMARK    1  A    between atoms: N1_4  and  C4_5 
REMARK    2  A    between atoms: C4_5  and  C6_7 
REMARK    3  A    between atoms: C8_9  and  N2_10 
ROOT
HETATM    1  C6  UNL     1      23.494   1.337  51.423  1.00  0.00     0.068 A 
HETATM    2  C7  UNL     1      24.767   1.625  51.782  1.00  0.00     0.068 A 
HETATM    3  C8  UNL     1      25.223   0.953  52.882  1.00  0.00     0.097 A 
HETATM    4  S1  UNL     1      23.994  -0.070  53.470  1.00  0.00     0.029 SA
HETATM    5  N4  UNL     1      22.695   0.341  52.221  1.00  0.00    -0.212 NA
ENDROOT
BRANCH   1   6
HETATM    6  C4  UNL     1      22.684   1.898  50.271  1.00  0.00     0.128 C 
HETATM    7  C5  UNL     1      21.421   1.030  50.272  1.00  0.00     0.039 C 
BRANCH   6   8
HETATM    8  N1  UNL     1      22.266   3.227  50.450  1.00  0.00    -0.398 N 
HETATM    9  C3  UNL     1      21.651   3.642  51.646  1.00  0.00     0.149 C 
HETATM   10  C2  UNL     1      20.771   4.834  51.222  1.00  0.00     0.135 C 
HETATM   11  C1  UNL     1      20.072   4.447  49.944  1.00  0.00     0.041 C 
HETATM   12  O1  UNL     1      21.600   5.869  50.965  1.00  0.00    -0.378 OA
HETATM   13  C14 UNL     1      22.810   5.630  50.387  1.00  0.00     0.135 C 
HETATM   14  C13 UNL     1      23.126   4.235  49.962  1.00  0.00     0.149 C 
HETATM   15  C15 UNL     1      23.862   6.194  51.323  1.00  0.00     0.041 C 
ENDBRANCH   6   8
ENDBRANCH   1   6
BRANCH   3  16
HETATM   16  N2  UNL     1      26.549   1.107  53.436  1.00  0.00    -0.344 N 
HETATM   17  C9  UNL     1      27.019   0.193  54.389  1.00  0.00     0.111 A 
HETATM   18  C10 UNL     1      28.221   0.271  54.938  1.00  0.00     0.133 A 
HETATM   19  N3  UNL     1      29.109   1.339  54.554  1.00  0.00    -0.274 NA
HETATM   20  C11 UNL     1      28.668   2.175  53.676  1.00  0.00     0.109 A 
HETATM   21  C12 UNL     1      27.359   2.220  52.978  1.00  0.00     0.175 A 
ENDBRANCH   3  16
TORSDOF 3
ENDMDL
MODEL 9
REMARK VINA RESULT:      -6.3      3.558      6.632
REMARK  3 active torsions:
REMARK  status: ('A' for Active; 'I' for Inactive)
REMARK    1  A    between atoms: N1_4  and  C4_5 
REMARK    2  A    between atoms: C4_5  and  C6_7 
REMARK    3  A    between atoms: C8_9  and  N2_10 
ROOT
HETATM    1  C6  UNL     1      24.203   2.864  52.055  1.00  0.00     0.068 A 
HETATM    2  C7  UNL     1      25.039   2.085  52.780  1.00  0.00     0.068 A 
HETATM    3  C8  UNL     1      26.301   1.958  52.268  1.00  0.00     0.097 A 
HETATM    4  S1  UNL     1      26.418   2.857  50.825  1.00  0.00     0.029 SA
HETATM    5  N4  UNL     1      24.691   3.513  50.787  1.00  0.00    -0.212 NA
ENDROOT
BRANCH   1   6
HETATM    6  C4  UNL     1      22.752   3.209  52.329  1.00  0.00     0.128 C 
HETATM    7  C5  UNL     1      22.521   4.462  51.477  1.00  0.00     0.039 C 
BRANCH   6   8
HETATM    8  N1  UNL     1      21.834   2.241  51.890  1.00  0.00    -0.398 N 
HETATM    9  C3  UNL     1      22.269   1.028  51.326  1.00  0.00     0.149 C 
HETATM   10  C2  UNL     1      21.113   0.608  50.398  1.00  0.00     0.135 C 
HETATM   11  C1  UNL     1      20.670   1.836  49.645  1.00  0.00     0.041 C 
HETATM   12  O1  UNL     1      20.097   0.197  51.189  1.00  0.00    -0.378 OA
HETATM   13  C14 UNL     1      19.872   0.832  52.373  1.00  0.00     0.135 C 
HETATM   14  C13 UNL     1      20.697   2.031  52.700  1.00  0.00     0.149 C 
HETATM   15  C15 UNL     1      19.947  -0.226  53.458  1.00  0.00     0.041 C 
ENDBRANCH   6   8
ENDBRANCH   1   6
BRANCH   3  16
HETATM   16  N2  UNL     1      27.351   1.177  52.880  1.00  0.00    -0.344 N 
HETATM   17  C9  UNL     1      28.389   1.819  53.568  1.00  0.00     0.111 A 
HETATM   18  C10 UNL     1      29.382   1.168  54.154  1.00  0.00     0.133 A 
HETATM   19  N3  UNL     1      29.421  -0.271  54.094  1.00  0.00    -0.274 NA
HETATM   20  C11 UNL     1      28.461  -0.853  53.458  1.00  0.00     0.109 A 
HETATM   21  C12 UNL     1      27.291  -0.268  52.757  1.00  0.00     0.175 A 
ENDBRANCH   3  16
TORSDOF 3
ENDMDL
