MODEL 1
REMARK VINA RESULT:      -7.8      0.000      0.000
REMARK  3 active torsions:
REMARK  status: ('A' for Active; 'I' for Inactive)
REMARK    1  A    between atoms: C2_2  and  C3_3 
REMARK    2  A    between atoms: C5_5  and  C6_6 
REMARK    3  A    between atoms: C14_17  and  C15_18 
ROOT
HETATM    1  C3  UNL     1      26.185   1.569  51.310  1.00  0.00     0.010 C 
HETATM    2  C4  UNL     1      25.163   1.124  51.973  1.00  0.00    -0.013 A 
HETATM    3  C5  UNL     1      25.550   0.205  53.055  1.00  0.00     0.097 A 
HETATM    4  N1  UNL     1      24.729  -0.382  53.856  1.00  0.00    -0.150 NA
HETATM    5  N2  UNL     1      23.333  -0.154  53.723  1.00  0.00    -0.165 NA
HETATM    6  C13 UNL     1      22.936   0.660  52.774  1.00  0.00     0.128 A 
HETATM    7  C14 UNL     1      23.752   1.430  51.759  1.00  0.00     0.096 A 
ENDROOT
BRANCH   3   8
HETATM    8  C6  UNL     1      26.932  -0.171  53.375  1.00  0.00     0.001 A 
HETATM    9  C7  UNL     1      27.662   0.667  54.195  1.00  0.00     0.016 A 
HETATM   10  C8  UNL     1      28.972   0.254  54.463  1.00  0.00     0.025 A 
HETATM   11  C9  UNL     1      29.512  -0.909  53.949  1.00  0.00     0.034 A 
HETATM   12 CL1  UNL     1      31.157  -1.342  54.340  1.00  0.00    -0.084 Cl
HETATM   13  C10 UNL     1      28.731  -1.708  53.134  1.00  0.00     0.031 A 
HETATM   14  C11 UNL     1      27.416  -1.350  52.830  1.00  0.00    -0.048 A 
HETATM   15  C12 UNL     1      26.632  -2.238  51.956  1.00  0.00     0.049 C 
ENDBRANCH   3   8
BRANCH   1  16
HETATM   16  C2  UNL     1      26.137   2.492  50.183  1.00  0.00    -0.010 C 
HETATM   17  C1  UNL     1      26.493   3.762  50.072  1.00  0.00     0.011 C 
ENDBRANCH   1  16
BRANCH   7  18
HETATM   18  C15 UNL     1      23.397   2.869  51.892  1.00  0.00    -0.042 A 
HETATM   19  C16 UNL     1      22.513   3.230  50.867  1.00  0.00     0.027 A 
HETATM   20  C17 UNL     1      22.042   4.544  50.784  1.00  0.00     0.116 A 
HETATM   21  N3  UNL     1      22.437   5.455  51.687  1.00  0.00    -0.273 NA
HETATM   22  C18 UNL     1      23.282   5.113  52.669  1.00  0.00     0.116 A 
HETATM   23  C19 UNL     1      23.778   3.838  52.800  1.00  0.00     0.027 A 
ENDBRANCH   7  18
TORSDOF 3
ENDMDL
MODEL 2
REMARK VINA RESULT:      -7.7      2.158      3.551
REMARK  3 active torsions:
REMARK  status: ('A' for Active; 'I' for Inactive)
REMARK    1  A    between atoms: C2_2  and  C3_3 
REMARK    2  A    between atoms: C5_5  and  C6_6 
REMARK    3  A    between atoms: C14_17  and  C15_18 
ROOT
HETATM    1  C3  UNL     1      25.928   3.671  50.051  1.00  0.00     0.010 C 
HETATM    2  C4  UNL     1      24.733   3.179  49.930  1.00  0.00    -0.013 A 
HETATM    3  C5  UNL     1      24.463   2.108  50.901  1.00  0.00     0.097 A 
HETATM    4  N1  UNL     1      23.359   1.449  50.988  1.00  0.00    -0.150 NA
HETATM    5  N2  UNL     1      22.292   1.747  50.099  1.00  0.00    -0.165 NA
HETATM    6  C13 UNL     1      22.482   2.697  49.214  1.00  0.00     0.128 A 
HETATM    7  C14 UNL     1      23.698   3.565  48.977  1.00  0.00     0.096 A 
ENDROOT
BRANCH   3   8
HETATM    8  C6  UNL     1      25.418   1.639  51.913  1.00  0.00     0.001 A 
HETATM    9  C7  UNL     1      26.271   0.607  51.574  1.00  0.00     0.016 A 
HETATM   10  C8  UNL     1      27.157   0.205  52.580  1.00  0.00     0.025 A 
HETATM   11  C9  UNL     1      27.188   0.791  53.830  1.00  0.00     0.034 A 
HETATM   12 CL1  UNL     1      28.330   0.222  55.021  1.00  0.00    -0.084 Cl
HETATM   13  C10 UNL     1      26.309   1.822  54.110  1.00  0.00     0.031 A 
HETATM   14  C11 UNL     1      25.401   2.268  53.147  1.00  0.00    -0.048 A 
HETATM   15  C12 UNL     1      24.489   3.368  53.501  1.00  0.00     0.049 C 
ENDBRANCH   3   8
BRANCH   1  16
HETATM   16  C2  UNL     1      26.500   4.739  49.242  1.00  0.00    -0.010 C 
HETATM   17  C1  UNL     1      27.667   4.844  48.624  1.00  0.00     0.011 C 
ENDBRANCH   1  16
BRANCH   7  18
HETATM   18  C15 UNL     1      23.262   4.985  49.068  1.00  0.00    -0.042 A 
HETATM   19  C16 UNL     1      22.714   5.228  50.335  1.00  0.00     0.027 A 
HETATM   20  C17 UNL     1      22.229   6.500  50.651  1.00  0.00     0.116 A 
HETATM   21  N3  UNL     1      22.290   7.485  49.742  1.00  0.00    -0.273 NA
HETATM   22  C18 UNL     1      22.813   7.257  48.530  1.00  0.00     0.116 A 
HETATM   23  C19 UNL     1      23.304   6.027  48.162  1.00  0.00     0.027 A 
ENDBRANCH   7  18
TORSDOF 3
ENDMDL
MODEL 3
REMARK VINA RESULT:      -7.6      2.123      3.856
REMARK  3 active torsions:
REMARK  status: ('A' for Active; 'I' for Inactive)
REMARK    1  A    between atoms: C2_2  and  C3_3 
REMARK    2  A    between atoms: C5_5  and  C6_6 
REMARK    3  A    between atoms: C14_17  and  C15_18 
ROOT
HETATM    1  C3  UNL     1      22.695   1.602  50.589  1.00  0.00     0.010 C 
HETATM    2  C4  UNL     1      22.834   2.661  51.325  1.00  0.00    -0.013 A 
HETATM    3  C5  UNL     1      23.925   2.528  52.303  1.00  0.00     0.097 A 
HETATM    4  N1  UNL     1      24.267   3.430  53.158  1.00  0.00    -0.150 NA
HETATM    5  N2  UNL     1      23.566   4.664  53.194  1.00  0.00    -0.165 NA
HETATM    6  C13 UNL     1      22.585   4.834  52.339  1.00  0.00     0.128 A 
HETATM    7  C14 UNL     1      22.058   3.896  51.277  1.00  0.00     0.096 A 
ENDROOT
BRANCH   3   8
HETATM    8  C6  UNL     1      24.781   1.343  52.441  1.00  0.00     0.001 A 
HETATM    9  C7  UNL     1      24.345   0.316  53.255  1.00  0.00     0.016 A 
HETATM   10  C8  UNL     1      25.205  -0.784  53.346  1.00  0.00     0.025 A 
HETATM   11  C9  UNL     1      26.409  -0.853  52.673  1.00  0.00     0.034 A 
HETATM   12 CL1  UNL     1      27.415  -2.269  52.847  1.00  0.00    -0.084 Cl
HETATM   13  C10 UNL     1      26.792   0.207  51.871  1.00  0.00     0.031 A 
HETATM   14  C11 UNL     1      25.977   1.334  51.740  1.00  0.00    -0.048 A 
HETATM   15  C12 UNL     1      26.435   2.432  50.874  1.00  0.00     0.049 C 
ENDBRANCH   3   8
BRANCH   1  16
HETATM   16  C2  UNL     1      21.707   1.418  49.533  1.00  0.00    -0.010 C 
HETATM   17  C1  UNL     1      21.821   1.425  48.213  1.00  0.00     0.011 C 
ENDBRANCH   1  16
BRANCH   7  18
HETATM   18  C15 UNL     1      22.107   4.615  49.975  1.00  0.00    -0.042 A 
HETATM   19  C16 UNL     1      23.440   4.902  49.648  1.00  0.00     0.027 A 
HETATM   20  C17 UNL     1      23.734   5.584  48.463  1.00  0.00     0.116 A 
HETATM   21  N3  UNL     1      22.741   5.960  47.643  1.00  0.00    -0.273 NA
HETATM   22  C18 UNL     1      21.466   5.688  47.953  1.00  0.00     0.116 A 
HETATM   23  C19 UNL     1      21.117   5.022  49.103  1.00  0.00     0.027 A 
ENDBRANCH   7  18
TORSDOF 3
ENDMDL
MODEL 4
REMARK VINA RESULT:      -7.5      4.084      5.741
REMARK  3 active torsions:
REMARK  status: ('A' for Active; 'I' for Inactive)
REMARK    1  A    between atoms: C2_2  and  C3_3 
REMARK    2  A    between atoms: C5_5  and  C6_6 
REMARK    3  A    between atoms: C14_17  and  C15_18 
ROOT
HETATM    1  C3  UNL     1      23.402   2.728  49.027  1.00  0.00     0.010 C 
HETATM    2  C4  UNL     1      23.650   2.407  50.259  1.00  0.00    -0.013 A 
HETATM    3  C5  UNL     1      24.798   3.141  50.813  1.00  0.00     0.097 A 
HETATM    4  N1  UNL     1      25.257   3.002  52.009  1.00  0.00    -0.150 NA
HETATM    5  N2  UNL     1      24.638   2.083  52.897  1.00  0.00    -0.165 NA
HETATM    6  C13 UNL     1      23.606   1.405  52.452  1.00  0.00     0.128 A 
HETATM    7  C14 UNL     1      22.939   1.444  51.095  1.00  0.00     0.096 A 
ENDROOT
BRANCH   3   8
HETATM    8  C6  UNL     1      25.583   4.139  50.077  1.00  0.00     0.001 A 
HETATM    9  C7  UNL     1      26.713   3.712  49.407  1.00  0.00     0.016 A 
HETATM   10  C8  UNL     1      27.419   4.710  48.725  1.00  0.00     0.025 A 
HETATM   11  C9  UNL     1      27.025   6.033  48.713  1.00  0.00     0.034 A 
HETATM   12 CL1  UNL     1      27.970   7.207  47.832  1.00  0.00    -0.084 Cl
HETATM   13  C10 UNL     1      25.883   6.399  49.403  1.00  0.00     0.031 A 
HETATM   14  C11 UNL     1      25.136   5.450  50.103  1.00  0.00    -0.048 A 
HETATM   15  C12 UNL     1      23.931   5.897  50.820  1.00  0.00     0.049 C 
ENDBRANCH   3   8
BRANCH   1  16
HETATM   16  C2  UNL     1      22.336   2.181  48.197  1.00  0.00    -0.010 C 
HETATM   17  C1  UNL     1      21.193   2.702  47.779  1.00  0.00     0.011 C 
ENDBRANCH   1  16
BRANCH   7  18
HETATM   18  C15 UNL     1      21.498   1.745  51.310  1.00  0.00    -0.042 A 
HETATM   19  C16 UNL     1      20.743   0.580  51.119  1.00  0.00     0.027 A 
HETATM   20  C17 UNL     1      19.352   0.621  51.262  1.00  0.00     0.116 A 
HETATM   21  N3  UNL     1      18.746   1.774  51.583  1.00  0.00    -0.273 NA
HETATM   22  C18 UNL     1      19.465   2.889  51.767  1.00  0.00     0.116 A 
HETATM   23  C19 UNL     1      20.833   2.910  51.638  1.00  0.00     0.027 A 
ENDBRANCH   7  18
TORSDOF 3
ENDMDL
MODEL 5
REMARK VINA RESULT:      -7.4      3.584      6.869
REMARK  3 active torsions:
REMARK  status: ('A' for Active; 'I' for Inactive)
REMARK    1  A    between atoms: C2_2  and  C3_3 
REMARK    2  A    between atoms: C5_5  and  C6_6 
REMARK    3  A    between atoms: C14_17  and  C15_18 
ROOT
HETATM    1  C3  UNL     1      24.132   2.050  51.841  1.00  0.00     0.010 C 
HETATM    2  C4  UNL     1      23.617   1.095  52.552  1.00  0.00    -0.013 A 
HETATM    3  C5  UNL     1      22.290   0.684  52.068  1.00  0.00     0.097 A 
HETATM    4  N1  UNL     1      21.561  -0.235  52.600  1.00  0.00    -0.150 NA
HETATM    5  N2  UNL     1      22.034  -0.934  53.742  1.00  0.00    -0.165 NA
HETATM    6  C13 UNL     1      23.215  -0.608  54.212  1.00  0.00     0.128 A 
HETATM    7  C14 UNL     1      24.196   0.431  53.716  1.00  0.00     0.096 A 
ENDROOT
BRANCH   3   8
HETATM    8  C6  UNL     1      21.610   1.267  50.906  1.00  0.00     0.001 A 
HETATM    9  C7  UNL     1      21.834   0.699  49.667  1.00  0.00     0.016 A 
HETATM   10  C8  UNL     1      21.158   1.299  48.599  1.00  0.00     0.025 A 
HETATM   11  C9  UNL     1      20.319   2.385  48.758  1.00  0.00     0.034 A 
HETATM   12 CL1  UNL     1      19.517   3.066  47.365  1.00  0.00    -0.084 Cl
HETATM   13  C10 UNL     1      20.134   2.910  50.024  1.00  0.00     0.031 A 
HETATM   14  C11 UNL     1      20.781   2.355  51.130  1.00  0.00    -0.048 A 
HETATM   15  C12 UNL     1      20.546   2.955  52.453  1.00  0.00     0.049 C 
ENDBRANCH   3   8
BRANCH   1  16
HETATM   16  C2  UNL     1      25.429   2.677  52.061  1.00  0.00    -0.010 C 
HETATM   17  C1  UNL     1      26.581   2.560  51.419  1.00  0.00     0.011 C 
ENDBRANCH   1  16
BRANCH   7  18
HETATM   18  C15 UNL     1      25.491  -0.257  53.464  1.00  0.00    -0.042 A 
HETATM   19  C16 UNL     1      26.451   0.203  54.377  1.00  0.00     0.027 A 
HETATM   20  C17 UNL     1      27.754  -0.301  54.329  1.00  0.00     0.116 A 
HETATM   21  N3  UNL     1      28.083  -1.222  53.410  1.00  0.00    -0.273 NA
HETATM   22  C18 UNL     1      27.168  -1.663  52.536  1.00  0.00     0.116 A 
HETATM   23  C19 UNL     1      25.873  -1.205  52.535  1.00  0.00     0.027 A 
ENDBRANCH   7  18
TORSDOF 3
ENDMDL
MODEL 6
REMARK VINA RESULT:      -7.3      3.216      4.655
REMARK  3 active torsions:
REMARK  status: ('A' for Active; 'I' for Inactive)
REMARK    1  A    between atoms: C2_2  and  C3_3 
REMARK    2  A    between atoms: C5_5  and  C6_6 
REMARK    3  A    between atoms: C14_17  and  C15_18 
ROOT
HETATM    1  C3  UNL     1      22.061   0.882  50.586  1.00  0.00     0.010 C 
HETATM    2  C4  UNL     1      21.381   0.543  51.638  1.00  0.00    -0.013 A 
HETATM    3  C5  UNL     1      22.199   0.537  52.860  1.00  0.00     0.097 A 
HETATM    4  N1  UNL     1      21.770   0.229  54.036  1.00  0.00    -0.150 NA
HETATM    5  N2  UNL     1      20.409  -0.136  54.214  1.00  0.00    -0.165 NA
HETATM    6  C13 UNL     1      19.636  -0.142  53.154  1.00  0.00     0.128 A 
HETATM    7  C14 UNL     1      19.967   0.191  51.716  1.00  0.00     0.096 A 
ENDROOT
BRANCH   3   8
HETATM    8  C6  UNL     1      23.625   0.882  52.911  1.00  0.00     0.001 A 
HETATM    9  C7  UNL     1      24.540  -0.146  53.030  1.00  0.00     0.016 A 
HETATM   10  C8  UNL     1      25.882   0.247  53.074  1.00  0.00     0.025 A 
HETATM   11  C9  UNL     1      26.280   1.567  53.003  1.00  0.00     0.034 A 
HETATM   12 CL1  UNL     1      27.980   1.960  53.064  1.00  0.00    -0.084 Cl
HETATM   13  C10 UNL     1      25.317   2.553  52.884  1.00  0.00     0.031 A 
HETATM   14  C11 UNL     1      23.960   2.224  52.835  1.00  0.00    -0.048 A 
HETATM   15  C12 UNL     1      22.980   3.314  52.707  1.00  0.00     0.049 C 
ENDBRANCH   3   8
BRANCH   1  16
HETATM   16  C2  UNL     1      21.543   0.982  49.228  1.00  0.00    -0.010 C 
HETATM   17  C1  UNL     1      21.911   1.733  48.201  1.00  0.00     0.011 C 
ENDBRANCH   1  16
BRANCH   7  18
HETATM   18  C15 UNL     1      19.030   1.259  51.273  1.00  0.00    -0.042 A 
HETATM   19  C16 UNL     1      18.099   0.722  50.373  1.00  0.00     0.027 A 
HETATM   20  C17 UNL     1      17.116   1.545  49.816  1.00  0.00     0.116 A 
HETATM   21  N3  UNL     1      17.066   2.845  50.144  1.00  0.00    -0.273 NA
HETATM   22  C18 UNL     1      17.954   3.361  51.004  1.00  0.00     0.116 A 
HETATM   23  C19 UNL     1      18.942   2.602  51.583  1.00  0.00     0.027 A 
ENDBRANCH   7  18
TORSDOF 3
ENDMDL
MODEL 7
REMARK VINA RESULT:      -6.8      3.935      6.023
REMARK  3 active torsions:
REMARK  status: ('A' for Active; 'I' for Inactive)
REMARK    1  A    between atoms: C2_2  and  C3_3 
REMARK    2  A    between atoms: C5_5  and  C6_6 
REMARK    3  A    between atoms: C14_17  and  C15_18 
ROOT
HETATM    1  C3  UNL     1      23.905   5.542  50.977  1.00  0.00     0.010 C 
HETATM    2  C4  UNL     1      24.963   5.253  50.284  1.00  0.00    -0.013 A 
HETATM    3  C5  UNL     1      25.322   3.829  50.372  1.00  0.00     0.097 A 
HETATM    4  N1  UNL     1      26.332   3.284  49.786  1.00  0.00    -0.150 NA
HETATM    5  N2  UNL     1      27.192   4.079  48.983  1.00  0.00    -0.165 NA
HETATM    6  C13 UNL     1      26.913   5.356  48.870  1.00  0.00     0.128 A 
HETATM    7  C14 UNL     1      25.779   6.153  49.476  1.00  0.00     0.096 A 
ENDROOT
BRANCH   3   8
HETATM    8  C6  UNL     1      24.576   2.826  51.141  1.00  0.00     0.001 A 
HETATM    9  C7  UNL     1      25.020   2.518  52.412  1.00  0.00     0.016 A 
HETATM   10  C8  UNL     1      24.268   1.555  53.095  1.00  0.00     0.025 A 
HETATM   11  C9  UNL     1      23.154   0.948  52.548  1.00  0.00     0.034 A 
HETATM   12 CL1  UNL     1      22.278  -0.242  53.477  1.00  0.00    -0.084 Cl
HETATM   13  C10 UNL     1      22.757   1.299  51.270  1.00  0.00     0.031 A 
HETATM   14  C11 UNL     1      23.468   2.253  50.538  1.00  0.00    -0.048 A 
HETATM   15  C12 UNL     1      23.000   2.587  49.184  1.00  0.00     0.049 C 
ENDBRANCH   3   8
BRANCH   1  16
HETATM   16  C2  UNL     1      23.295   6.860  51.098  1.00  0.00    -0.010 C 
HETATM   17  C1  UNL     1      22.132   7.331  50.674  1.00  0.00     0.011 C 
ENDBRANCH   1  16
BRANCH   7  18
HETATM   18  C15 UNL     1      25.055   6.825  48.363  1.00  0.00    -0.042 A 
HETATM   19  C16 UNL     1      25.625   8.084  48.127  1.00  0.00     0.027 A 
HETATM   20  C17 UNL     1      25.103   8.906  47.123  1.00  0.00     0.116 A 
HETATM   21  N3  UNL     1      24.060   8.488  46.390  1.00  0.00    -0.273 NA
HETATM   22  C18 UNL     1      23.513   7.286  46.613  1.00  0.00     0.116 A 
HETATM   23  C19 UNL     1      23.982   6.435  47.585  1.00  0.00     0.027 A 
ENDBRANCH   7  18
TORSDOF 3
ENDMDL
MODEL 8
REMARK VINA RESULT:      -6.8      4.256      5.924
REMARK  3 active torsions:
REMARK  status: ('A' for Active; 'I' for Inactive)
REMARK    1  A    between atoms: C2_2  and  C3_3 
REMARK    2  A    between atoms: C5_5  and  C6_6 
REMARK    3  A    between atoms: C14_17  and  C15_18 
ROOT
HETATM    1  C3  UNL     1      23.206   2.683  49.201  1.00  0.00     0.010 C 
HETATM    2  C4  UNL     1      23.436   2.479  50.462  1.00  0.00    -0.013 A 
HETATM    3  C5  UNL     1      24.328   3.494  51.043  1.00  0.00     0.097 A 
HETATM    4  N1  UNL     1      24.721   3.517  52.270  1.00  0.00    -0.150 NA
HETATM    5  N2  UNL     1      24.284   2.507  53.167  1.00  0.00    -0.165 NA
HETATM    6  C13 UNL     1      23.483   1.579  52.698  1.00  0.00     0.128 A 
HETATM    7  C14 UNL     1      22.925   1.402  51.304  1.00  0.00     0.096 A 
ENDROOT
BRANCH   3   8
HETATM    8  C6  UNL     1      24.896   4.627  50.303  1.00  0.00     0.001 A 
HETATM    9  C7  UNL     1      24.233   5.838  50.357  1.00  0.00     0.016 A 
HETATM   10  C8  UNL     1      24.824   6.878  49.631  1.00  0.00     0.025 A 
HETATM   11  C9  UNL     1      25.990   6.721  48.907  1.00  0.00     0.034 A 
HETATM   12 CL1  UNL     1      26.653   8.078  48.033  1.00  0.00    -0.084 Cl
HETATM   13  C10 UNL     1      26.609   5.483  48.892  1.00  0.00     0.031 A 
HETATM   14  C11 UNL     1      26.068   4.405  49.597  1.00  0.00    -0.048 A 
HETATM   15  C12 UNL     1      26.768   3.112  49.545  1.00  0.00     0.049 C 
ENDBRANCH   3   8
BRANCH   1  16
HETATM   16  C2  UNL     1      22.367   1.859  48.340  1.00  0.00    -0.010 C 
HETATM   17  C1  UNL     1      21.211   2.105  47.744  1.00  0.00     0.011 C 
ENDBRANCH   1  16
BRANCH   7  18
HETATM   18  C15 UNL     1      21.442   1.345  51.415  1.00  0.00    -0.042 A 
HETATM   19  C16 UNL     1      20.968   2.541  51.970  1.00  0.00     0.027 A 
HETATM   20  C17 UNL     1      19.596   2.716  52.177  1.00  0.00     0.116 A 
HETATM   21  N3  UNL     1      18.739   1.740  51.843  1.00  0.00    -0.273 NA
HETATM   22  C18 UNL     1      19.189   0.595  51.312  1.00  0.00     0.116 A 
HETATM   23  C19 UNL     1      20.525   0.366  51.087  1.00  0.00     0.027 A 
ENDBRANCH   7  18
TORSDOF 3
ENDMDL
MODEL 9
REMARK VINA RESULT:      -6.8      4.153      7.021
REMARK  3 active torsions:
REMARK  status: ('A' for Active; 'I' for Inactive)
REMARK    1  A    between atoms: C2_2  and  C3_3 
REMARK    2  A    between atoms: C5_5  and  C6_6 
REMARK    3  A    between atoms: C14_17  and  C15_18 
ROOT
HETATM    1  C3  UNL     1      22.234   3.206  52.155  1.00  0.00     0.010 C 
HETATM    2  C4  UNL     1      22.483   1.976  52.483  1.00  0.00    -0.013 A 
HETATM    3  C5  UNL     1      21.479   1.038  51.957  1.00  0.00     0.097 A 
HETATM    4  N1  UNL     1      21.488  -0.237  52.146  1.00  0.00    -0.150 NA
HETATM    5  N2  UNL     1      22.529  -0.827  52.912  1.00  0.00    -0.165 NA
HETATM    6  C13 UNL     1      23.452  -0.033  53.400  1.00  0.00     0.128 A 
HETATM    7  C14 UNL     1      23.598   1.467  53.275  1.00  0.00     0.096 A 
ENDROOT
BRANCH   3   8
HETATM    8  C6  UNL     1      20.323   1.425  51.141  1.00  0.00     0.001 A 
HETATM    9  C7  UNL     1      19.129   1.687  51.786  1.00  0.00     0.016 A 
HETATM   10  C8  UNL     1      18.065   2.051  50.953  1.00  0.00     0.025 A 
HETATM   11  C9  UNL     1      18.184   2.147  49.581  1.00  0.00     0.034 A 
HETATM   12 CL1  UNL     1      16.799   2.609  48.625  1.00  0.00    -0.084 Cl
HETATM   13  C10 UNL     1      19.406   1.873  48.993  1.00  0.00     0.031 A 
HETATM   14  C11 UNL     1      20.506   1.504  49.770  1.00  0.00    -0.048 A 
HETATM   15  C12 UNL     1      21.781   1.224  49.090  1.00  0.00     0.049 C 
ENDBRANCH   3   8
BRANCH   1  16
HETATM   16  C2  UNL     1      23.035   4.368  52.519  1.00  0.00    -0.010 C 
HETATM   17  C1  UNL     1      23.441   5.411  51.812  1.00  0.00     0.011 C 
ENDBRANCH   1  16
BRANCH   7  18
HETATM   18  C15 UNL     1      24.946   1.743  52.709  1.00  0.00    -0.042 A 
HETATM   19  C16 UNL     1      25.867   1.910  53.753  1.00  0.00     0.027 A 
HETATM   20  C17 UNL     1      27.207   2.186  53.460  1.00  0.00     0.116 A 
HETATM   21  N3  UNL     1      27.606   2.289  52.184  1.00  0.00    -0.273 NA
HETATM   22  C18 UNL     1      26.728   2.131  51.184  1.00  0.00     0.116 A 
HETATM   23  C19 UNL     1      25.400   1.859  51.410  1.00  0.00     0.027 A 
ENDBRANCH   7  18
TORSDOF 3
ENDMDL
