MODEL 1
REMARK VINA RESULT:      -8.3      0.000      0.000
REMARK  0 active torsions:
REMARK  status: ('A' for Active; 'I' for Inactive)
ROOT
HETATM    1  O1  UNL     1      27.164   8.018  50.005  1.00  0.00    -0.123 OA
HETATM    2  C1  UNL     1      26.012   8.122  50.458  1.00  0.00     0.401 A 
HETATM    3  C2  UNL     1      25.892   6.819  49.851  1.00  0.00     0.055 C 
HETATM    4  C3  UNL     1      26.328   5.788  49.204  1.00  0.00    -0.002 C 
HETATM    5  C4  UNL     1      27.512   5.269  48.583  1.00  0.00    -0.017 C 
HETATM    6  C5  UNL     1      28.725   5.190  48.179  1.00  0.00     0.042 C 
HETATM    7  C6  UNL     1      30.073   5.439  47.906  1.00  0.00    -0.016 C 
HETATM    8  C7  UNL     1      31.302   5.593  47.618  1.00  0.00     0.016 C 
HETATM    9  C8  UNL     1      32.468   6.476  47.742  1.00  0.00     0.011 A 
HETATM   10  S1  UNL     1      33.699   5.858  48.751  1.00  0.00    -0.102 SA
HETATM   11  C9  UNL     1      34.852   7.289  48.582  1.00  0.00     0.051 A 
HETATM   12  C10 UNL     1      34.098   8.025  47.767  1.00  0.00     0.016 A 
HETATM   13  C11 UNL     1      32.871   7.697  47.284  1.00  0.00    -0.036 A 
HETATM   14  C12 UNL     1      32.102   8.588  46.361  1.00  0.00     0.087 C 
HETATM   15  C13 UNL     1      31.502   9.736  46.957  1.00  0.00     0.007 A 
HETATM   16  C14 UNL     1      31.444  11.068  47.173  1.00  0.00     0.133 A 
HETATM   17  N1  UNL     1      30.474  11.553  47.956  1.00  0.00    -0.247 NA
HETATM   18  C15 UNL     1      29.668  10.856  48.463  1.00  0.00     0.167 A 
HETATM   19  S2  UNL     1      30.096   9.152  47.925  1.00  0.00    -0.068 SA
HETATM   20  C16 UNL     1      28.518  10.255  49.243  1.00  0.00     0.303 C 
HETATM   21  O2  UNL     1      27.558  10.418  48.523  1.00  0.00    -0.264 OA
HETATM   22  N2  UNL     1      28.186   9.610  50.433  1.00  0.00    -0.150 N 
HETATM   23  N3  UNL     1      26.872   9.210  50.695  1.00  0.00     0.184 N 
HETATM   24  H12 UNL     1      29.140   9.678  50.756  1.00  0.00     0.200 HD
HETATM   25  H13 UNL     1      26.596  10.051  51.216  1.00  0.00     0.354 HD
ENDROOT
TORSDOF 0
ENDMDL
MODEL 2
REMARK VINA RESULT:      -8.2      2.397      3.155
REMARK  0 active torsions:
REMARK  status: ('A' for Active; 'I' for Inactive)
ROOT
HETATM    1  O1  UNL     1      24.801   6.622  50.725  1.00  0.00    -0.123 OA
HETATM    2  C1  UNL     1      23.752   6.345  51.331  1.00  0.00     0.401 A 
HETATM    3  C2  UNL     1      24.110   5.018  50.893  1.00  0.00     0.055 C 
HETATM    4  C3  UNL     1      24.861   4.147  50.303  1.00  0.00    -0.002 C 
HETATM    5  C4  UNL     1      26.090   4.032  49.572  1.00  0.00    -0.017 C 
HETATM    6  C5  UNL     1      27.188   4.364  49.003  1.00  0.00     0.042 C 
HETATM    7  C6  UNL     1      28.289   5.066  48.507  1.00  0.00    -0.016 C 
HETATM    8  C7  UNL     1      29.320   5.634  48.024  1.00  0.00     0.016 C 
HETATM    9  C8  UNL     1      30.038   6.905  47.876  1.00  0.00     0.011 A 
HETATM   10  S1  UNL     1      31.503   6.977  48.751  1.00  0.00    -0.102 SA
HETATM   11  C9  UNL     1      31.962   8.696  48.258  1.00  0.00     0.051 A 
HETATM   12  C10 UNL     1      30.902   8.945  47.490  1.00  0.00     0.016 A 
HETATM   13  C11 UNL     1      29.872   8.098  47.234  1.00  0.00    -0.036 A 
HETATM   14  C12 UNL     1      28.725   8.466  46.345  1.00  0.00     0.087 C 
HETATM   15  C13 UNL     1      27.774   9.373  46.897  1.00  0.00     0.007 A 
HETATM   16  C14 UNL     1      27.205  10.596  46.975  1.00  0.00     0.133 A 
HETATM   17  N1  UNL     1      26.200  10.787  47.836  1.00  0.00    -0.247 NA
HETATM   18  C15 UNL     1      25.795   9.923  48.530  1.00  0.00     0.167 A 
HETATM   19  S2  UNL     1      26.819   8.454  48.121  1.00  0.00    -0.068 SA
HETATM   20  C16 UNL     1      25.062   9.057  49.533  1.00  0.00     0.303 C 
HETATM   21  O2  UNL     1      24.054   8.722  48.951  1.00  0.00    -0.264 OA
HETATM   22  N2  UNL     1      25.131   8.531  50.822  1.00  0.00    -0.150 N 
HETATM   23  N3  UNL     1      24.120   7.703  51.319  1.00  0.00     0.184 N 
HETATM   24  H12 UNL     1      26.003   9.012  50.989  1.00  0.00     0.200 HD
HETATM   25  H13 UNL     1      23.580   8.444  51.781  1.00  0.00     0.354 HD
ENDROOT
TORSDOF 0
ENDMDL
MODEL 3
REMARK VINA RESULT:      -8.2      3.266      4.555
REMARK  0 active torsions:
REMARK  status: ('A' for Active; 'I' for Inactive)
ROOT
HETATM    1  O1  UNL     1      24.225   5.614  51.170  1.00  0.00    -0.123 OA
HETATM    2  C1  UNL     1      23.334   5.092  51.862  1.00  0.00     0.401 A 
HETATM    3  C2  UNL     1      23.975   3.891  51.387  1.00  0.00     0.055 C 
HETATM    4  C3  UNL     1      24.869   3.226  50.731  1.00  0.00    -0.002 C 
HETATM    5  C4  UNL     1      26.022   3.412  49.897  1.00  0.00    -0.017 C 
HETATM    6  C5  UNL     1      26.951   3.999  49.239  1.00  0.00     0.042 C 
HETATM    7  C6  UNL     1      27.795   4.947  48.656  1.00  0.00    -0.016 C 
HETATM    8  C7  UNL     1      28.607   5.748  48.091  1.00  0.00     0.016 C 
HETATM    9  C8  UNL     1      28.967   7.156  47.891  1.00  0.00     0.011 A 
HETATM   10  S1  UNL     1      30.435   7.606  48.639  1.00  0.00    -0.102 SA
HETATM   11  C9  UNL     1      30.405   9.378  48.120  1.00  0.00     0.051 A 
HETATM   12  C10 UNL     1      29.257   9.342  47.446  1.00  0.00     0.016 A 
HETATM   13  C11 UNL     1      28.454   8.259  47.272  1.00  0.00    -0.036 A 
HETATM   14  C12 UNL     1      27.182   8.314  46.486  1.00  0.00     0.087 C 
HETATM   15  C13 UNL     1      26.083   8.962  47.121  1.00  0.00     0.007 A 
HETATM   16  C14 UNL     1      25.233  10.005  47.254  1.00  0.00     0.133 A 
HETATM   17  N1  UNL     1      24.288   9.952  48.199  1.00  0.00    -0.247 NA
HETATM   18  C15 UNL     1      24.172   9.024  48.919  1.00  0.00     0.167 A 
HETATM   19  S2  UNL     1      25.494   7.852  48.416  1.00  0.00    -0.068 SA
HETATM   20  C16 UNL     1      23.767   8.018  49.975  1.00  0.00     0.303 C 
HETATM   21  O2  UNL     1      22.830   7.432  49.478  1.00  0.00    -0.264 OA
HETATM   22  N2  UNL     1      24.073   7.546  51.250  1.00  0.00    -0.150 N 
HETATM   23  N3  UNL     1      23.347   6.499  51.826  1.00  0.00     0.184 N 
HETATM   24  H12 UNL     1      24.806   8.233  51.347  1.00  0.00     0.200 HD
HETATM   25  H13 UNL     1      22.678   7.088  52.337  1.00  0.00     0.354 HD
ENDROOT
TORSDOF 0
ENDMDL
MODEL 4
REMARK VINA RESULT:      -8.1      7.050      9.381
REMARK  0 active torsions:
REMARK  status: ('A' for Active; 'I' for Inactive)
ROOT
HETATM    1  O1  UNL     1      21.042   3.058  52.160  1.00  0.00    -0.123 OA
HETATM    2  C1  UNL     1      19.887   3.480  51.980  1.00  0.00     0.401 A 
HETATM    3  C2  UNL     1      19.584   2.081  52.157  1.00  0.00     0.055 C 
HETATM    4  C3  UNL     1      19.878   0.843  52.386  1.00  0.00    -0.002 C 
HETATM    5  C4  UNL     1      20.994  -0.014  52.668  1.00  0.00    -0.017 C 
HETATM    6  C5  UNL     1      22.197  -0.391  52.897  1.00  0.00     0.042 C 
HETATM    7  C6  UNL     1      23.577  -0.434  53.105  1.00  0.00    -0.016 C 
HETATM    8  C7  UNL     1      24.828  -0.555  53.305  1.00  0.00     0.016 C 
HETATM    9  C8  UNL     1      26.107   0.157  53.407  1.00  0.00     0.011 A 
HETATM   10  S1  UNL     1      26.759   0.182  54.984  1.00  0.00    -0.102 SA
HETATM   11  C9  UNL     1      28.269   1.163  54.575  1.00  0.00     0.051 A 
HETATM   12  C10 UNL     1      28.029   1.317  53.274  1.00  0.00     0.016 A 
HETATM   13  C11 UNL     1      26.957   0.842  52.588  1.00  0.00    -0.036 A 
HETATM   14  C12 UNL     1      26.778   1.059  51.118  1.00  0.00     0.087 C 
HETATM   15  C13 UNL     1      26.383   2.371  50.724  1.00  0.00     0.007 A 
HETATM   16  C14 UNL     1      26.646   3.574  50.166  1.00  0.00     0.133 A 
HETATM   17  N1  UNL     1      25.669   4.486  50.110  1.00  0.00    -0.247 NA
HETATM   18  C15 UNL     1      24.587   4.274  50.529  1.00  0.00     0.167 A 
HETATM   19  S2  UNL     1      24.650   2.560  51.188  1.00  0.00    -0.068 SA
HETATM   20  C16 UNL     1      23.137   4.323  50.965  1.00  0.00     0.303 C 
HETATM   21  O2  UNL     1      22.518   4.086  49.951  1.00  0.00    -0.264 OA
HETATM   22  N2  UNL     1      22.303   4.529  52.062  1.00  0.00    -0.150 N 
HETATM   23  N3  UNL     1      20.912   4.442  51.937  1.00  0.00     0.184 N 
HETATM   24  H12 UNL     1      23.098   4.717  52.653  1.00  0.00     0.200 HD
HETATM   25  H13 UNL     1      20.748   5.444  51.778  1.00  0.00     0.354 HD
ENDROOT
TORSDOF 0
ENDMDL
MODEL 5
REMARK VINA RESULT:      -8.0      8.105     10.282
REMARK  0 active torsions:
REMARK  status: ('A' for Active; 'I' for Inactive)
ROOT
HETATM    1  O1  UNL     1      23.922   0.196  53.473  1.00  0.00    -0.123 OA
HETATM    2  C1  UNL     1      23.959  -0.730  54.301  1.00  0.00     0.401 A 
HETATM    3  C2  UNL     1      25.339  -0.755  53.882  1.00  0.00     0.055 C 
HETATM    4  C3  UNL     1      26.360  -0.345  53.205  1.00  0.00    -0.002 C 
HETATM    5  C4  UNL     1      26.746   0.646  52.241  1.00  0.00    -0.017 C 
HETATM    6  C5  UNL     1      26.667   1.639  51.436  1.00  0.00     0.042 C 
HETATM    7  C6  UNL     1      26.224   2.725  50.678  1.00  0.00    -0.016 C 
HETATM    8  C7  UNL     1      25.897   3.720  49.955  1.00  0.00     0.016 C 
HETATM    9  C8  UNL     1      24.811   4.633  49.581  1.00  0.00     0.011 A 
HETATM   10  S1  UNL     1      25.038   6.236  50.125  1.00  0.00    -0.102 SA
HETATM   11  C9  UNL     1      23.465   6.918  49.440  1.00  0.00     0.051 A 
HETATM   12  C10 UNL     1      23.009   5.791  48.896  1.00  0.00     0.016 A 
HETATM   13  C11 UNL     1      23.621   4.578  48.914  1.00  0.00    -0.036 A 
HETATM   14  C12 UNL     1      23.032   3.366  48.263  1.00  0.00     0.087 C 
HETATM   15  C13 UNL     1      21.935   2.764  48.944  1.00  0.00     0.007 A 
HETATM   16  C14 UNL     1      20.617   2.487  49.061  1.00  0.00     0.133 A 
HETATM   17  N1  UNL     1      20.201   1.755  50.100  1.00  0.00    -0.247 NA
HETATM   18  C15 UNL     1      20.947   1.342  50.916  1.00  0.00     0.167 A 
HETATM   19  S2  UNL     1      22.608   1.930  50.395  1.00  0.00    -0.068 SA
HETATM   20  C16 UNL     1      21.620   0.684  52.103  1.00  0.00     0.303 C 
HETATM   21  O2  UNL     1      21.742  -0.473  51.766  1.00  0.00    -0.264 OA
HETATM   22  N2  UNL     1      22.126   0.923  53.379  1.00  0.00    -0.150 N 
HETATM   23  N3  UNL     1      22.711  -0.104  54.127  1.00  0.00     0.184 N 
HETATM   24  H12 UNL     1      21.839   1.889  53.330  1.00  0.00     0.200 HD
HETATM   25  H13 UNL     1      21.864  -0.367  54.645  1.00  0.00     0.354 HD
ENDROOT
TORSDOF 0
ENDMDL
MODEL 6
REMARK VINA RESULT:      -7.7      5.060      6.756
REMARK  0 active torsions:
REMARK  status: ('A' for Active; 'I' for Inactive)
ROOT
HETATM    1  O1  UNL     1      24.189   3.871  51.913  1.00  0.00    -0.123 OA
HETATM    2  C1  UNL     1      23.777   2.916  52.594  1.00  0.00     0.401 A 
HETATM    3  C2  UNL     1      24.748   2.211  51.792  1.00  0.00     0.055 C 
HETATM    4  C3  UNL     1      25.672   2.118  50.894  1.00  0.00    -0.002 C 
HETATM    5  C4  UNL     1      26.426   2.915  49.968  1.00  0.00    -0.017 C 
HETATM    6  C5  UNL     1      26.850   3.940  49.328  1.00  0.00     0.042 C 
HETATM    7  C6  UNL     1      27.063   5.234  48.848  1.00  0.00    -0.016 C 
HETATM    8  C7  UNL     1      27.314   6.381  48.359  1.00  0.00     0.016 C 
HETATM    9  C8  UNL     1      26.990   7.812  48.414  1.00  0.00     0.011 A 
HETATM   10  S1  UNL     1      28.252   8.782  49.031  1.00  0.00    -0.102 SA
HETATM   11  C9  UNL     1      27.361  10.395  48.908  1.00  0.00     0.051 A 
HETATM   12  C10 UNL     1      26.221   9.925  48.406  1.00  0.00     0.016 A 
HETATM   13  C11 UNL     1      25.936   8.628  48.119  1.00  0.00    -0.036 A 
HETATM   14  C12 UNL     1      24.623   8.196  47.545  1.00  0.00     0.087 C 
HETATM   15  C13 UNL     1      23.521   8.184  48.448  1.00  0.00     0.007 A 
HETATM   16  C14 UNL     1      22.361   8.697  48.914  1.00  0.00     0.133 A 
HETATM   17  N1  UNL     1      21.758   8.098  49.947  1.00  0.00    -0.247 NA
HETATM   18  C15 UNL     1      22.206   7.137  50.463  1.00  0.00     0.167 A 
HETATM   19  S2  UNL     1      23.756   6.772  49.547  1.00  0.00    -0.068 SA
HETATM   20  C16 UNL     1      22.507   5.931  51.328  1.00  0.00     0.303 C 
HETATM   21  O2  UNL     1      21.824   5.051  50.852  1.00  0.00    -0.264 OA
HETATM   22  N2  UNL     1      23.253   5.492  52.420  1.00  0.00    -0.150 N 
HETATM   23  N3  UNL     1      23.185   4.165  52.855  1.00  0.00     0.184 N 
HETATM   24  H12 UNL     1      23.628   6.419  52.558  1.00  0.00     0.200 HD
HETATM   25  H13 UNL     1      22.458   4.314  53.566  1.00  0.00     0.354 HD
ENDROOT
TORSDOF 0
ENDMDL
MODEL 7
REMARK VINA RESULT:      -7.3      4.206      6.498
REMARK  0 active torsions:
REMARK  status: ('A' for Active; 'I' for Inactive)
ROOT
HETATM    1  O1  UNL     1      34.375   4.611  47.401  1.00  0.00    -0.123 OA
HETATM    2  C1  UNL     1      34.881   3.568  47.849  1.00  0.00     0.401 A 
HETATM    3  C2  UNL     1      35.102   3.333  46.442  1.00  0.00     0.055 C 
HETATM    4  C3  UNL     1      35.052   3.636  45.187  1.00  0.00    -0.002 C 
HETATM    5  C4  UNL     1      34.625   4.678  44.297  1.00  0.00    -0.017 C 
HETATM    6  C5  UNL     1      34.137   5.790  43.891  1.00  0.00     0.042 C 
HETATM    7  C6  UNL     1      33.558   7.059  43.816  1.00  0.00    -0.016 C 
HETATM    8  C7  UNL     1      33.037   8.210  43.665  1.00  0.00     0.016 C 
HETATM    9  C8  UNL     1      32.473   9.377  44.353  1.00  0.00     0.011 A 
HETATM   10  S1  UNL     1      33.439  10.780  44.237  1.00  0.00    -0.102 SA
HETATM   11  C9  UNL     1      32.340  11.879  45.233  1.00  0.00     0.051 A 
HETATM   12  C10 UNL     1      31.393  10.981  45.500  1.00  0.00     0.016 A 
HETATM   13  C11 UNL     1      31.370   9.684  45.097  1.00  0.00    -0.036 A 
HETATM   14  C12 UNL     1      30.252   8.751  45.439  1.00  0.00     0.087 C 
HETATM   15  C13 UNL     1      30.224   8.278  46.784  1.00  0.00     0.007 A 
HETATM   16  C14 UNL     1      29.694   8.262  48.027  1.00  0.00     0.133 A 
HETATM   17  N1  UNL     1      30.238   7.462  48.950  1.00  0.00    -0.247 NA
HETATM   18  C15 UNL     1      31.164   6.770  48.715  1.00  0.00     0.167 A 
HETATM   19  S2  UNL     1      31.568   7.085  46.951  1.00  0.00    -0.068 SA
HETATM   20  C16 UNL     1      32.320   5.792  48.741  1.00  0.00     0.303 C 
HETATM   21  O2  UNL     1      31.792   4.711  48.598  1.00  0.00    -0.264 OA
HETATM   22  N2  UNL     1      33.705   5.696  48.862  1.00  0.00    -0.150 N 
HETATM   23  N3  UNL     1      34.351   4.458  48.800  1.00  0.00     0.184 N 
HETATM   24  H12 UNL     1      33.779   6.695  48.991  1.00  0.00     0.200 HD
HETATM   25  H13 UNL     1      34.373   4.288  49.814  1.00  0.00     0.354 HD
ENDROOT
TORSDOF 0
ENDMDL
MODEL 8
REMARK VINA RESULT:      -7.2      8.671     10.748
REMARK  0 active torsions:
REMARK  status: ('A' for Active; 'I' for Inactive)
ROOT
HETATM    1  O1  UNL     1      21.656   0.852  53.121  1.00  0.00    -0.123 OA
HETATM    2  C1  UNL     1      21.396   0.036  54.023  1.00  0.00     0.401 A 
HETATM    3  C2  UNL     1      22.817  -0.192  53.924  1.00  0.00     0.055 C 
HETATM    4  C3  UNL     1      24.002   0.017  53.452  1.00  0.00    -0.002 C 
HETATM    5  C4  UNL     1      24.709   0.833  52.507  1.00  0.00    -0.017 C 
HETATM    6  C5  UNL     1      24.932   1.721  51.611  1.00  0.00     0.042 C 
HETATM    7  C6  UNL     1      24.805   2.748  50.672  1.00  0.00    -0.016 C 
HETATM    8  C7  UNL     1      24.772   3.675  49.802  1.00  0.00     0.016 C 
HETATM    9  C8  UNL     1      23.918   4.649  49.111  1.00  0.00     0.011 A 
HETATM   10  S1  UNL     1      24.240   6.272  49.533  1.00  0.00    -0.102 SA
HETATM   11  C9  UNL     1      22.949   7.033  48.455  1.00  0.00     0.051 A 
HETATM   12  C10 UNL     1      22.469   5.904  47.936  1.00  0.00     0.016 A 
HETATM   13  C11 UNL     1      22.896   4.643  48.206  1.00  0.00    -0.036 A 
HETATM   14  C12 UNL     1      22.299   3.432  47.562  1.00  0.00     0.087 C 
HETATM   15  C13 UNL     1      21.013   3.042  48.038  1.00  0.00     0.007 A 
HETATM   16  C14 UNL     1      19.675   2.929  47.887  1.00  0.00     0.133 A 
HETATM   17  N1  UNL     1      18.958   2.380  48.875  1.00  0.00    -0.247 NA
HETATM   18  C15 UNL     1      19.457   1.992  49.871  1.00  0.00     0.167 A 
HETATM   19  S2  UNL     1      21.253   2.325  49.676  1.00  0.00    -0.068 SA
HETATM   20  C16 UNL     1      19.775   1.416  51.235  1.00  0.00     0.303 C 
HETATM   21  O2  UNL     1      19.808   0.220  51.047  1.00  0.00    -0.264 OA
HETATM   22  N2  UNL     1      20.032   1.753  52.562  1.00  0.00    -0.150 N 
HETATM   23  N3  UNL     1      20.307   0.769  53.517  1.00  0.00     0.184 N 
HETATM   24  H12 UNL     1      19.894   2.732  52.358  1.00  0.00     0.200 HD
HETATM   25  H13 UNL     1      19.343   0.666  53.858  1.00  0.00     0.354 HD
ENDROOT
TORSDOF 0
ENDMDL
MODEL 9
REMARK VINA RESULT:      -7.2      3.458      5.691
REMARK  0 active torsions:
REMARK  status: ('A' for Active; 'I' for Inactive)
ROOT
HETATM    1  O1  UNL     1      30.584   9.036  48.552  1.00  0.00    -0.123 OA
HETATM    2  C1  UNL     1      30.012   9.669  49.457  1.00  0.00     0.401 A 
HETATM    3  C2  UNL     1      30.810  10.740  48.911  1.00  0.00     0.055 C 
HETATM    4  C3  UNL     1      31.655  11.260  48.082  1.00  0.00    -0.002 C 
HETATM    5  C4  UNL     1      32.463  10.929  46.943  1.00  0.00    -0.017 C 
HETATM    6  C5  UNL     1      32.987  10.244  45.996  1.00  0.00     0.042 C 
HETATM    7  C6  UNL     1      33.342   9.227  45.108  1.00  0.00    -0.016 C 
HETATM    8  C7  UNL     1      33.717   8.354  44.261  1.00  0.00     0.016 C 
HETATM    9  C8  UNL     1      33.562   6.965  43.813  1.00  0.00     0.011 A 
HETATM   10  S1  UNL     1      32.789   6.811  42.298  1.00  0.00    -0.102 SA
HETATM   11  C9  UNL     1      32.830   4.967  42.224  1.00  0.00     0.051 A 
HETATM   12  C10 UNL     1      33.439   4.760  43.391  1.00  0.00     0.016 A 
HETATM   13  C11 UNL     1      33.850   5.711  44.269  1.00  0.00    -0.036 A 
HETATM   14  C12 UNL     1      34.538   5.380  45.556  1.00  0.00     0.087 C 
HETATM   15  C13 UNL     1      33.708   4.859  46.591  1.00  0.00     0.007 A 
HETATM   16  C14 UNL     1      33.272   3.840  47.365  1.00  0.00     0.133 A 
HETATM   17  N1  UNL     1      32.332   4.085  48.284  1.00  0.00    -0.247 NA
HETATM   18  C15 UNL     1      31.871   5.159  48.441  1.00  0.00     0.167 A 
HETATM   19  S2  UNL     1      32.719   6.233  47.215  1.00  0.00    -0.068 SA
HETATM   20  C16 UNL     1      31.095   6.382  48.883  1.00  0.00     0.303 C 
HETATM   21  O2  UNL     1      31.684   6.763  49.870  1.00  0.00    -0.264 OA
HETATM   22  N2  UNL     1      30.000   7.187  48.573  1.00  0.00    -0.150 N 
HETATM   23  N3  UNL     1      29.683   8.305  49.351  1.00  0.00     0.184 N 
HETATM   24  H12 UNL     1      29.762   6.592  47.793  1.00  0.00     0.200 HD
HETATM   25  H13 UNL     1      29.008   7.832  49.964  1.00  0.00     0.354 HD
ENDROOT
TORSDOF 0
ENDMDL
