MODEL 1
REMARK VINA RESULT:      -7.2      0.000      0.000
REMARK  5 active torsions:
REMARK  status: ('A' for Active; 'I' for Inactive)
REMARK    1  A    between atoms: C2_2  and  C3_3 
REMARK       I    between atoms: C3_3  and  N1_5 
REMARK    2  A    between atoms: N1_5  and  C4_6 
REMARK    3  A    between atoms: C6_10  and  C7_11 
REMARK    4  A    between atoms: C7_11  and  N4_12 
REMARK    5  A    between atoms: C7_11  and  C8_13 
ROOT
HETATM    1  C4  UNL     1      22.270  -1.213  54.046  1.00  0.00     0.110 A 
HETATM    2  N2  UNL     1      22.496  -1.488  55.283  1.00  0.00    -0.229 NA
HETATM    3  C5  UNL     1      23.808  -1.280  55.808  1.00  0.00     0.229 A 
HETATM    4  N3  UNL     1      24.678  -0.839  55.028  1.00  0.00    -0.275 NA
HETATM    5  C6  UNL     1      24.584  -0.503  53.690  1.00  0.00     0.153 A 
HETATM    6  C14 UNL     1      23.240  -0.684  53.079  1.00  0.00     0.108 A 
ENDROOT
BRANCH   5   7
HETATM    7  C7  UNL     1      25.052   0.895  53.342  1.00  0.00     0.275 C 
BRANCH   7   8
HETATM    8  N4  UNL     1      24.671   1.140  51.945  1.00  0.00     0.089 N 
HETATM    9  H8  UNL     1      24.985   0.367  51.316  1.00  0.00     0.313 HD
HETATM   10  H9  UNL     1      23.628   1.155  51.895  1.00  0.00     0.313 HD
ENDBRANCH   7   8
BRANCH   7  11
HETATM   11  C8  UNL     1      26.491   1.121  53.446  1.00  0.00    -0.022 A 
HETATM   12  C9  UNL     1      27.233   2.275  53.585  1.00  0.00     0.009 A 
HETATM   13  C10 UNL     1      28.609   2.259  53.664  1.00  0.00     0.002 A 
HETATM   14  C11 UNL     1      29.327   1.082  53.609  1.00  0.00     0.019 A 
HETATM   15  C12 UNL     1      28.596  -0.092  53.470  1.00  0.00     0.011 A 
HETATM   16 BR1  UNL     1      29.616  -1.703  53.397  1.00  0.00    -0.051 Br
HETATM   17  C13 UNL     1      27.232  -0.069  53.392  1.00  0.00     0.028 A 
ENDBRANCH   7  11
ENDBRANCH   5   7
BRANCH   1  18
HETATM   18  N1  UNL     1      20.950  -1.446  53.607  1.00  0.00    -0.311 N 
HETATM   19  C3  UNL     1      19.964  -0.443  53.446  1.00  0.00     0.245 C 
HETATM   20  O1  UNL     1      20.259   0.731  53.705  1.00  0.00    -0.268 OA
HETATM   21  H4  UNL     1      20.642  -2.435  53.371  1.00  0.00     0.170 HD
BRANCH  19  22
HETATM   22  C2  UNL     1      18.620  -0.773  52.987  1.00  0.00     0.064 C 
HETATM   23  C1  UNL     1      17.997  -1.827  53.482  1.00  0.00     0.017 C 
ENDBRANCH  19  22
ENDBRANCH   1  18
TORSDOF 5
ENDMDL
MODEL 2
REMARK VINA RESULT:      -7.2      3.639      6.807
REMARK  5 active torsions:
REMARK  status: ('A' for Active; 'I' for Inactive)
REMARK    1  A    between atoms: C2_2  and  C3_3 
REMARK       I    between atoms: C3_3  and  N1_5 
REMARK    2  A    between atoms: N1_5  and  C4_6 
REMARK    3  A    between atoms: C6_10  and  C7_11 
REMARK    4  A    between atoms: C7_11  and  N4_12 
REMARK    5  A    between atoms: C7_11  and  C8_13 
ROOT
HETATM    1  C4  UNL     1      26.429   1.476  52.872  1.00  0.00     0.110 A 
HETATM    2  N2  UNL     1      26.146   2.206  53.893  1.00  0.00    -0.229 NA
HETATM    3  C5  UNL     1      24.928   2.951  53.894  1.00  0.00     0.229 A 
HETATM    4  N3  UNL     1      24.192   2.855  52.889  1.00  0.00    -0.275 NA
HETATM    5  C6  UNL     1      24.364   2.121  51.729  1.00  0.00     0.153 A 
HETATM    6  C14 UNL     1      25.609   1.310  51.665  1.00  0.00     0.108 A 
ENDROOT
BRANCH   5   7
HETATM    7  C7  UNL     1      23.212   1.206  51.370  1.00  0.00     0.275 C 
BRANCH   7   8
HETATM    8  N4  UNL     1      22.113   2.061  50.905  1.00  0.00     0.089 N 
HETATM    9  H8  UNL     1      21.418   2.247  51.663  1.00  0.00     0.313 HD
HETATM   10  H9  UNL     1      22.516   2.987  50.642  1.00  0.00     0.313 HD
ENDBRANCH   7   8
BRANCH   7  11
HETATM   11  C8  UNL     1      22.694   0.387  52.463  1.00  0.00    -0.022 A 
HETATM   12  C9  UNL     1      23.315  -0.210  53.539  1.00  0.00     0.009 A 
HETATM   13  C10 UNL     1      22.621  -0.955  54.469  1.00  0.00     0.002 A 
HETATM   14  C11 UNL     1      21.258  -1.146  54.375  1.00  0.00     0.019 A 
HETATM   15  C12 UNL     1      20.613  -0.551  53.296  1.00  0.00     0.011 A 
HETATM   16 BR1  UNL     1      18.729  -0.834  53.194  1.00  0.00    -0.051 Br
HETATM   17  C13 UNL     1      21.308   0.186  52.379  1.00  0.00     0.028 A 
ENDBRANCH   7  11
ENDBRANCH   5   7
BRANCH   1  18
HETATM   18  N1  UNL     1      27.648   0.773  52.950  1.00  0.00    -0.311 N 
HETATM   19  C3  UNL     1      27.786  -0.556  53.420  1.00  0.00     0.245 C 
HETATM   20  O1  UNL     1      26.775  -1.164  53.796  1.00  0.00    -0.268 OA
HETATM   21  H4  UNL     1      28.549   1.246  52.642  1.00  0.00     0.170 HD
BRANCH  19  22
HETATM   22  C2  UNL     1      29.089  -1.208  53.470  1.00  0.00     0.064 C 
HETATM   23  C1  UNL     1      30.187  -0.478  53.537  1.00  0.00     0.017 C 
ENDBRANCH  19  22
ENDBRANCH   1  18
TORSDOF 5
ENDMDL
MODEL 3
REMARK VINA RESULT:      -7.1      3.451      7.443
REMARK  5 active torsions:
REMARK  status: ('A' for Active; 'I' for Inactive)
REMARK    1  A    between atoms: C2_2  and  C3_3 
REMARK       I    between atoms: C3_3  and  N1_5 
REMARK    2  A    between atoms: N1_5  and  C4_6 
REMARK    3  A    between atoms: C6_10  and  C7_11 
REMARK    4  A    between atoms: C7_11  and  N4_12 
REMARK    5  A    between atoms: C7_11  and  C8_13 
ROOT
HETATM    1  C4  UNL     1      25.529   1.276  52.976  1.00  0.00     0.110 A 
HETATM    2  N2  UNL     1      25.479   2.556  53.101  1.00  0.00    -0.229 NA
HETATM    3  C5  UNL     1      24.220   3.215  52.966  1.00  0.00     0.229 A 
HETATM    4  N3  UNL     1      23.220   2.506  52.729  1.00  0.00    -0.275 NA
HETATM    5  C6  UNL     1      23.120   1.135  52.570  1.00  0.00     0.153 A 
HETATM    6  C14 UNL     1      24.395   0.382  52.710  1.00  0.00     0.108 A 
ENDROOT
BRANCH   5   7
HETATM    7  C7  UNL     1      22.097   0.456  53.456  1.00  0.00     0.275 C 
BRANCH   7   8
HETATM    8  N4  UNL     1      22.591  -0.901  53.721  1.00  0.00     0.089 N 
HETATM    9  H8  UNL     1      23.623  -0.974  53.573  1.00  0.00     0.313 HD
HETATM   10  H9  UNL     1      22.423  -1.112  54.730  1.00  0.00     0.313 HD
ENDBRANCH   7   8
BRANCH   7  11
HETATM   11  C8  UNL     1      20.758   0.328  52.888  1.00  0.00    -0.022 A 
HETATM   12  C9  UNL     1      20.076   1.086  51.960  1.00  0.00     0.009 A 
HETATM   13  C10 UNL     1      18.793   0.781  51.560  1.00  0.00     0.002 A 
HETATM   14  C11 UNL     1      18.113  -0.307  52.068  1.00  0.00     0.019 A 
HETATM   15  C12 UNL     1      18.785  -1.085  53.005  1.00  0.00     0.011 A 
HETATM   16 BR1  UNL     1      17.819  -2.582  53.689  1.00  0.00    -0.051 Br
HETATM   17  C13 UNL     1      20.057  -0.775  53.397  1.00  0.00     0.028 A 
ENDBRANCH   7  11
ENDBRANCH   5   7
BRANCH   1  18
HETATM   18  N1  UNL     1      26.809   0.703  53.124  1.00  0.00    -0.311 N 
HETATM   19  C3  UNL     1      27.408   0.374  54.363  1.00  0.00     0.245 C 
HETATM   20  O1  UNL     1      26.781   0.596  55.408  1.00  0.00    -0.268 OA
HETATM   21  H4  UNL     1      27.392   0.491  52.262  1.00  0.00     0.170 HD
BRANCH  19  22
HETATM   22  C2  UNL     1      28.740  -0.216  54.425  1.00  0.00     0.064 C 
HETATM   23  C1  UNL     1      29.178  -0.956  53.423  1.00  0.00     0.017 C 
ENDBRANCH  19  22
ENDBRANCH   1  18
TORSDOF 5
ENDMDL
MODEL 4
REMARK VINA RESULT:      -7.1      3.952      7.370
REMARK  5 active torsions:
REMARK  status: ('A' for Active; 'I' for Inactive)
REMARK    1  A    between atoms: C2_2  and  C3_3 
REMARK       I    between atoms: C3_3  and  N1_5 
REMARK    2  A    between atoms: N1_5  and  C4_6 
REMARK    3  A    between atoms: C6_10  and  C7_11 
REMARK    4  A    between atoms: C7_11  and  N4_12 
REMARK    5  A    between atoms: C7_11  and  C8_13 
ROOT
HETATM    1  C4  UNL     1      26.516   1.609  51.738  1.00  0.00     0.110 A 
HETATM    2  N2  UNL     1      26.907   2.563  50.969  1.00  0.00    -0.229 NA
HETATM    3  C5  UNL     1      25.929   3.306  50.238  1.00  0.00     0.229 A 
HETATM    4  N3  UNL     1      24.732   2.984  50.386  1.00  0.00    -0.275 NA
HETATM    5  C6  UNL     1      24.168   1.991  51.168  1.00  0.00     0.153 A 
HETATM    6  C14 UNL     1      25.129   1.184  51.966  1.00  0.00     0.108 A 
ENDROOT
BRANCH   5   7
HETATM    7  C7  UNL     1      23.078   2.456  52.111  1.00  0.00     0.275 C 
BRANCH   7   8
HETATM    8  N4  UNL     1      23.741   3.107  53.247  1.00  0.00     0.089 N 
HETATM    9  H8  UNL     1      23.366   2.768  54.162  1.00  0.00     0.313 HD
HETATM   10  H9  UNL     1      24.750   2.840  53.226  1.00  0.00     0.313 HD
ENDBRANCH   7   8
BRANCH   7  11
HETATM   11  C8  UNL     1      22.223   1.403  52.652  1.00  0.00    -0.022 A 
HETATM   12  C9  UNL     1      22.391   0.534  53.709  1.00  0.00     0.009 A 
HETATM   13  C10 UNL     1      21.438  -0.402  54.051  1.00  0.00     0.002 A 
HETATM   14  C11 UNL     1      20.255  -0.523  53.351  1.00  0.00     0.019 A 
HETATM   15  C12 UNL     1      20.067   0.345  52.282  1.00  0.00     0.011 A 
HETATM   16 BR1  UNL     1      18.422   0.152  51.334  1.00  0.00    -0.051 Br
HETATM   17  C13 UNL     1      21.016   1.269  51.949  1.00  0.00     0.028 A 
ENDBRANCH   7  11
ENDBRANCH   5   7
BRANCH   1  18
HETATM   18  N1  UNL     1      27.542   0.926  52.423  1.00  0.00    -0.311 N 
HETATM   19  C3  UNL     1      28.114   1.347  53.648  1.00  0.00     0.245 C 
HETATM   20  O1  UNL     1      27.699   2.388  54.174  1.00  0.00    -0.268 OA
HETATM   21  H4  UNL     1      27.937   0.027  52.017  1.00  0.00     0.170 HD
BRANCH  19  22
HETATM   22  C2  UNL     1      29.176   0.579  54.289  1.00  0.00     0.064 C 
HETATM   23  C1  UNL     1      29.755  -0.413  53.637  1.00  0.00     0.017 C 
ENDBRANCH  19  22
ENDBRANCH   1  18
TORSDOF 5
ENDMDL
MODEL 5
REMARK VINA RESULT:      -7.0      4.610      7.351
REMARK  5 active torsions:
REMARK  status: ('A' for Active; 'I' for Inactive)
REMARK    1  A    between atoms: C2_2  and  C3_3 
REMARK       I    between atoms: C3_3  and  N1_5 
REMARK    2  A    between atoms: N1_5  and  C4_6 
REMARK    3  A    between atoms: C6_10  and  C7_11 
REMARK    4  A    between atoms: C7_11  and  N4_12 
REMARK    5  A    between atoms: C7_11  and  C8_13 
ROOT
HETATM    1  C4  UNL     1      24.388   4.631  50.021  1.00  0.00     0.110 A 
HETATM    2  N2  UNL     1      24.209   5.161  51.179  1.00  0.00    -0.229 NA
HETATM    3  C5  UNL     1      23.079   4.760  51.955  1.00  0.00     0.229 A 
HETATM    4  N3  UNL     1      22.314   3.905  51.460  1.00  0.00    -0.275 NA
HETATM    5  C6  UNL     1      22.377   3.256  50.241  1.00  0.00     0.153 A 
HETATM    6  C14 UNL     1      23.538   3.618  49.384  1.00  0.00     0.108 A 
ENDROOT
BRANCH   5   7
HETATM    7  C7  UNL     1      22.325   1.744  50.313  1.00  0.00     0.275 C 
BRANCH   7   8
HETATM    8  N4  UNL     1      20.909   1.366  50.408  1.00  0.00     0.089 N 
HETATM    9  H8  UNL     1      20.792   0.348  50.612  1.00  0.00     0.313 HD
HETATM   10  H9  UNL     1      20.495   1.878  51.219  1.00  0.00     0.313 HD
ENDBRANCH   7   8
BRANCH   7  11
HETATM   11  C8  UNL     1      23.013   1.144  51.453  1.00  0.00    -0.022 A 
HETATM   12  C9  UNL     1      24.313   1.245  51.899  1.00  0.00     0.009 A 
HETATM   13  C10 UNL     1      24.761   0.578  53.020  1.00  0.00     0.002 A 
HETATM   14  C11 UNL     1      23.928  -0.233  53.763  1.00  0.00     0.019 A 
HETATM   15  C12 UNL     1      22.611  -0.347  53.329  1.00  0.00     0.011 A 
HETATM   16 BR1  UNL     1      21.485  -1.475  54.377  1.00  0.00    -0.051 Br
HETATM   17  C13 UNL     1      22.176   0.317  52.217  1.00  0.00     0.028 A 
ENDBRANCH   7  11
ENDBRANCH   5   7
BRANCH   1  18
HETATM   18  N1  UNL     1      25.526   5.081  49.320  1.00  0.00    -0.311 N 
HETATM   19  C3  UNL     1      26.781   4.425  49.311  1.00  0.00     0.245 C 
HETATM   20  O1  UNL     1      26.912   3.378  49.959  1.00  0.00    -0.268 OA
HETATM   21  H4  UNL     1      25.471   5.974  48.747  1.00  0.00     0.170 HD
BRANCH  19  22
HETATM   22  C2  UNL     1      27.908   4.962  48.558  1.00  0.00     0.064 C 
HETATM   23  C1  UNL     1      27.914   6.234  48.201  1.00  0.00     0.017 C 
ENDBRANCH  19  22
ENDBRANCH   1  18
TORSDOF 5
ENDMDL
MODEL 6
REMARK VINA RESULT:      -6.9      4.217      6.440
REMARK  5 active torsions:
REMARK  status: ('A' for Active; 'I' for Inactive)
REMARK    1  A    between atoms: C2_2  and  C3_3 
REMARK       I    between atoms: C3_3  and  N1_5 
REMARK    2  A    between atoms: N1_5  and  C4_6 
REMARK    3  A    between atoms: C6_10  and  C7_11 
REMARK    4  A    between atoms: C7_11  and  N4_12 
REMARK    5  A    between atoms: C7_11  and  C8_13 
ROOT
HETATM    1  C4  UNL     1      25.819   0.606  52.913  1.00  0.00     0.110 A 
HETATM    2  N2  UNL     1      24.953  -0.244  53.339  1.00  0.00    -0.229 NA
HETATM    3  C5  UNL     1      23.583   0.151  53.430  1.00  0.00     0.229 A 
HETATM    4  N3  UNL     1      23.295   1.317  53.087  1.00  0.00    -0.275 NA
HETATM    5  C6  UNL     1      24.110   2.331  52.616  1.00  0.00     0.153 A 
HETATM    6  C14 UNL     1      25.550   1.985  52.485  1.00  0.00     0.108 A 
ENDROOT
BRANCH   5   7
HETATM    7  C7  UNL     1      23.675   2.949  51.304  1.00  0.00     0.275 C 
BRANCH   7   8
HETATM    8  N4  UNL     1      23.186   1.856  50.455  1.00  0.00     0.089 N 
HETATM    9  H8  UNL     1      23.148   2.133  49.448  1.00  0.00     0.313 HD
HETATM   10  H9  UNL     1      23.871   1.070  50.518  1.00  0.00     0.313 HD
ENDBRANCH   7   8
BRANCH   7  11
HETATM   11  C8  UNL     1      24.720   3.644  50.558  1.00  0.00    -0.022 A 
HETATM   12  C9  UNL     1      25.784   3.179  49.815  1.00  0.00     0.009 A 
HETATM   13  C10 UNL     1      26.668   4.028  49.184  1.00  0.00     0.002 A 
HETATM   14  C11 UNL     1      26.538   5.400  49.260  1.00  0.00     0.019 A 
HETATM   15  C12 UNL     1      25.470   5.888  50.004  1.00  0.00     0.011 A 
HETATM   16 BR1  UNL     1      25.317   7.788  50.091  1.00  0.00    -0.051 Br
HETATM   17  C13 UNL     1      24.598   5.040  50.628  1.00  0.00     0.028 A 
ENDBRANCH   7  11
ENDBRANCH   5   7
BRANCH   1  18
HETATM   18  N1  UNL     1      27.148   0.138  52.854  1.00  0.00    -0.311 N 
HETATM   19  C3  UNL     1      28.100   0.275  53.892  1.00  0.00     0.245 C 
HETATM   20  O1  UNL     1      27.764   0.844  54.939  1.00  0.00    -0.268 OA
HETATM   21  H4  UNL     1      27.491  -0.358  51.979  1.00  0.00     0.170 HD
BRANCH  19  22
HETATM   22  C2  UNL     1      29.457  -0.239  53.745  1.00  0.00     0.064 C 
HETATM   23  C1  UNL     1      29.649  -1.509  53.439  1.00  0.00     0.017 C 
ENDBRANCH  19  22
ENDBRANCH   1  18
TORSDOF 5
ENDMDL
MODEL 7
REMARK VINA RESULT:      -6.8      4.831      5.847
REMARK  5 active torsions:
REMARK  status: ('A' for Active; 'I' for Inactive)
REMARK    1  A    between atoms: C2_2  and  C3_3 
REMARK       I    between atoms: C3_3  and  N1_5 
REMARK    2  A    between atoms: N1_5  and  C4_6 
REMARK    3  A    between atoms: C6_10  and  C7_11 
REMARK    4  A    between atoms: C7_11  and  N4_12 
REMARK    5  A    between atoms: C7_11  and  C8_13 
ROOT
HETATM    1  C4  UNL     1      23.064   1.645  51.008  1.00  0.00     0.110 A 
HETATM    2  N2  UNL     1      22.371   1.438  49.943  1.00  0.00    -0.229 NA
HETATM    3  C5  UNL     1      22.590   2.269  48.803  1.00  0.00     0.229 A 
HETATM    4  N3  UNL     1      23.454   3.165  48.900  1.00  0.00    -0.275 NA
HETATM    5  C6  UNL     1      24.267   3.505  49.967  1.00  0.00     0.153 A 
HETATM    6  C14 UNL     1      24.099   2.671  51.187  1.00  0.00     0.108 A 
ENDROOT
BRANCH   5   7
HETATM    7  C7  UNL     1      25.749   3.556  49.657  1.00  0.00     0.275 C 
BRANCH   7   8
HETATM    8  N4  UNL     1      26.460   3.368  50.928  1.00  0.00     0.089 N 
HETATM    9  H8  UNL     1      27.476   3.174  50.778  1.00  0.00     0.313 HD
HETATM   10  H9  UNL     1      26.407   4.265  51.460  1.00  0.00     0.313 HD
ENDBRANCH   7   8
BRANCH   7  11
HETATM   11  C8  UNL     1      26.226   4.806  49.072  1.00  0.00    -0.022 A 
HETATM   12  C9  UNL     1      25.576   5.977  48.748  1.00  0.00     0.009 A 
HETATM   13  C10 UNL     1      26.233   7.054  48.191  1.00  0.00     0.002 A 
HETATM   14  C11 UNL     1      27.586   7.021  47.925  1.00  0.00     0.019 A 
HETATM   15  C12 UNL     1      28.260   5.848  48.246  1.00  0.00     0.011 A 
HETATM   16 BR1  UNL     1      30.130   5.833  47.867  1.00  0.00    -0.051 Br
HETATM   17  C13 UNL     1      27.602   4.785  48.797  1.00  0.00     0.028 A 
ENDBRANCH   7  11
ENDBRANCH   5   7
BRANCH   1  18
HETATM   18  N1  UNL     1      22.787   0.782  52.088  1.00  0.00    -0.311 N 
HETATM   19  C3  UNL     1      21.713   0.944  52.996  1.00  0.00     0.245 C 
HETATM   20  O1  UNL     1      20.948   1.906  52.850  1.00  0.00    -0.268 OA
HETATM   21  H4  UNL     1      23.412  -0.060  52.260  1.00  0.00     0.170 HD
BRANCH  19  22
HETATM   22  C2  UNL     1      21.501   0.002  54.089  1.00  0.00     0.064 C 
HETATM   23  C1  UNL     1      20.880  -1.141  53.861  1.00  0.00     0.017 C 
ENDBRANCH  19  22
ENDBRANCH   1  18
TORSDOF 5
ENDMDL
MODEL 8
REMARK VINA RESULT:      -6.8      4.946      7.157
REMARK  5 active torsions:
REMARK  status: ('A' for Active; 'I' for Inactive)
REMARK    1  A    between atoms: C2_2  and  C3_3 
REMARK       I    between atoms: C3_3  and  N1_5 
REMARK    2  A    between atoms: N1_5  and  C4_6 
REMARK    3  A    between atoms: C6_10  and  C7_11 
REMARK    4  A    between atoms: C7_11  and  N4_12 
REMARK    5  A    between atoms: C7_11  and  C8_13 
ROOT
HETATM    1  C4  UNL     1      26.053   1.380  52.509  1.00  0.00     0.110 A 
HETATM    2  N2  UNL     1      24.837   1.164  52.870  1.00  0.00    -0.229 NA
HETATM    3  C5  UNL     1      23.810   2.032  52.390  1.00  0.00     0.229 A 
HETATM    4  N3  UNL     1      24.151   2.969  51.637  1.00  0.00    -0.275 NA
HETATM    5  C6  UNL     1      25.404   3.322  51.170  1.00  0.00     0.153 A 
HETATM    6  C14 UNL     1      26.523   2.452  51.622  1.00  0.00     0.108 A 
ENDROOT
BRANCH   5   7
HETATM    7  C7  UNL     1      25.517   3.455  49.665  1.00  0.00     0.275 C 
BRANCH   7   8
HETATM    8  N4  UNL     1      26.718   2.717  49.257  1.00  0.00     0.089 N 
HETATM    9  H8  UNL     1      27.427   2.675  50.024  1.00  0.00     0.313 HD
HETATM   10  H9  UNL     1      26.438   1.730  49.063  1.00  0.00     0.313 HD
ENDBRANCH   7   8
BRANCH   7  11
HETATM   11  C8  UNL     1      25.653   4.819  49.163  1.00  0.00    -0.022 A 
HETATM   12  C9  UNL     1      24.731   5.828  48.979  1.00  0.00     0.009 A 
HETATM   13  C10 UNL     1      25.082   7.064  48.479  1.00  0.00     0.002 A 
HETATM   14  C11 UNL     1      26.384   7.364  48.133  1.00  0.00     0.019 A 
HETATM   15  C12 UNL     1      27.328   6.360  48.312  1.00  0.00     0.011 A 
HETATM   16 BR1  UNL     1      29.118   6.805  47.824  1.00  0.00    -0.051 Br
HETATM   17  C13 UNL     1      26.972   5.137  48.807  1.00  0.00     0.028 A 
ENDBRANCH   7  11
ENDBRANCH   5   7
BRANCH   1  18
HETATM   18  N1  UNL     1      27.006   0.478  53.025  1.00  0.00    -0.311 N 
HETATM   19  C3  UNL     1      27.973   0.800  54.008  1.00  0.00     0.245 C 
HETATM   20  O1  UNL     1      28.003   1.951  54.462  1.00  0.00    -0.268 OA
HETATM   21  H4  UNL     1      27.027  -0.524  52.671  1.00  0.00     0.170 HD
BRANCH  19  22
HETATM   22  C2  UNL     1      28.925  -0.197  54.485  1.00  0.00     0.064 C 
HETATM   23  C1  UNL     1      29.883  -0.627  53.684  1.00  0.00     0.017 C 
ENDBRANCH  19  22
ENDBRANCH   1  18
TORSDOF 5
ENDMDL
MODEL 9
REMARK VINA RESULT:      -6.8      4.413      7.345
REMARK  5 active torsions:
REMARK  status: ('A' for Active; 'I' for Inactive)
REMARK    1  A    between atoms: C2_2  and  C3_3 
REMARK       I    between atoms: C3_3  and  N1_5 
REMARK    2  A    between atoms: N1_5  and  C4_6 
REMARK    3  A    between atoms: C6_10  and  C7_11 
REMARK    4  A    between atoms: C7_11  and  N4_12 
REMARK    5  A    between atoms: C7_11  and  C8_13 
ROOT
HETATM    1  C4  UNL     1      24.762   4.456  49.370  1.00  0.00     0.110 A 
HETATM    2  N2  UNL     1      23.727   4.350  48.612  1.00  0.00    -0.229 NA
HETATM    3  C5  UNL     1      22.777   3.318  48.880  1.00  0.00     0.229 A 
HETATM    4  N3  UNL     1      23.005   2.562  49.848  1.00  0.00    -0.275 NA
HETATM    5  C6  UNL     1      24.062   2.554  50.740  1.00  0.00     0.153 A 
HETATM    6  C14 UNL     1      25.086   3.612  50.526  1.00  0.00     0.108 A 
ENDROOT
BRANCH   5   7
HETATM    7  C7  UNL     1      23.671   2.595  52.203  1.00  0.00     0.275 C 
BRANCH   7   8
HETATM    8  N4  UNL     1      24.398   3.716  52.811  1.00  0.00     0.089 N 
HETATM    9  H8  UNL     1      24.759   4.381  52.090  1.00  0.00     0.313 HD
HETATM   10  H9  UNL     1      23.723   4.256  53.397  1.00  0.00     0.313 HD
ENDBRANCH   7   8
BRANCH   7  11
HETATM   11  C8  UNL     1      23.995   1.398  52.974  1.00  0.00    -0.022 A 
HETATM   12  C9  UNL     1      23.223   0.331  53.385  1.00  0.00     0.009 A 
HETATM   13  C10 UNL     1      23.741  -0.712  54.122  1.00  0.00     0.002 A 
HETATM   14  C11 UNL     1      25.070  -0.750  54.492  1.00  0.00     0.019 A 
HETATM   15  C12 UNL     1      25.865   0.316  54.087  1.00  0.00     0.011 A 
HETATM   16 BR1  UNL     1      27.697   0.236  54.615  1.00  0.00    -0.051 Br
HETATM   17  C13 UNL     1      25.343   1.347  53.357  1.00  0.00     0.028 A 
ENDBRANCH   7  11
ENDBRANCH   5   7
BRANCH   1  18
HETATM   18  N1  UNL     1      25.649   5.500  49.038  1.00  0.00    -0.311 N 
HETATM   19  C3  UNL     1      27.027   5.331  48.759  1.00  0.00     0.245 C 
HETATM   20  O1  UNL     1      27.509   4.192  48.804  1.00  0.00    -0.268 OA
HETATM   21  H4  UNL     1      25.290   6.499  48.986  1.00  0.00     0.170 HD
BRANCH  19  22
HETATM   22  C2  UNL     1      27.875   6.469  48.426  1.00  0.00     0.064 C 
HETATM   23  C1  UNL     1      29.064   6.268  47.887  1.00  0.00     0.017 C 
ENDBRANCH  19  22
ENDBRANCH   1  18
TORSDOF 5
ENDMDL
