MODEL 1
REMARK VINA RESULT:      -8.0      0.000      0.000
REMARK  6 active torsions:
REMARK  status: ('A' for Active; 'I' for Inactive)
REMARK    1  A    between atoms: C2_2  and  C3_3 
REMARK    2  A    between atoms: C8_8  and  N1_9 
REMARK    3  A    between atoms: N1_9  and  C9_10 
REMARK    4  A    between atoms: C12_14  and  N3_15 
REMARK    5  A    between atoms: N3_15  and  C13_16 
REMARK    6  A    between atoms: C18_21  and  O1_22 
ROOT
HETATM    1  C9  UNL     1      24.222   3.392  51.272  1.00  0.00     0.148 A 
HETATM    2  C10 UNL     1      23.162   2.756  50.695  1.00  0.00     0.071 A 
HETATM    3  C11 UNL     1      22.786   1.472  51.020  1.00  0.00     0.140 A 
HETATM    4  N2  UNL     1      23.554   0.920  51.948  1.00  0.00    -0.075 NA
HETATM    5  C12 UNL     1      24.601   1.457  52.565  1.00  0.00     0.728 A 
HETATM    6  N4  UNL     1      24.904   2.707  52.195  1.00  0.00    -0.045 NA
ENDROOT
BRANCH   1   7
HETATM    7  N1  UNL     1      24.684   4.705  51.005  1.00  0.00    -0.340 N 
HETATM    8  H10 UNL     1      24.306   5.536  51.488  1.00  0.00     0.167 HD
BRANCH   7   9
HETATM    9  C8  UNL     1      25.657   5.232  50.133  1.00  0.00     0.040 A 
HETATM   10  C3  UNL     1      25.836   6.546  49.765  1.00  0.00    -0.032 A 
HETATM   11  C4  UNL     1      26.825   6.936  48.885  1.00  0.00     0.009 A 
HETATM   12  C5  UNL     1      27.681   6.013  48.332  1.00  0.00     0.001 A 
HETATM   13  C6  UNL     1      27.580   4.662  48.641  1.00  0.00     0.002 A 
HETATM   14  C7  UNL     1      26.570   4.361  49.524  1.00  0.00     0.030 A 
BRANCH  10  15
HETATM   15  C2  UNL     1      24.923   7.574  50.306  1.00  0.00     0.036 C 
HETATM   16  C1  UNL     1      25.520   8.941  49.934  1.00  0.00     0.010 C 
ENDBRANCH  10  15
ENDBRANCH   7   9
ENDBRANCH   1   7
BRANCH   5  17
HETATM   17  N3  UNL     1      25.406   0.844  53.558  1.00  0.00    -0.185 N 
HETATM   18  H13 UNL     1      25.192   1.053  54.565  1.00  0.00     0.184 HD
BRANCH  17  19
HETATM   19  C13 UNL     1      26.497  -0.041  53.409  1.00  0.00     0.082 A 
HETATM   20  C14 UNL     1      26.351  -1.277  52.834  1.00  0.00     0.033 A 
HETATM   21  C15 UNL     1      27.376  -2.179  52.664  1.00  0.00     0.002 A 
HETATM   22  C16 UNL     1      28.665  -1.865  53.087  1.00  0.00     0.003 A 
HETATM   23  C17 UNL     1      28.813  -0.625  53.663  1.00  0.00     0.039 A 
HETATM   24  C18 UNL     1      27.780   0.262  53.825  1.00  0.00     0.095 A 
BRANCH  24  25
HETATM   25  O1  UNL     1      28.026   1.512  54.427  1.00  0.00    -0.354 OA
HETATM   26  C19 UNL     1      28.726   2.500  53.675  1.00  0.00     0.210 C 
ENDBRANCH  24  25
ENDBRANCH  17  19
ENDBRANCH   5  17
TORSDOF 6
ENDMDL
MODEL 2
REMARK VINA RESULT:      -8.0      1.224      2.485
REMARK  6 active torsions:
REMARK  status: ('A' for Active; 'I' for Inactive)
REMARK    1  A    between atoms: C2_2  and  C3_3 
REMARK    2  A    between atoms: C8_8  and  N1_9 
REMARK    3  A    between atoms: N1_9  and  C9_10 
REMARK    4  A    between atoms: C12_14  and  N3_15 
REMARK    5  A    between atoms: N3_15  and  C13_16 
REMARK    6  A    between atoms: C18_21  and  O1_22 
ROOT
HETATM    1  C9  UNL     1      23.450   1.558  51.485  1.00  0.00     0.148 A 
HETATM    2  C10 UNL     1      22.383   0.762  51.779  1.00  0.00     0.071 A 
HETATM    3  C11 UNL     1      22.401  -0.182  52.782  1.00  0.00     0.140 A 
HETATM    4  N2  UNL     1      23.556  -0.236  53.430  1.00  0.00    -0.075 NA
HETATM    5  C12 UNL     1      24.645   0.495  53.218  1.00  0.00     0.728 A 
HETATM    6  N4  UNL     1      24.549   1.389  52.226  1.00  0.00    -0.045 NA
ENDROOT
BRANCH   1   7
HETATM    7  N1  UNL     1      23.527   2.552  50.477  1.00  0.00    -0.340 N 
HETATM    8  H10 UNL     1      23.261   2.370  49.496  1.00  0.00     0.167 HD
BRANCH   7   9
HETATM    9  C8  UNL     1      23.926   3.903  50.476  1.00  0.00     0.040 A 
HETATM   10  C3  UNL     1      25.117   4.430  50.033  1.00  0.00    -0.032 A 
HETATM   11  C4  UNL     1      25.397   5.780  50.099  1.00  0.00     0.009 A 
HETATM   12  C5  UNL     1      24.482   6.664  50.620  1.00  0.00     0.001 A 
HETATM   13  C6  UNL     1      23.250   6.229  51.095  1.00  0.00     0.002 A 
HETATM   14  C7  UNL     1      23.055   4.872  50.991  1.00  0.00     0.030 A 
BRANCH  10  15
HETATM   15  C2  UNL     1      26.147   3.519  49.491  1.00  0.00     0.036 C 
HETATM   16  C1  UNL     1      27.294   4.401  48.970  1.00  0.00     0.010 C 
ENDBRANCH  10  15
ENDBRANCH   7   9
ENDBRANCH   1   7
BRANCH   5  17
HETATM   17  N3  UNL     1      25.868   0.418  53.929  1.00  0.00    -0.185 N 
HETATM   18  H13 UNL     1      25.981   1.020  54.783  1.00  0.00     0.184 HD
BRANCH  17  19
HETATM   19  C13 UNL     1      27.012  -0.368  53.666  1.00  0.00     0.082 A 
HETATM   20  C14 UNL     1      26.924  -1.581  53.032  1.00  0.00     0.033 A 
HETATM   21  C15 UNL     1      28.002  -2.388  52.751  1.00  0.00     0.002 A 
HETATM   22  C16 UNL     1      29.288  -1.994  53.112  1.00  0.00     0.003 A 
HETATM   23  C17 UNL     1      29.377  -0.777  53.748  1.00  0.00     0.039 A 
HETATM   24  C18 UNL     1      28.292   0.015  54.020  1.00  0.00     0.095 A 
BRANCH  24  25
HETATM   25  O1  UNL     1      28.480   1.248  54.675  1.00  0.00    -0.354 OA
HETATM   26  C19 UNL     1      28.890   2.372  53.899  1.00  0.00     0.210 C 
ENDBRANCH  24  25
ENDBRANCH  17  19
ENDBRANCH   5  17
TORSDOF 6
ENDMDL
MODEL 3
REMARK VINA RESULT:      -8.0      2.681      5.808
REMARK  6 active torsions:
REMARK  status: ('A' for Active; 'I' for Inactive)
REMARK    1  A    between atoms: C2_2  and  C3_3 
REMARK    2  A    between atoms: C8_8  and  N1_9 
REMARK    3  A    between atoms: N1_9  and  C9_10 
REMARK    4  A    between atoms: C12_14  and  N3_15 
REMARK    5  A    between atoms: N3_15  and  C13_16 
REMARK    6  A    between atoms: C18_21  and  O1_22 
ROOT
HETATM    1  C9  UNL     1      23.049   2.256  52.156  1.00  0.00     0.148 A 
HETATM    2  C10 UNL     1      23.680   2.883  51.122  1.00  0.00     0.071 A 
HETATM    3  C11 UNL     1      25.036   2.789  50.899  1.00  0.00     0.140 A 
HETATM    4  N2  UNL     1      25.662   2.029  51.787  1.00  0.00    -0.075 NA
HETATM    5  C12 UNL     1      25.135   1.381  52.821  1.00  0.00     0.728 A 
HETATM    6  N4  UNL     1      23.813   1.522  52.971  1.00  0.00    -0.045 NA
ENDROOT
BRANCH   1   7
HETATM    7  N1  UNL     1      21.666   2.293  52.466  1.00  0.00    -0.340 N 
HETATM    8  H10 UNL     1      21.222   3.104  52.927  1.00  0.00     0.167 HD
BRANCH   7   9
HETATM    9  C8  UNL     1      20.606   1.385  52.277  1.00  0.00     0.040 A 
HETATM   10  C3  UNL     1      20.140   0.439  53.161  1.00  0.00    -0.032 A 
HETATM   11  C4  UNL     1      19.094  -0.408  52.851  1.00  0.00     0.009 A 
HETATM   12  C5  UNL     1      18.471  -0.339  51.628  1.00  0.00     0.001 A 
HETATM   13  C6  UNL     1      18.870   0.583  50.667  1.00  0.00     0.002 A 
HETATM   14  C7  UNL     1      19.916   1.385  51.058  1.00  0.00     0.030 A 
BRANCH  10  15
HETATM   15  C2  UNL     1      20.795   0.302  54.478  1.00  0.00     0.036 C 
HETATM   16  C1  UNL     1      21.393  -1.114  54.535  1.00  0.00     0.010 C 
ENDBRANCH  10  15
ENDBRANCH   7   9
ENDBRANCH   1   7
BRANCH   5  17
HETATM   17  N3  UNL     1      25.828   0.572  53.756  1.00  0.00    -0.185 N 
HETATM   18  H13 UNL     1      25.503   0.584  54.755  1.00  0.00     0.184 HD
BRANCH  17  19
HETATM   19  C13 UNL     1      26.933  -0.286  53.556  1.00  0.00     0.082 A 
HETATM   20  C14 UNL     1      26.798  -1.505  52.943  1.00  0.00     0.033 A 
HETATM   21  C15 UNL     1      27.836  -2.380  52.723  1.00  0.00     0.002 A 
HETATM   22  C16 UNL     1      29.128  -2.055  53.131  1.00  0.00     0.003 A 
HETATM   23  C17 UNL     1      29.264  -0.833  53.746  1.00  0.00     0.039 A 
HETATM   24  C18 UNL     1      28.218   0.028  53.957  1.00  0.00     0.095 A 
BRANCH  24  25
HETATM   25  O1  UNL     1      28.452   1.261  54.597  1.00  0.00    -0.354 OA
HETATM   26  C19 UNL     1      28.803   2.386  53.793  1.00  0.00     0.210 C 
ENDBRANCH  24  25
ENDBRANCH  17  19
ENDBRANCH   5  17
TORSDOF 6
ENDMDL
MODEL 4
REMARK VINA RESULT:      -7.9      2.159      7.039
REMARK  6 active torsions:
REMARK  status: ('A' for Active; 'I' for Inactive)
REMARK    1  A    between atoms: C2_2  and  C3_3 
REMARK    2  A    between atoms: C8_8  and  N1_9 
REMARK    3  A    between atoms: N1_9  and  C9_10 
REMARK    4  A    between atoms: C12_14  and  N3_15 
REMARK    5  A    between atoms: N3_15  and  C13_16 
REMARK    6  A    between atoms: C18_21  and  O1_22 
ROOT
HETATM    1  C9  UNL     1      24.833   2.796  52.253  1.00  0.00     0.148 A 
HETATM    2  C10 UNL     1      23.939   3.554  52.949  1.00  0.00     0.071 A 
HETATM    3  C11 UNL     1      23.420   4.736  52.469  1.00  0.00     0.140 A 
HETATM    4  N2  UNL     1      23.876   5.060  51.267  1.00  0.00    -0.075 NA
HETATM    5  C12 UNL     1      24.742   4.388  50.516  1.00  0.00     0.728 A 
HETATM    6  N4  UNL     1      25.201   3.250  51.051  1.00  0.00    -0.045 NA
ENDROOT
BRANCH   1   7
HETATM    7  N1  UNL     1      25.420   1.571  52.661  1.00  0.00    -0.340 N 
HETATM    8  H10 UNL     1      24.883   0.691  52.723  1.00  0.00     0.167 HD
BRANCH   7   9
HETATM    9  C8  UNL     1      26.723   1.204  53.053  1.00  0.00     0.040 A 
HETATM   10  C3  UNL     1      27.251  -0.064  53.139  1.00  0.00    -0.032 A 
HETATM   11  C4  UNL     1      28.547  -0.296  53.554  1.00  0.00     0.009 A 
HETATM   12  C5  UNL     1      29.372   0.747  53.904  1.00  0.00     0.001 A 
HETATM   13  C6  UNL     1      28.930   2.063  53.851  1.00  0.00     0.002 A 
HETATM   14  C7  UNL     1      27.629   2.203  53.428  1.00  0.00     0.030 A 
BRANCH  10  15
HETATM   15  C2  UNL     1      26.396  -1.222  52.804  1.00  0.00     0.036 C 
HETATM   16  C1  UNL     1      27.336  -2.405  52.522  1.00  0.00     0.010 C 
ENDBRANCH  10  15
ENDBRANCH   7   9
ENDBRANCH   1   7
BRANCH   5  17
HETATM   17  N3  UNL     1      25.212   4.756  49.230  1.00  0.00    -0.185 N 
HETATM   18  H13 UNL     1      24.628   4.491  48.398  1.00  0.00     0.184 HD
BRANCH  17  19
HETATM   19  C13 UNL     1      26.388   5.449  48.869  1.00  0.00     0.082 A 
HETATM   20  C14 UNL     1      27.576   4.796  48.659  1.00  0.00     0.033 A 
HETATM   21  C15 UNL     1      28.751   5.419  48.307  1.00  0.00     0.002 A 
HETATM   22  C16 UNL     1      28.791   6.801  48.139  1.00  0.00     0.003 A 
HETATM   23  C17 UNL     1      27.600   7.457  48.350  1.00  0.00     0.039 A 
HETATM   24  C18 UNL     1      26.438   6.820  48.701  1.00  0.00     0.095 A 
BRANCH  24  25
HETATM   25  O1  UNL     1      25.265   7.576  48.896  1.00  0.00    -0.354 OA
HETATM   26  C19 UNL     1      25.151   8.356  50.084  1.00  0.00     0.210 C 
ENDBRANCH  24  25
ENDBRANCH  17  19
ENDBRANCH   5  17
TORSDOF 6
ENDMDL
MODEL 5
REMARK VINA RESULT:      -7.8      3.997      5.835
REMARK  6 active torsions:
REMARK  status: ('A' for Active; 'I' for Inactive)
REMARK    1  A    between atoms: C2_2  and  C3_3 
REMARK    2  A    between atoms: C8_8  and  N1_9 
REMARK    3  A    between atoms: N1_9  and  C9_10 
REMARK    4  A    between atoms: C12_14  and  N3_15 
REMARK    5  A    between atoms: N3_15  and  C13_16 
REMARK    6  A    between atoms: C18_21  and  O1_22 
ROOT
HETATM    1  C9  UNL     1      22.268  -0.455  53.373  1.00  0.00     0.148 A 
HETATM    2  C10 UNL     1      22.131  -1.080  54.577  1.00  0.00     0.071 A 
HETATM    3  C11 UNL     1      23.192  -1.347  55.413  1.00  0.00     0.140 A 
HETATM    4  N2  UNL     1      24.356  -0.935  54.931  1.00  0.00    -0.075 NA
HETATM    5  C12 UNL     1      24.588  -0.320  53.776  1.00  0.00     0.728 A 
HETATM    6  N4  UNL     1      23.506  -0.097  53.020  1.00  0.00    -0.045 NA
ENDROOT
BRANCH   1   7
HETATM    7  N1  UNL     1      21.242  -0.139  52.448  1.00  0.00    -0.340 N 
HETATM    8  H10 UNL     1      20.885  -0.822  51.760  1.00  0.00     0.167 HD
BRANCH   7   9
HETATM    9  C8  UNL     1      20.485   1.023  52.199  1.00  0.00     0.040 A 
HETATM   10  C3  UNL     1      19.170   1.104  51.803  1.00  0.00    -0.032 A 
HETATM   11  C4  UNL     1      18.541   2.311  51.576  1.00  0.00     0.009 A 
HETATM   12  C5  UNL     1      19.216   3.498  51.738  1.00  0.00     0.001 A 
HETATM   13  C6  UNL     1      20.548   3.521  52.135  1.00  0.00     0.002 A 
HETATM   14  C7  UNL     1      21.095   2.276  52.339  1.00  0.00     0.030 A 
BRANCH  10  15
HETATM   15  C2  UNL     1      18.408  -0.144  51.585  1.00  0.00     0.036 C 
HETATM   16  C1  UNL     1      17.582   0.057  50.304  1.00  0.00     0.010 C 
ENDBRANCH  10  15
ENDBRANCH   7   9
ENDBRANCH   1   7
BRANCH   5  17
HETATM   17  N3  UNL     1      25.845   0.113  53.284  1.00  0.00    -0.185 N 
HETATM   18  H13 UNL     1      25.890   1.045  52.799  1.00  0.00     0.184 HD
BRANCH  17  19
HETATM   19  C13 UNL     1      27.101  -0.530  53.340  1.00  0.00     0.082 A 
HETATM   20  C14 UNL     1      27.286  -1.796  52.848  1.00  0.00     0.033 A 
HETATM   21  C15 UNL     1      28.485  -2.471  52.876  1.00  0.00     0.002 A 
HETATM   22  C16 UNL     1      29.615  -1.873  53.430  1.00  0.00     0.003 A 
HETATM   23  C17 UNL     1      29.430  -0.603  53.924  1.00  0.00     0.039 A 
HETATM   24  C18 UNL     1      28.228   0.055  53.887  1.00  0.00     0.095 A 
BRANCH  24  25
HETATM   25  O1  UNL     1      28.132   1.356  54.418  1.00  0.00    -0.354 OA
HETATM   26  C19 UNL     1      28.659   2.440  53.654  1.00  0.00     0.210 C 
ENDBRANCH  24  25
ENDBRANCH  17  19
ENDBRANCH   5  17
TORSDOF 6
ENDMDL
MODEL 6
REMARK VINA RESULT:      -7.7      1.670      2.274
REMARK  6 active torsions:
REMARK  status: ('A' for Active; 'I' for Inactive)
REMARK    1  A    between atoms: C2_2  and  C3_3 
REMARK    2  A    between atoms: C8_8  and  N1_9 
REMARK    3  A    between atoms: N1_9  and  C9_10 
REMARK    4  A    between atoms: C12_14  and  N3_15 
REMARK    5  A    between atoms: N3_15  and  C13_16 
REMARK    6  A    between atoms: C18_21  and  O1_22 
ROOT
HETATM    1  C9  UNL     1      23.901   4.839  50.244  1.00  0.00     0.148 A 
HETATM    2  C10 UNL     1      22.661   5.360  50.474  1.00  0.00     0.071 A 
HETATM    3  C11 UNL     1      22.005   5.236  51.678  1.00  0.00     0.140 A 
HETATM    4  N2  UNL     1      22.697   4.564  52.587  1.00  0.00    -0.075 NA
HETATM    5  C12 UNL     1      23.903   4.023  52.456  1.00  0.00     0.728 A 
HETATM    6  N4  UNL     1      24.476   4.185  51.257  1.00  0.00    -0.045 NA
ENDROOT
BRANCH   1   7
HETATM    7  N1  UNL     1      24.653   4.913  49.045  1.00  0.00    -0.340 N 
HETATM    8  H10 UNL     1      24.357   4.444  48.173  1.00  0.00     0.167 HD
BRANCH   7   9
HETATM    9  C8  UNL     1      25.861   5.550  48.696  1.00  0.00     0.040 A 
HETATM   10  C3  UNL     1      26.033   6.837  48.238  1.00  0.00    -0.032 A 
HETATM   11  C4  UNL     1      27.275   7.344  47.914  1.00  0.00     0.009 A 
HETATM   12  C5  UNL     1      28.405   6.571  48.038  1.00  0.00     0.001 A 
HETATM   13  C6  UNL     1      28.335   5.259  48.491  1.00  0.00     0.002 A 
HETATM   14  C7  UNL     1      27.061   4.835  48.790  1.00  0.00     0.030 A 
BRANCH  10  15
HETATM   15  C2  UNL     1      24.846   7.699  48.057  1.00  0.00     0.036 C 
HETATM   16  C1  UNL     1      24.693   8.522  49.347  1.00  0.00     0.010 C 
ENDBRANCH  10  15
ENDBRANCH   7   9
ENDBRANCH   1   7
BRANCH   5  17
HETATM   17  N3  UNL     1      24.624   3.310  53.447  1.00  0.00    -0.185 N 
HETATM   18  H13 UNL     1      24.915   3.827  54.314  1.00  0.00     0.184 HD
BRANCH  17  19
HETATM   19  C13 UNL     1      25.032   1.958  53.461  1.00  0.00     0.082 A 
HETATM   20  C14 UNL     1      24.163   0.938  53.170  1.00  0.00     0.033 A 
HETATM   21  C15 UNL     1      24.504  -0.395  53.169  1.00  0.00     0.002 A 
HETATM   22  C16 UNL     1      25.805  -0.787  53.477  1.00  0.00     0.003 A 
HETATM   23  C17 UNL     1      26.678   0.235  53.768  1.00  0.00     0.039 A 
HETATM   24  C18 UNL     1      26.320   1.559  53.764  1.00  0.00     0.095 A 
BRANCH  24  25
HETATM   25  O1  UNL     1      27.284   2.538  54.076  1.00  0.00    -0.354 OA
HETATM   26  C19 UNL     1      28.620   2.344  53.617  1.00  0.00     0.210 C 
ENDBRANCH  24  25
ENDBRANCH  17  19
ENDBRANCH   5  17
TORSDOF 6
ENDMDL
MODEL 7
REMARK VINA RESULT:      -7.6      2.946      6.126
REMARK  6 active torsions:
REMARK  status: ('A' for Active; 'I' for Inactive)
REMARK    1  A    between atoms: C2_2  and  C3_3 
REMARK    2  A    between atoms: C8_8  and  N1_9 
REMARK    3  A    between atoms: N1_9  and  C9_10 
REMARK    4  A    between atoms: C12_14  and  N3_15 
REMARK    5  A    between atoms: N3_15  and  C13_16 
REMARK    6  A    between atoms: C18_21  and  O1_22 
ROOT
HETATM    1  C9  UNL     1      23.966  -0.484  53.618  1.00  0.00     0.148 A 
HETATM    2  C10 UNL     1      23.326  -1.024  54.695  1.00  0.00     0.071 A 
HETATM    3  C11 UNL     1      21.982  -0.848  54.938  1.00  0.00     0.140 A 
HETATM    4  N2  UNL     1      21.376  -0.104  54.023  1.00  0.00    -0.075 NA
HETATM    5  C12 UNL     1      21.913   0.460  52.946  1.00  0.00     0.728 A 
HETATM    6  N4  UNL     1      23.223   0.243  52.779  1.00  0.00    -0.045 NA
ENDROOT
BRANCH   1   7
HETATM    7  N1  UNL     1      25.338  -0.609  53.285  1.00  0.00    -0.340 N 
HETATM    8  H10 UNL     1      25.727  -1.459  52.844  1.00  0.00     0.167 HD
BRANCH   7   9
HETATM    9  C8  UNL     1      26.450   0.245  53.419  1.00  0.00     0.040 A 
HETATM   10  C3  UNL     1      26.758   1.353  52.663  1.00  0.00    -0.032 A 
HETATM   11  C4  UNL     1      27.893   2.106  52.887  1.00  0.00     0.009 A 
HETATM   12  C5  UNL     1      28.775   1.771  53.887  1.00  0.00     0.001 A 
HETATM   13  C6  UNL     1      28.552   0.669  54.704  1.00  0.00     0.002 A 
HETATM   14  C7  UNL     1      27.400  -0.023  54.413  1.00  0.00     0.030 A 
BRANCH  10  15
HETATM   15  C2  UNL     1      25.859   1.738  51.555  1.00  0.00     0.036 C 
HETATM   16  C1  UNL     1      26.577   2.841  50.761  1.00  0.00     0.010 C 
ENDBRANCH  10  15
ENDBRANCH   7   9
ENDBRANCH   1   7
BRANCH   5  17
HETATM   17  N3  UNL     1      21.240   1.250  51.980  1.00  0.00    -0.185 N 
HETATM   18  H13 UNL     1      20.263   1.568  52.197  1.00  0.00     0.184 HD
BRANCH  17  19
HETATM   19  C13 UNL     1      21.689   1.699  50.718  1.00  0.00     0.082 A 
HETATM   20  C14 UNL     1      21.439   0.992  49.570  1.00  0.00     0.033 A 
HETATM   21  C15 UNL     1      21.851   1.380  48.316  1.00  0.00     0.002 A 
HETATM   22  C16 UNL     1      22.572   2.560  48.147  1.00  0.00     0.003 A 
HETATM   23  C17 UNL     1      22.823   3.270  49.298  1.00  0.00     0.039 A 
HETATM   24  C18 UNL     1      22.404   2.868  50.541  1.00  0.00     0.095 A 
BRANCH  24  25
HETATM   25  O1  UNL     1      22.708   3.661  51.665  1.00  0.00    -0.354 OA
HETATM   26  C19 UNL     1      23.521   4.818  51.478  1.00  0.00     0.210 C 
ENDBRANCH  24  25
ENDBRANCH  17  19
ENDBRANCH   5  17
TORSDOF 6
ENDMDL
MODEL 8
REMARK VINA RESULT:      -7.6      2.835      6.316
REMARK  6 active torsions:
REMARK  status: ('A' for Active; 'I' for Inactive)
REMARK    1  A    between atoms: C2_2  and  C3_3 
REMARK    2  A    between atoms: C8_8  and  N1_9 
REMARK    3  A    between atoms: N1_9  and  C9_10 
REMARK    4  A    between atoms: C12_14  and  N3_15 
REMARK    5  A    between atoms: N3_15  and  C13_16 
REMARK    6  A    between atoms: C18_21  and  O1_22 
ROOT
HETATM    1  C9  UNL     1      25.415   2.612  51.051  1.00  0.00     0.148 A 
HETATM    2  C10 UNL     1      25.285   3.799  50.393  1.00  0.00     0.071 A 
HETATM    3  C11 UNL     1      24.091   4.478  50.292  1.00  0.00     0.140 A 
HETATM    4  N2  UNL     1      23.086   3.863  50.898  1.00  0.00    -0.075 NA
HETATM    5  C12 UNL     1      23.115   2.712  51.561  1.00  0.00     0.728 A 
HETATM    6  N4  UNL     1      24.311   2.113  51.615  1.00  0.00    -0.045 NA
ENDROOT
BRANCH   1   7
HETATM    7  N1  UNL     1      26.595   1.842  51.208  1.00  0.00    -0.340 N 
HETATM    8  H10 UNL     1      27.132   1.478  50.404  1.00  0.00     0.167 HD
BRANCH   7   9
HETATM    9  C8  UNL     1      27.316   1.391  52.332  1.00  0.00     0.040 A 
HETATM   10  C3  UNL     1      27.293   0.137  52.899  1.00  0.00    -0.032 A 
HETATM   11  C4  UNL     1      28.040  -0.180  54.016  1.00  0.00     0.009 A 
HETATM   12  C5  UNL     1      28.846   0.759  54.614  1.00  0.00     0.001 A 
HETATM   13  C6  UNL     1      28.936   2.054  54.116  1.00  0.00     0.002 A 
HETATM   14  C7  UNL     1      28.160   2.283  53.004  1.00  0.00     0.030 A 
BRANCH  10  15
HETATM   15  C2  UNL     1      26.419  -0.900  52.313  1.00  0.00     0.036 C 
HETATM   16  C1  UNL     1      27.126  -2.250  52.522  1.00  0.00     0.010 C 
ENDBRANCH  10  15
ENDBRANCH   7   9
ENDBRANCH   1   7
BRANCH   5  17
HETATM   17  N3  UNL     1      22.023   2.076  52.204  1.00  0.00    -0.185 N 
HETATM   18  H13 UNL     1      21.079   2.532  52.138  1.00  0.00     0.184 HD
BRANCH  17  19
HETATM   19  C13 UNL     1      21.995   0.878  52.950  1.00  0.00     0.082 A 
HETATM   20  C14 UNL     1      23.121   0.374  53.550  1.00  0.00     0.033 A 
HETATM   21  C15 UNL     1      23.152  -0.787  54.287  1.00  0.00     0.002 A 
HETATM   22  C16 UNL     1      21.992  -1.537  54.467  1.00  0.00     0.003 A 
HETATM   23  C17 UNL     1      20.862  -1.033  53.866  1.00  0.00     0.039 A 
HETATM   24  C18 UNL     1      20.849   0.127  53.135  1.00  0.00     0.095 A 
BRANCH  24  25
HETATM   25  O1  UNL     1      19.643   0.567  52.555  1.00  0.00    -0.354 OA
HETATM   26  C19 UNL     1      18.572  -0.366  52.428  1.00  0.00     0.210 C 
ENDBRANCH  24  25
ENDBRANCH  17  19
ENDBRANCH   5  17
TORSDOF 6
ENDMDL
MODEL 9
REMARK VINA RESULT:      -7.6      1.343      2.058
REMARK  6 active torsions:
REMARK  status: ('A' for Active; 'I' for Inactive)
REMARK    1  A    between atoms: C2_2  and  C3_3 
REMARK    2  A    between atoms: C8_8  and  N1_9 
REMARK    3  A    between atoms: N1_9  and  C9_10 
REMARK    4  A    between atoms: C12_14  and  N3_15 
REMARK    5  A    between atoms: N3_15  and  C13_16 
REMARK    6  A    between atoms: C18_21  and  O1_22 
ROOT
HETATM    1  C9  UNL     1      24.480   3.309  50.616  1.00  0.00     0.148 A 
HETATM    2  C10 UNL     1      23.171   3.093  50.930  1.00  0.00     0.071 A 
HETATM    3  C11 UNL     1      22.758   2.640  52.164  1.00  0.00     0.140 A 
HETATM    4  N2  UNL     1      23.758   2.437  53.010  1.00  0.00    -0.075 NA
HETATM    5  C12 UNL     1      25.056   2.619  52.796  1.00  0.00     0.728 A 
HETATM    6  N4  UNL     1      25.378   3.060  51.574  1.00  0.00    -0.045 NA
ENDROOT
BRANCH   1   7
HETATM    7  N1  UNL     1      25.001   3.771  49.381  1.00  0.00    -0.340 N 
HETATM    8  H10 UNL     1      24.719   3.367  48.473  1.00  0.00     0.167 HD
BRANCH   7   9
HETATM    9  C8  UNL     1      25.926   4.776  49.034  1.00  0.00     0.040 A 
HETATM   10  C3  UNL     1      25.679   6.114  48.829  1.00  0.00    -0.032 A 
HETATM   11  C4  UNL     1      26.675   7.002  48.477  1.00  0.00     0.009 A 
HETATM   12  C5  UNL     1      27.972   6.576  48.313  1.00  0.00     0.001 A 
HETATM   13  C6  UNL     1      28.322   5.244  48.497  1.00  0.00     0.002 A 
HETATM   14  C7  UNL     1      27.270   4.430  48.846  1.00  0.00     0.030 A 
BRANCH  10  15
HETATM   15  C2  UNL     1      24.296   6.618  48.962  1.00  0.00     0.036 C 
HETATM   16  C1  UNL     1      24.287   7.589  50.153  1.00  0.00     0.010 C 
ENDBRANCH  10  15
ENDBRANCH   7   9
ENDBRANCH   1   7
BRANCH   5  17
HETATM   17  N3  UNL     1      26.107   2.396  53.721  1.00  0.00    -0.185 N 
HETATM   18  H13 UNL     1      26.128   2.981  54.594  1.00  0.00     0.184 HD
BRANCH  17  19
HETATM   19  C13 UNL     1      27.177   1.477  53.660  1.00  0.00     0.082 A 
HETATM   20  C14 UNL     1      28.484   1.884  53.738  1.00  0.00     0.033 A 
HETATM   21  C15 UNL     1      29.566   1.035  53.684  1.00  0.00     0.002 A 
HETATM   22  C16 UNL     1      29.375  -0.337  53.540  1.00  0.00     0.003 A 
HETATM   23  C17 UNL     1      28.064  -0.747  53.460  1.00  0.00     0.039 A 
HETATM   24  C18 UNL     1      26.998   0.114  53.517  1.00  0.00     0.095 A 
BRANCH  24  25
HETATM   25  O1  UNL     1      25.688  -0.398  53.427  1.00  0.00    -0.354 OA
HETATM   26  C19 UNL     1      25.045  -0.827  54.626  1.00  0.00     0.210 C 
ENDBRANCH  24  25
ENDBRANCH  17  19
ENDBRANCH   5  17
TORSDOF 6
ENDMDL
