MODEL 1
REMARK VINA RESULT:      -9.1      0.000      0.000
REMARK  8 active torsions:
REMARK  status: ('A' for Active; 'I' for Inactive)
REMARK    1  A    between atoms: N2_6  and  O1_7 
REMARK    2  A    between atoms: C5_8  and  N3_9 
REMARK    3  A    between atoms: N3_9  and  C6_10 
REMARK    4  A    between atoms: C14_20  and  C15_21 
REMARK    5  A    between atoms: C15_21  and  C16_22 
REMARK    6  A    between atoms: C16_22  and  C17_23 
REMARK    7  A    between atoms: C17_23  and  N4_24 
REMARK    8  A    between atoms: C21_29  and  O3_30 
ROOT
HETATM    1  C1  UNL     1      18.779   1.056  51.470  1.00  0.00     0.049 C 
HETATM    2  C2  UNL     1      20.116   0.590  51.932  1.00  0.00    -0.053 A 
HETATM    3  C3  UNL     1      20.063   0.077  53.227  1.00  0.00     0.041 A 
HETATM    4  C4  UNL     1      21.211  -0.407  53.838  1.00  0.00     0.094 A 
HETATM    5  N1  UNL     1      21.587  -0.965  55.015  1.00  0.00    -0.144 NA
HETATM    6  N2  UNL     1      22.880  -1.231  55.008  1.00  0.00    -0.122 N 
HETATM    7  C5  UNL     1      23.445  -0.870  53.832  1.00  0.00     0.167 A 
HETATM    8  C12 UNL     1      22.390  -0.355  53.108  1.00  0.00     0.043 A 
HETATM    9  C13 UNL     1      22.464   0.148  51.826  1.00  0.00     0.025 A 
HETATM   10  C14 UNL     1      21.311   0.624  51.240  1.00  0.00    -0.051 A 
ENDROOT
BRANCH  10  11
HETATM   11  C15 UNL     1      21.197   1.185  49.894  1.00  0.00     0.041 C 
BRANCH  11  12
HETATM   12  C16 UNL     1      22.251   2.213  49.625  1.00  0.00     0.035 C 
BRANCH  12  13
HETATM   13  C17 UNL     1      22.065   3.459  50.463  1.00  0.00     0.276 C 
BRANCH  13  14
HETATM   14  N4  UNL     1      23.234   3.805  51.204  1.00  0.00     0.121 N 
HETATM   15  C18 UNL     1      24.481   3.463  50.620  1.00  0.00     0.301 C 
HETATM   16  C19 UNL     1      25.088   4.549  49.773  1.00  0.00     0.198 C 
HETATM   17  O2  UNL     1      25.164   5.758  50.454  1.00  0.00    -0.385 OA
HETATM   18  C20 UNL     1      23.843   6.134  50.716  1.00  0.00     0.231 C 
HETATM   19  C21 UNL     1      23.216   5.154  51.650  1.00  0.00     0.380 C 
BRANCH  19  20
HETATM   20  O3  UNL     1      23.852   5.297  52.894  1.00  0.00    -0.366 OA
HETATM   21  H24 UNL     1      24.438   6.088  52.918  1.00  0.00     0.212 HD
ENDBRANCH  19  20
ENDBRANCH  13  14
ENDBRANCH  12  13
ENDBRANCH  11  12
ENDBRANCH  10  11
BRANCH   7  22
HETATM   22  N3  UNL     1      24.821  -1.070  53.614  1.00  0.00    -0.338 N 
HETATM   23  H6  UNL     1      25.024  -2.078  53.439  1.00  0.00     0.167 HD
BRANCH  22  24
HETATM   24  C6  UNL     1      25.818  -0.076  53.620  1.00  0.00     0.035 A 
HETATM   25  C7  UNL     1      25.469   1.274  53.633  1.00  0.00     0.032 A 
HETATM   26  C8  UNL     1      26.381   2.302  53.629  1.00  0.00     0.046 A 
HETATM   27  C9  UNL     1      27.726   1.910  53.611  1.00  0.00     0.138 A 
HETATM   28  F1  UNL     1      28.640   2.916  53.607  1.00  0.00    -0.204 F 
HETATM   29  C10 UNL     1      28.067   0.579  53.598  1.00  0.00     0.074 A 
HETATM   30 CL1  UNL     1      29.779   0.124  53.572  1.00  0.00    -0.081 Cl
HETATM   31  C11 UNL     1      27.145  -0.442  53.602  1.00  0.00     0.056 A 
ENDBRANCH  22  24
ENDBRANCH   7  22
BRANCH   6  32
HETATM   32  O1  UNL     1      23.400  -1.803  56.149  1.00  0.00    -0.265 OA
HETATM   33  H5  UNL     1      24.426  -1.907  56.196  1.00  0.00     0.247 HD
ENDBRANCH   6  32
TORSDOF 8
ENDMDL
MODEL 2
REMARK VINA RESULT:      -8.9      1.613      2.372
REMARK  8 active torsions:
REMARK  status: ('A' for Active; 'I' for Inactive)
REMARK    1  A    between atoms: N2_6  and  O1_7 
REMARK    2  A    between atoms: C5_8  and  N3_9 
REMARK    3  A    between atoms: N3_9  and  C6_10 
REMARK    4  A    between atoms: C14_20  and  C15_21 
REMARK    5  A    between atoms: C15_21  and  C16_22 
REMARK    6  A    between atoms: C16_22  and  C17_23 
REMARK    7  A    between atoms: C17_23  and  N4_24 
REMARK    8  A    between atoms: C21_29  and  O3_30 
ROOT
HETATM    1  C1  UNL     1      20.769   1.618  49.094  1.00  0.00     0.049 C 
HETATM    2  C2  UNL     1      21.604   1.278  50.279  1.00  0.00    -0.053 A 
HETATM    3  C3  UNL     1      20.985   0.326  51.089  1.00  0.00     0.041 A 
HETATM    4  C4  UNL     1      21.606  -0.121  52.247  1.00  0.00     0.094 A 
HETATM    5  N1  UNL     1      21.375  -0.988  53.262  1.00  0.00    -0.144 NA
HETATM    6  N2  UNL     1      22.384  -0.983  54.113  1.00  0.00    -0.122 N 
HETATM    7  C5  UNL     1      23.348  -0.116  53.721  1.00  0.00     0.167 A 
HETATM    8  C12 UNL     1      22.848   0.417  52.551  1.00  0.00     0.043 A 
HETATM    9  C13 UNL     1      23.478   1.359  51.764  1.00  0.00     0.025 A 
HETATM   10  C14 UNL     1      22.842   1.789  50.619  1.00  0.00    -0.051 A 
ENDROOT
BRANCH  10  11
HETATM   11  C15 UNL     1      23.356   2.770  49.665  1.00  0.00     0.041 C 
BRANCH  11  12
HETATM   12  C16 UNL     1      24.610   3.425  50.155  1.00  0.00     0.035 C 
BRANCH  12  13
HETATM   13  C17 UNL     1      24.864   4.756  49.481  1.00  0.00     0.276 C 
BRANCH  13  14
HETATM   14  N4  UNL     1      25.122   5.805  50.412  1.00  0.00     0.121 N 
HETATM   15  C18 UNL     1      25.732   6.978  49.896  1.00  0.00     0.301 C 
HETATM   16  C19 UNL     1      24.761   8.041  49.458  1.00  0.00     0.198 C 
HETATM   17  O2  UNL     1      23.841   8.347  50.454  1.00  0.00    -0.385 OA
HETATM   18  C20 UNL     1      23.102   7.179  50.664  1.00  0.00     0.231 C 
HETATM   19  C21 UNL     1      23.990   6.112  51.213  1.00  0.00     0.380 C 
BRANCH  19  20
HETATM   20  O3  UNL     1      24.361   6.505  52.509  1.00  0.00    -0.366 OA
HETATM   21  H24 UNL     1      24.904   7.326  52.503  1.00  0.00     0.212 HD
ENDBRANCH  19  20
ENDBRANCH  13  14
ENDBRANCH  12  13
ENDBRANCH  11  12
ENDBRANCH  10  11
BRANCH   7  22
HETATM   22  N3  UNL     1      24.516   0.043  54.488  1.00  0.00    -0.338 N 
HETATM   23  H6  UNL     1      24.285   0.384  55.447  1.00  0.00     0.167 HD
BRANCH  22  24
HETATM   24  C6  UNL     1      25.833  -0.213  54.062  1.00  0.00     0.035 A 
HETATM   25  C7  UNL     1      26.108  -1.297  53.228  1.00  0.00     0.032 A 
HETATM   26  C8  UNL     1      27.365  -1.619  52.778  1.00  0.00     0.046 A 
HETATM   27  C9  UNL     1      28.393  -0.774  53.215  1.00  0.00     0.138 A 
HETATM   28  F1  UNL     1      29.643  -1.080  52.778  1.00  0.00    -0.204 F 
HETATM   29  C10 UNL     1      28.121   0.293  54.037  1.00  0.00     0.074 A 
HETATM   30 CL1  UNL     1      29.449   1.336  54.571  1.00  0.00    -0.081 Cl
HETATM   31  C11 UNL     1      26.857   0.606  54.482  1.00  0.00     0.056 A 
ENDBRANCH  22  24
ENDBRANCH   7  22
BRANCH   6  32
HETATM   32  O1  UNL     1      22.281  -1.823  55.201  1.00  0.00    -0.265 OA
HETATM   33  H5  UNL     1      21.919  -1.414  56.077  1.00  0.00     0.247 HD
ENDBRANCH   6  32
TORSDOF 8
ENDMDL
MODEL 3
REMARK VINA RESULT:      -8.8      3.258      5.750
REMARK  8 active torsions:
REMARK  status: ('A' for Active; 'I' for Inactive)
REMARK    1  A    between atoms: N2_6  and  O1_7 
REMARK    2  A    between atoms: C5_8  and  N3_9 
REMARK    3  A    between atoms: N3_9  and  C6_10 
REMARK    4  A    between atoms: C14_20  and  C15_21 
REMARK    5  A    between atoms: C15_21  and  C16_22 
REMARK    6  A    between atoms: C16_22  and  C17_23 
REMARK    7  A    between atoms: C17_23  and  N4_24 
REMARK    8  A    between atoms: C21_29  and  O3_30 
ROOT
HETATM    1  C1  UNL     1      21.963  -1.625  53.929  1.00  0.00     0.049 C 
HETATM    2  C2  UNL     1      22.302  -0.256  53.451  1.00  0.00    -0.053 A 
HETATM    3  C3  UNL     1      21.176   0.417  52.977  1.00  0.00     0.041 A 
HETATM    4  C4  UNL     1      21.286   1.709  52.485  1.00  0.00     0.094 A 
HETATM    5  N1  UNL     1      20.495   2.676  51.960  1.00  0.00    -0.144 NA
HETATM    6  N2  UNL     1      21.207   3.749  51.667  1.00  0.00    -0.122 N 
HETATM    7  C5  UNL     1      22.512   3.566  51.977  1.00  0.00     0.167 A 
HETATM    8  C12 UNL     1      22.549   2.285  52.488  1.00  0.00     0.043 A 
HETATM    9  C13 UNL     1      23.675   1.637  52.952  1.00  0.00     0.025 A 
HETATM   10  C14 UNL     1      23.541   0.354  53.436  1.00  0.00    -0.051 A 
ENDROOT
BRANCH  10  11
HETATM   11  C15 UNL     1      24.615  -0.482  53.971  1.00  0.00     0.041 C 
BRANCH  11  12
HETATM   12  C16 UNL     1      25.717  -0.682  52.978  1.00  0.00     0.035 C 
BRANCH  12  13
HETATM   13  C17 UNL     1      27.069  -0.825  53.641  1.00  0.00     0.276 C 
BRANCH  13  14
HETATM   14  N4  UNL     1      28.048   0.055  53.092  1.00  0.00     0.121 N 
HETATM   15  C18 UNL     1      27.574   1.281  52.557  1.00  0.00     0.301 C 
HETATM   16  C19 UNL     1      27.564   2.423  53.537  1.00  0.00     0.198 C 
HETATM   17  O2  UNL     1      28.797   2.587  54.157  1.00  0.00    -0.385 OA
HETATM   18  C20 UNL     1      29.014   1.418  54.893  1.00  0.00     0.231 C 
HETATM   19  C21 UNL     1      29.150   0.256  53.966  1.00  0.00     0.380 C 
BRANCH  19  20
HETATM   20  O3  UNL     1      30.350   0.427  53.257  1.00  0.00    -0.366 OA
HETATM   21  H24 UNL     1      30.263   0.155  52.315  1.00  0.00     0.212 HD
ENDBRANCH  19  20
ENDBRANCH  13  14
ENDBRANCH  12  13
ENDBRANCH  11  12
ENDBRANCH  10  11
BRANCH   7  22
HETATM   22  N3  UNL     1      23.447   4.592  51.746  1.00  0.00    -0.338 N 
HETATM   23  H6  UNL     1      23.222   5.433  52.321  1.00  0.00     0.167 HD
BRANCH  22  24
HETATM   24  C6  UNL     1      24.549   4.533  50.872  1.00  0.00     0.035 A 
HETATM   25  C7  UNL     1      25.161   3.312  50.588  1.00  0.00     0.032 A 
HETATM   26  C8  UNL     1      26.244   3.173  49.755  1.00  0.00     0.046 A 
HETATM   27  C9  UNL     1      26.719   4.361  49.185  1.00  0.00     0.138 A 
HETATM   28  F1  UNL     1      27.791   4.238  48.359  1.00  0.00    -0.204 F 
HETATM   29  C10 UNL     1      26.115   5.562  49.466  1.00  0.00     0.074 A 
HETATM   30 CL1  UNL     1      26.747   7.043  48.728  1.00  0.00    -0.081 Cl
HETATM   31  C11 UNL     1      25.030   5.690  50.302  1.00  0.00     0.056 A 
ENDBRANCH  22  24
ENDBRANCH   7  22
BRANCH   6  32
HETATM   32  O1  UNL     1      20.524   4.815  51.122  1.00  0.00    -0.265 OA
HETATM   33  H5  UNL     1      21.090   5.577  50.718  1.00  0.00     0.247 HD
ENDBRANCH   6  32
TORSDOF 8
ENDMDL
MODEL 4
REMARK VINA RESULT:      -8.7      2.964      5.600
REMARK  8 active torsions:
REMARK  status: ('A' for Active; 'I' for Inactive)
REMARK    1  A    between atoms: N2_6  and  O1_7 
REMARK    2  A    between atoms: C5_8  and  N3_9 
REMARK    3  A    between atoms: N3_9  and  C6_10 
REMARK    4  A    between atoms: C14_20  and  C15_21 
REMARK    5  A    between atoms: C15_21  and  C16_22 
REMARK    6  A    between atoms: C16_22  and  C17_23 
REMARK    7  A    between atoms: C17_23  and  N4_24 
REMARK    8  A    between atoms: C21_29  and  O3_30 
ROOT
HETATM    1  C1  UNL     1      22.282  -1.194  54.995  1.00  0.00     0.049 C 
HETATM    2  C2  UNL     1      22.426  -0.212  53.884  1.00  0.00    -0.053 A 
HETATM    3  C3  UNL     1      21.252   0.513  53.683  1.00  0.00     0.041 A 
HETATM    4  C4  UNL     1      21.184   1.478  52.689  1.00  0.00     0.094 A 
HETATM    5  N1  UNL     1      20.294   2.366  52.182  1.00  0.00    -0.144 NA
HETATM    6  N2  UNL     1      20.835   3.051  51.192  1.00  0.00    -0.122 N 
HETATM    7  C5  UNL     1      22.115   2.665  50.976  1.00  0.00     0.167 A 
HETATM    8  C12 UNL     1      22.321   1.680  51.920  1.00  0.00     0.043 A 
HETATM    9  C13 UNL     1      23.492   0.973  52.101  1.00  0.00     0.025 A 
HETATM   10  C14 UNL     1      23.536   0.019  53.095  1.00  0.00    -0.051 A 
ENDROOT
BRANCH  10  11
HETATM   11  C15 UNL     1      24.685  -0.818  53.436  1.00  0.00     0.041 C 
BRANCH  11  12
HETATM   12  C16 UNL     1      25.733  -0.793  52.367  1.00  0.00     0.035 C 
BRANCH  12  13
HETATM   13  C17 UNL     1      27.114  -0.525  52.923  1.00  0.00     0.276 C 
BRANCH  13  14
HETATM   14  N4  UNL     1      27.115   0.475  53.941  1.00  0.00     0.121 N 
HETATM   15  C18 UNL     1      28.120   0.369  54.937  1.00  0.00     0.301 C 
HETATM   16  C19 UNL     1      29.379   1.135  54.632  1.00  0.00     0.198 C 
HETATM   17  O2  UNL     1      29.116   2.464  54.321  1.00  0.00    -0.385 OA
HETATM   18  C20 UNL     1      28.358   2.439  53.146  1.00  0.00     0.231 C 
HETATM   19  C21 UNL     1      27.039   1.791  53.411  1.00  0.00     0.380 C 
BRANCH  19  20
HETATM   20  O3  UNL     1      26.314   2.649  54.253  1.00  0.00    -0.366 OA
HETATM   21  H24 UNL     1      25.785   3.304  53.743  1.00  0.00     0.212 HD
ENDBRANCH  19  20
ENDBRANCH  13  14
ENDBRANCH  12  13
ENDBRANCH  11  12
ENDBRANCH  10  11
BRANCH   7  22
HETATM   22  N3  UNL     1      22.879   3.272  49.963  1.00  0.00    -0.338 N 
HETATM   23  H6  UNL     1      22.739   2.783  49.052  1.00  0.00     0.167 HD
BRANCH  22  24
HETATM   24  C6  UNL     1      23.727   4.386  50.113  1.00  0.00     0.035 A 
HETATM   25  C7  UNL     1      23.402   5.404  51.010  1.00  0.00     0.032 A 
HETATM   26  C8  UNL     1      24.171   6.527  51.205  1.00  0.00     0.046 A 
HETATM   27  C9  UNL     1      25.336   6.598  50.432  1.00  0.00     0.138 A 
HETATM   28  F1  UNL     1      26.106   7.703  50.615  1.00  0.00    -0.204 F 
HETATM   29  C10 UNL     1      25.653   5.594  49.550  1.00  0.00     0.074 A 
HETATM   30 CL1  UNL     1      27.135   5.723  48.587  1.00  0.00    -0.081 Cl
HETATM   31  C11 UNL     1      24.877   4.474  49.361  1.00  0.00     0.056 A 
ENDBRANCH  22  24
ENDBRANCH   7  22
BRANCH   6  32
HETATM   32  O1  UNL     1      20.036   3.993  50.582  1.00  0.00    -0.265 OA
HETATM   33  H5  UNL     1      20.186   4.979  50.848  1.00  0.00     0.247 HD
ENDBRANCH   6  32
TORSDOF 8
ENDMDL
MODEL 5
REMARK VINA RESULT:      -8.6      3.375      5.764
REMARK  8 active torsions:
REMARK  status: ('A' for Active; 'I' for Inactive)
REMARK    1  A    between atoms: N2_6  and  O1_7 
REMARK    2  A    between atoms: C5_8  and  N3_9 
REMARK    3  A    between atoms: N3_9  and  C6_10 
REMARK    4  A    between atoms: C14_20  and  C15_21 
REMARK    5  A    between atoms: C15_21  and  C16_22 
REMARK    6  A    between atoms: C16_22  and  C17_23 
REMARK    7  A    between atoms: C17_23  and  N4_24 
REMARK    8  A    between atoms: C21_29  and  O3_30 
ROOT
HETATM    1  C1  UNL     1      21.221  -1.038  54.458  1.00  0.00     0.049 C 
HETATM    2  C2  UNL     1      21.620  -0.261  53.252  1.00  0.00    -0.053 A 
HETATM    3  C3  UNL     1      20.555  -0.105  52.365  1.00  0.00     0.041 A 
HETATM    4  C4  UNL     1      20.727   0.591  51.177  1.00  0.00     0.094 A 
HETATM    5  N1  UNL     1      20.003   0.960  50.093  1.00  0.00    -0.144 NA
HETATM    6  N2  UNL     1      20.750   1.647  49.249  1.00  0.00    -0.122 N 
HETATM    7  C5  UNL     1      22.015   1.778  49.714  1.00  0.00     0.167 A 
HETATM    8  C12 UNL     1      21.987   1.112  50.922  1.00  0.00     0.043 A 
HETATM    9  C13 UNL     1      23.054   0.970  51.786  1.00  0.00     0.025 A 
HETATM   10  C14 UNL     1      22.859   0.275  52.960  1.00  0.00    -0.051 A 
ENDROOT
BRANCH  10  11
HETATM   11  C15 UNL     1      23.865   0.030  53.993  1.00  0.00     0.041 C 
BRANCH  11  12
HETATM   12  C16 UNL     1      25.081  -0.647  53.441  1.00  0.00     0.035 C 
BRANCH  12  13
HETATM   13  C17 UNL     1      26.343  -0.247  54.173  1.00  0.00     0.276 C 
BRANCH  13  14
HETATM   14  N4  UNL     1      27.428   0.033  53.291  1.00  0.00     0.121 N 
HETATM   15  C18 UNL     1      27.089   0.504  51.995  1.00  0.00     0.301 C 
HETATM   16  C19 UNL     1      27.026   2.003  51.877  1.00  0.00     0.198 C 
HETATM   17  O2  UNL     1      28.184   2.611  52.347  1.00  0.00    -0.385 OA
HETATM   18  C20 UNL     1      28.247   2.311  53.711  1.00  0.00     0.231 C 
HETATM   19  C21 UNL     1      28.427   0.841  53.896  1.00  0.00     0.380 C 
BRANCH  19  20
HETATM   20  O3  UNL     1      29.711   0.516  53.428  1.00  0.00    -0.366 OA
HETATM   21  H24 UNL     1      29.694  -0.251  52.811  1.00  0.00     0.212 HD
ENDBRANCH  19  20
ENDBRANCH  13  14
ENDBRANCH  12  13
ENDBRANCH  11  12
ENDBRANCH  10  11
BRANCH   7  22
HETATM   22  N3  UNL     1      22.978   2.481  48.967  1.00  0.00    -0.338 N 
HETATM   23  H6  UNL     1      23.129   2.026  48.040  1.00  0.00     0.167 HD
BRANCH  22  24
HETATM   24  C6  UNL     1      23.665   3.640  49.373  1.00  0.00     0.035 A 
HETATM   25  C7  UNL     1      25.058   3.682  49.343  1.00  0.00     0.032 A 
HETATM   26  C8  UNL     1      25.801   4.771  49.732  1.00  0.00     0.046 A 
HETATM   27  C9  UNL     1      25.061   5.873  50.177  1.00  0.00     0.138 A 
HETATM   28  F1  UNL     1      25.782   6.958  50.565  1.00  0.00    -0.204 F 
HETATM   29  C10 UNL     1      23.688   5.830  50.206  1.00  0.00     0.074 A 
HETATM   30 CL1  UNL     1      22.789   7.245  50.778  1.00  0.00    -0.081 Cl
HETATM   31  C11 UNL     1      22.954   4.734  49.814  1.00  0.00     0.056 A 
ENDBRANCH  22  24
ENDBRANCH   7  22
BRANCH   6  32
HETATM   32  O1  UNL     1      20.137   2.087  48.096  1.00  0.00    -0.265 OA
HETATM   33  H5  UNL     1      19.637   1.382  47.531  1.00  0.00     0.247 HD
ENDBRANCH   6  32
TORSDOF 8
ENDMDL
MODEL 6
REMARK VINA RESULT:      -8.3      2.818      5.086
REMARK  8 active torsions:
REMARK  status: ('A' for Active; 'I' for Inactive)
REMARK    1  A    between atoms: N2_6  and  O1_7 
REMARK    2  A    between atoms: C5_8  and  N3_9 
REMARK    3  A    between atoms: N3_9  and  C6_10 
REMARK    4  A    between atoms: C14_20  and  C15_21 
REMARK    5  A    between atoms: C15_21  and  C16_22 
REMARK    6  A    between atoms: C16_22  and  C17_23 
REMARK    7  A    between atoms: C17_23  and  N4_24 
REMARK    8  A    between atoms: C21_29  and  O3_30 
ROOT
HETATM    1  C1  UNL     1      28.470   1.997  53.434  1.00  0.00     0.049 C 
HETATM    2  C2  UNL     1      27.096   1.423  53.426  1.00  0.00    -0.053 A 
HETATM    3  C3  UNL     1      26.913   0.512  54.465  1.00  0.00     0.041 A 
HETATM    4  C4  UNL     1      25.696  -0.135  54.626  1.00  0.00     0.094 A 
HETATM    5  N1  UNL     1      25.118  -1.040  55.453  1.00  0.00    -0.144 NA
HETATM    6  N2  UNL     1      23.872  -1.273  55.086  1.00  0.00    -0.122 N 
HETATM    7  C5  UNL     1      23.541  -0.542  53.995  1.00  0.00     0.167 A 
HETATM    8  C12 UNL     1      24.692   0.166  53.717  1.00  0.00     0.043 A 
HETATM    9  C13 UNL     1      24.852   1.064  52.682  1.00  0.00     0.025 A 
HETATM   10  C14 UNL     1      26.070   1.694  52.542  1.00  0.00    -0.051 A 
ENDROOT
BRANCH  10  11
HETATM   11  C15 UNL     1      26.420   2.675  51.516  1.00  0.00     0.041 C 
BRANCH  11  12
HETATM   12  C16 UNL     1      25.609   2.495  50.270  1.00  0.00     0.035 C 
BRANCH  12  13
HETATM   13  C17 UNL     1      24.336   3.312  50.290  1.00  0.00     0.276 C 
BRANCH  13  14
HETATM   14  N4  UNL     1      24.466   4.516  51.044  1.00  0.00     0.121 N 
HETATM   15  C18 UNL     1      24.704   5.706  50.308  1.00  0.00     0.301 C 
HETATM   16  C19 UNL     1      23.459   6.459  49.925  1.00  0.00     0.198 C 
HETATM   17  O2  UNL     1      22.640   6.700  51.022  1.00  0.00    -0.385 OA
HETATM   18  C20 UNL     1      22.233   5.444  51.480  1.00  0.00     0.231 C 
HETATM   19  C21 UNL     1      23.414   4.685  51.985  1.00  0.00     0.380 C 
BRANCH  19  20
HETATM   20  O3  UNL     1      23.859   5.332  53.149  1.00  0.00    -0.366 OA
HETATM   21  H24 UNL     1      23.782   4.754  53.943  1.00  0.00     0.212 HD
ENDBRANCH  19  20
ENDBRANCH  13  14
ENDBRANCH  12  13
ENDBRANCH  11  12
ENDBRANCH  10  11
BRANCH   7  22
HETATM   22  N3  UNL     1      22.252  -0.640  53.439  1.00  0.00    -0.338 N 
HETATM   23  H6  UNL     1      21.805  -1.545  53.701  1.00  0.00     0.167 HD
BRANCH  22  24
HETATM   24  C6  UNL     1      21.616   0.326  52.637  1.00  0.00     0.035 A 
HETATM   25  C7  UNL     1      20.863   1.344  53.221  1.00  0.00     0.032 A 
HETATM   26  C8  UNL     1      20.205   2.317  52.507  1.00  0.00     0.046 A 
HETATM   27  C9  UNL     1      20.334   2.230  51.116  1.00  0.00     0.138 A 
HETATM   28  F1  UNL     1      19.687   3.186  50.397  1.00  0.00    -0.204 F 
HETATM   29  C10 UNL     1      21.076   1.227  50.542  1.00  0.00     0.074 A 
HETATM   30 CL1  UNL     1      21.211   1.149  48.777  1.00  0.00    -0.081 Cl
HETATM   31  C11 UNL     1      21.731   0.257  51.266  1.00  0.00     0.056 A 
ENDBRANCH  22  24
ENDBRANCH   7  22
BRANCH   6  32
HETATM   32  O1  UNL     1      23.163  -2.180  55.843  1.00  0.00    -0.265 OA
HETATM   33  H5  UNL     1      22.431  -1.801  56.465  1.00  0.00     0.247 HD
ENDBRANCH   6  32
TORSDOF 8
ENDMDL
MODEL 7
REMARK VINA RESULT:      -8.3      1.748      2.524
REMARK  8 active torsions:
REMARK  status: ('A' for Active; 'I' for Inactive)
REMARK    1  A    between atoms: N2_6  and  O1_7 
REMARK    2  A    between atoms: C5_8  and  N3_9 
REMARK    3  A    between atoms: N3_9  and  C6_10 
REMARK    4  A    between atoms: C14_20  and  C15_21 
REMARK    5  A    between atoms: C15_21  and  C16_22 
REMARK    6  A    between atoms: C16_22  and  C17_23 
REMARK    7  A    between atoms: C17_23  and  N4_24 
REMARK    8  A    between atoms: C21_29  and  O3_30 
ROOT
HETATM    1  C1  UNL     1      18.019  -1.320  53.111  1.00  0.00     0.049 C 
HETATM    2  C2  UNL     1      19.455  -0.932  53.192  1.00  0.00    -0.053 A 
HETATM    3  C3  UNL     1      20.105  -1.583  54.240  1.00  0.00     0.041 A 
HETATM    4  C4  UNL     1      21.451  -1.353  54.483  1.00  0.00     0.094 A 
HETATM    5  N1  UNL     1      22.420  -1.752  55.342  1.00  0.00    -0.144 NA
HETATM    6  N2  UNL     1      23.564  -1.158  55.059  1.00  0.00    -0.122 N 
HETATM    7  C5  UNL     1      23.432  -0.328  53.997  1.00  0.00     0.167 A 
HETATM    8  C12 UNL     1      22.104  -0.459  53.646  1.00  0.00     0.043 A 
HETATM    9  C13 UNL     1      21.480   0.196  52.604  1.00  0.00     0.025 A 
HETATM   10  C14 UNL     1      20.142  -0.049  52.383  1.00  0.00    -0.051 A 
ENDROOT
BRANCH  10  11
HETATM   11  C15 UNL     1      19.320   0.544  51.328  1.00  0.00     0.041 C 
BRANCH  11  12
HETATM   12  C16 UNL     1      19.641   1.991  51.116  1.00  0.00     0.035 C 
BRANCH  12  13
HETATM   13  C17 UNL     1      20.360   2.234  49.807  1.00  0.00     0.276 C 
BRANCH  13  14
HETATM   14  N4  UNL     1      21.256   3.342  49.868  1.00  0.00     0.121 N 
HETATM   15  C18 UNL     1      21.304   4.056  51.094  1.00  0.00     0.301 C 
HETATM   16  C19 UNL     1      22.353   3.567  52.056  1.00  0.00     0.198 C 
HETATM   17  O2  UNL     1      23.609   3.497  51.465  1.00  0.00    -0.385 OA
HETATM   18  C20 UNL     1      23.503   2.537  50.454  1.00  0.00     0.231 C 
HETATM   19  C21 UNL     1      22.558   3.016  49.401  1.00  0.00     0.380 C 
BRANCH  19  20
HETATM   20  O3  UNL     1      23.167   4.105  48.759  1.00  0.00    -0.366 OA
HETATM   21  H24 UNL     1      23.763   4.603  49.364  1.00  0.00     0.212 HD
ENDBRANCH  19  20
ENDBRANCH  13  14
ENDBRANCH  12  13
ENDBRANCH  11  12
ENDBRANCH  10  11
BRANCH   7  22
HETATM   22  N3  UNL     1      24.536   0.406  53.526  1.00  0.00    -0.338 N 
HETATM   23  H6  UNL     1      24.249   1.372  53.256  1.00  0.00     0.167 HD
BRANCH  22  24
HETATM   24  C6  UNL     1      25.860  -0.059  53.419  1.00  0.00     0.035 A 
HETATM   25  C7  UNL     1      26.133  -1.277  52.796  1.00  0.00     0.032 A 
HETATM   26  C8  UNL     1      27.395  -1.803  52.661  1.00  0.00     0.046 A 
HETATM   27  C9  UNL     1      28.429  -1.028  53.200  1.00  0.00     0.138 A 
HETATM   28  F1  UNL     1      29.683  -1.536  53.075  1.00  0.00    -0.204 F 
HETATM   29  C10 UNL     1      28.158   0.171  53.814  1.00  0.00     0.074 A 
HETATM   30 CL1  UNL     1      29.493   1.121  54.487  1.00  0.00    -0.081 Cl
HETATM   31  C11 UNL     1      26.890   0.689  53.944  1.00  0.00     0.056 A 
ENDBRANCH  22  24
ENDBRANCH   7  22
BRANCH   6  32
HETATM   32  O1  UNL     1      24.640  -1.473  55.859  1.00  0.00    -0.265 OA
HETATM   33  H5  UNL     1      25.323  -2.150  55.483  1.00  0.00     0.247 HD
ENDBRANCH   6  32
TORSDOF 8
ENDMDL
MODEL 8
REMARK VINA RESULT:      -8.2      3.425      6.897
REMARK  8 active torsions:
REMARK  status: ('A' for Active; 'I' for Inactive)
REMARK    1  A    between atoms: N2_6  and  O1_7 
REMARK    2  A    between atoms: C5_8  and  N3_9 
REMARK    3  A    between atoms: N3_9  and  C6_10 
REMARK    4  A    between atoms: C14_20  and  C15_21 
REMARK    5  A    between atoms: C15_21  and  C16_22 
REMARK    6  A    between atoms: C16_22  and  C17_23 
REMARK    7  A    between atoms: C17_23  and  N4_24 
REMARK    8  A    between atoms: C21_29  and  O3_30 
ROOT
HETATM    1  C1  UNL     1      21.865   0.328  52.627  1.00  0.00     0.049 C 
HETATM    2  C2  UNL     1      22.432   1.688  52.411  1.00  0.00    -0.053 A 
HETATM    3  C3  UNL     1      21.438   2.616  52.102  1.00  0.00     0.041 A 
HETATM    4  C4  UNL     1      21.767   3.943  51.863  1.00  0.00     0.094 A 
HETATM    5  N1  UNL     1      21.152   5.110  51.552  1.00  0.00    -0.144 NA
HETATM    6  N2  UNL     1      22.035   6.086  51.452  1.00  0.00    -0.122 N 
HETATM    7  C5  UNL     1      23.289   5.635  51.690  1.00  0.00     0.167 A 
HETATM    8  C12 UNL     1      23.108   4.291  51.946  1.00  0.00     0.043 A 
HETATM    9  C13 UNL     1      24.106   3.389  52.250  1.00  0.00     0.025 A 
HETATM   10  C14 UNL     1      23.756   2.076  52.483  1.00  0.00    -0.051 A 
ENDROOT
BRANCH  10  11
HETATM   11  C15 UNL     1      24.671   0.988  52.822  1.00  0.00     0.041 C 
BRANCH  11  12
HETATM   12  C16 UNL     1      25.994   1.135  52.139  1.00  0.00     0.035 C 
BRANCH  12  13
HETATM   13  C17 UNL     1      26.685  -0.195  51.932  1.00  0.00     0.276 C 
BRANCH  13  14
HETATM   14  N4  UNL     1      27.092  -0.801  53.157  1.00  0.00     0.121 N 
HETATM   15  C18 UNL     1      27.708  -2.076  53.063  1.00  0.00     0.301 C 
HETATM   16  C19 UNL     1      29.209  -2.035  52.957  1.00  0.00     0.198 C 
HETATM   17  O2  UNL     1      29.780  -1.272  53.970  1.00  0.00    -0.385 OA
HETATM   18  C20 UNL     1      29.320   0.033  53.772  1.00  0.00     0.231 C 
HETATM   19  C21 UNL     1      27.843   0.083  53.978  1.00  0.00     0.380 C 
BRANCH  19  20
HETATM   20  O3  UNL     1      27.604  -0.148  55.343  1.00  0.00    -0.366 OA
HETATM   21  H24 UNL     1      26.820  -0.726  55.486  1.00  0.00     0.212 HD
ENDBRANCH  19  20
ENDBRANCH  13  14
ENDBRANCH  12  13
ENDBRANCH  11  12
ENDBRANCH  10  11
BRANCH   7  22
HETATM   22  N3  UNL     1      24.384   6.516  51.636  1.00  0.00    -0.338 N 
HETATM   23  H6  UNL     1      24.438   7.092  52.505  1.00  0.00     0.167 HD
BRANCH  22  24
HETATM   24  C6  UNL     1      25.305   6.637  50.579  1.00  0.00     0.035 A 
HETATM   25  C7  UNL     1      25.643   5.526  49.806  1.00  0.00     0.032 A 
HETATM   26  C8  UNL     1      26.539   5.560  48.765  1.00  0.00     0.046 A 
HETATM   27  C9  UNL     1      27.116   6.811  48.511  1.00  0.00     0.138 A 
HETATM   28  F1  UNL     1      28.005   6.859  47.484  1.00  0.00    -0.204 F 
HETATM   29  C10 UNL     1      26.782   7.903  49.273  1.00  0.00     0.074 A 
HETATM   30 CL1  UNL     1      27.536   9.467  48.922  1.00  0.00    -0.081 Cl
HETATM   31  C11 UNL     1      25.883   7.858  50.314  1.00  0.00     0.056 A 
ENDBRANCH  22  24
ENDBRANCH   7  22
BRANCH   6  32
HETATM   32  O1  UNL     1      21.544   7.335  51.137  1.00  0.00    -0.265 OA
HETATM   33  H5  UNL     1      20.526   7.476  51.227  1.00  0.00     0.247 HD
ENDBRANCH   6  32
TORSDOF 8
ENDMDL
MODEL 9
REMARK VINA RESULT:      -8.2      5.150      8.165
REMARK  8 active torsions:
REMARK  status: ('A' for Active; 'I' for Inactive)
REMARK    1  A    between atoms: N2_6  and  O1_7 
REMARK    2  A    between atoms: C5_8  and  N3_9 
REMARK    3  A    between atoms: N3_9  and  C6_10 
REMARK    4  A    between atoms: C14_20  and  C15_21 
REMARK    5  A    between atoms: C15_21  and  C16_22 
REMARK    6  A    between atoms: C16_22  and  C17_23 
REMARK    7  A    between atoms: C17_23  and  N4_24 
REMARK    8  A    between atoms: C21_29  and  O3_30 
ROOT
HETATM    1  C1  UNL     1      28.089   9.144  48.837  1.00  0.00     0.049 C 
HETATM    2  C2  UNL     1      27.257   7.946  49.135  1.00  0.00    -0.053 A 
HETATM    3  C3  UNL     1      26.243   8.237  50.047  1.00  0.00     0.041 A 
HETATM    4  C4  UNL     1      25.360   7.248  50.454  1.00  0.00     0.094 A 
HETATM    5  N1  UNL     1      24.289   7.104  51.273  1.00  0.00    -0.144 NA
HETATM    6  N2  UNL     1      23.846   5.861  51.243  1.00  0.00    -0.122 N 
HETATM    7  C5  UNL     1      24.589   5.100  50.405  1.00  0.00     0.167 A 
HETATM    8  C12 UNL     1      25.534   5.979  49.918  1.00  0.00     0.043 A 
HETATM    9  C13 UNL     1      26.530   5.670  49.015  1.00  0.00     0.025 A 
HETATM   10  C14 UNL     1      27.396   6.669  48.625  1.00  0.00    -0.051 A 
ENDROOT
BRANCH  10  11
HETATM   11  C15 UNL     1      28.501   6.531  47.678  1.00  0.00     0.041 C 
BRANCH  11  12
HETATM   12  C16 UNL     1      29.521   5.541  48.149  1.00  0.00     0.035 C 
BRANCH  12  13
HETATM   13  C17 UNL     1      30.823   6.203  48.544  1.00  0.00     0.276 C 
BRANCH  13  14
HETATM   14  N4  UNL     1      31.937   5.314  48.472  1.00  0.00     0.121 N 
HETATM   15  C18 UNL     1      31.957   4.406  47.381  1.00  0.00     0.301 C 
HETATM   16  C19 UNL     1      32.690   4.910  46.167  1.00  0.00     0.198 C 
HETATM   17  O2  UNL     1      33.971   5.351  46.479  1.00  0.00    -0.385 OA
HETATM   18  C20 UNL     1      33.801   6.443  47.337  1.00  0.00     0.231 C 
HETATM   19  C21 UNL     1      33.180   5.987  48.615  1.00  0.00     0.380 C 
BRANCH  19  20
HETATM   20  O3  UNL     1      34.127   5.191  49.279  1.00  0.00    -0.366 OA
HETATM   21  H24 UNL     1      33.893   5.053  50.225  1.00  0.00     0.212 HD
ENDBRANCH  19  20
ENDBRANCH  13  14
ENDBRANCH  12  13
ENDBRANCH  11  12
ENDBRANCH  10  11
BRANCH   7  22
HETATM   22  N3  UNL     1      24.284   3.738  50.223  1.00  0.00    -0.338 N 
HETATM   23  H6  UNL     1      23.605   3.614  49.440  1.00  0.00     0.167 HD
BRANCH  22  24
HETATM   24  C6  UNL     1      24.801   2.662  50.969  1.00  0.00     0.035 A 
HETATM   25  C7  UNL     1      26.176   2.429  51.012  1.00  0.00     0.032 A 
HETATM   26  C8  UNL     1      26.756   1.396  51.707  1.00  0.00     0.046 A 
HETATM   27  C9  UNL     1      25.866   0.560  52.394  1.00  0.00     0.138 A 
HETATM   28  F1  UNL     1      26.426  -0.467  53.086  1.00  0.00    -0.204 F 
HETATM   29  C10 UNL     1      24.513   0.792  52.350  1.00  0.00     0.074 A 
HETATM   30 CL1  UNL     1      23.419  -0.289  53.230  1.00  0.00    -0.081 Cl
HETATM   31  C11 UNL     1      23.942   1.830  51.650  1.00  0.00     0.056 A 
ENDBRANCH  22  24
ENDBRANCH   7  22
BRANCH   6  32
HETATM   32  O1  UNL     1      22.755   5.574  52.034  1.00  0.00    -0.265 OA
HETATM   33  H5  UNL     1      22.939   5.348  53.024  1.00  0.00     0.247 HD
ENDBRANCH   6  32
TORSDOF 8
ENDMDL
