MODEL 1
REMARK VINA RESULT:      -7.4      0.000      0.000
REMARK  9 active torsions:
REMARK  status: ('A' for Active; 'I' for Inactive)
REMARK    1  A    between atoms: C2_2  and  N1_3 
REMARK    2  A    between atoms: C2_2  and  N4_22 
REMARK    3  A    between atoms: C6_7  and  C7_8 
REMARK    4  A    between atoms: C7_8  and  O1_9 
REMARK    5  A    between atoms: O1_9  and  C8_10 
REMARK    6  A    between atoms: C10_14  and  O2_15 
REMARK    7  A    between atoms: C13_18  and  C14_19 
REMARK    8  A    between atoms: C14_19  and  O3_20 
REMARK    9  A    between atoms: C19_26  and  O4_27 
ROOT
HETATM    1  N1  UNL     1      19.008  -0.102  52.348  1.00  0.00    -0.338 N 
HETATM    2  C3  UNL     1      17.766  -0.808  52.696  1.00  0.00     0.134 C 
HETATM    3  C4  UNL     1      18.265  -2.000  53.445  1.00  0.00     0.049 C 
HETATM    4  C5  UNL     1      19.557  -1.510  54.018  1.00  0.00     0.002 C 
HETATM    5  C6  UNL     1      19.946  -0.421  53.361  1.00  0.00     0.033 C 
ENDROOT
BRANCH   5   6
HETATM    6  C7  UNL     1      21.159   0.368  53.606  1.00  0.00     0.234 C 
BRANCH   6   7
HETATM    7  O1  UNL     1      22.337  -0.292  53.184  1.00  0.00    -0.328 OA
BRANCH   7   8
HETATM    8  C8  UNL     1      23.473  -0.464  53.926  1.00  0.00     0.176 A 
HETATM    9  N2  UNL     1      23.234  -1.135  54.998  1.00  0.00    -0.218 NA
HETATM   10  C9  UNL     1      24.352  -1.370  55.842  1.00  0.00     0.233 A 
HETATM   11  N3  UNL     1      25.548  -1.001  55.671  1.00  0.00    -0.246 NA
HETATM   12  C10 UNL     1      25.988  -0.237  54.520  1.00  0.00     0.282 A 
HETATM   13  C12 UNL     1      24.848   0.012  53.633  1.00  0.00     0.043 A 
HETATM   14  C13 UNL     1      24.894   0.682  52.476  1.00  0.00     0.015 C 
BRANCH  12  15
HETATM   15  O2  UNL     1      26.972  -0.945  53.821  1.00  0.00    -0.365 OA
HETATM   16  C11 UNL     1      28.194  -0.317  54.032  1.00  0.00     0.204 C 
ENDBRANCH  12  15
BRANCH  14  17
HETATM   17  C14 UNL     1      25.848   1.390  51.608  1.00  0.00     0.195 C 
BRANCH  17  18
HETATM   18  O3  UNL     1      25.647   2.744  51.631  1.00  0.00    -0.392 OA
HETATM   19  C15 UNL     1      26.111   3.419  50.541  1.00  0.00     0.201 C 
ENDBRANCH  17  18
ENDBRANCH  14  17
ENDBRANCH   7   8
ENDBRANCH   6   7
ENDBRANCH   5   6
BRANCH   1  20
HETATM   20  C2  UNL     1      19.216   0.734  51.220  1.00  0.00     0.093 C 
HETATM   21  C1  UNL     1      18.210   0.622  50.378  1.00  0.00     0.085 C 
BRANCH  20  22
HETATM   22  N4  UNL     1      20.305   1.603  50.932  1.00  0.00    -0.276 N 
HETATM   23  C16 UNL     1      21.243   1.084  50.121  1.00  0.00     0.102 A 
HETATM   24  C17 UNL     1      22.320   1.921  49.829  1.00  0.00     0.021 A 
HETATM   25  C18 UNL     1      22.445   3.203  50.322  1.00  0.00     0.044 A 
HETATM   26  C19 UNL     1      21.428   3.675  51.160  1.00  0.00     0.137 A 
HETATM   27  C21 UNL     1      20.364   2.843  51.447  1.00  0.00     0.286 A 
HETATM   28  O5  UNL     1      19.400   3.170  52.188  1.00  0.00    -0.265 OA
BRANCH  26  29
HETATM   29  O4  UNL     1      21.430   4.926  51.717  1.00  0.00    -0.351 OA
HETATM   30  C20 UNL     1      21.543   6.123  50.970  1.00  0.00     0.210 C 
ENDBRANCH  26  29
ENDBRANCH  20  22
ENDBRANCH   1  20
TORSDOF 9
ENDMDL
MODEL 2
REMARK VINA RESULT:      -7.4      2.708      4.344
REMARK  9 active torsions:
REMARK  status: ('A' for Active; 'I' for Inactive)
REMARK    1  A    between atoms: C2_2  and  N1_3 
REMARK    2  A    between atoms: C2_2  and  N4_22 
REMARK    3  A    between atoms: C6_7  and  C7_8 
REMARK    4  A    between atoms: C7_8  and  O1_9 
REMARK    5  A    between atoms: O1_9  and  C8_10 
REMARK    6  A    between atoms: C10_14  and  O2_15 
REMARK    7  A    between atoms: C13_18  and  C14_19 
REMARK    8  A    between atoms: C14_19  and  O3_20 
REMARK    9  A    between atoms: C19_26  and  O4_27 
ROOT
HETATM    1  N1  UNL     1      22.038   3.617  50.389  1.00  0.00    -0.338 N 
HETATM    2  C3  UNL     1      21.183   4.725  50.840  1.00  0.00     0.134 C 
HETATM    3  C4  UNL     1      20.027   4.014  51.464  1.00  0.00     0.049 C 
HETATM    4  C5  UNL     1      20.638   2.723  51.910  1.00  0.00     0.002 C 
HETATM    5  C6  UNL     1      21.788   2.535  51.270  1.00  0.00     0.033 C 
ENDROOT
BRANCH   5   6
HETATM    6  C7  UNL     1      22.700   1.394  51.416  1.00  0.00     0.234 C 
BRANCH   6   7
HETATM    7  O1  UNL     1      23.827   1.692  52.216  1.00  0.00    -0.328 OA
BRANCH   7   8
HETATM    8  C8  UNL     1      24.426   0.848  53.111  1.00  0.00     0.176 A 
HETATM    9  N2  UNL     1      23.584   0.000  53.589  1.00  0.00    -0.218 NA
HETATM   10  C9  UNL     1      24.106  -0.925  54.531  1.00  0.00     0.233 A 
HETATM   11  N3  UNL     1      25.291  -1.018  54.956  1.00  0.00    -0.246 NA
HETATM   12  C10 UNL     1      26.363  -0.143  54.523  1.00  0.00     0.282 A 
HETATM   13  C12 UNL     1      25.844   0.819  53.545  1.00  0.00     0.043 A 
HETATM   14  C13 UNL     1      26.560   1.770  52.935  1.00  0.00     0.015 C 
BRANCH  12  15
HETATM   15  O2  UNL     1      27.388  -0.892  53.935  1.00  0.00    -0.365 OA
HETATM   16  C11 UNL     1      26.855  -1.586  52.855  1.00  0.00     0.204 C 
ENDBRANCH  12  15
BRANCH  14  17
HETATM   17  C14 UNL     1      27.931   2.300  52.874  1.00  0.00     0.195 C 
BRANCH  17  18
HETATM   18  O3  UNL     1      28.390   2.664  54.110  1.00  0.00    -0.392 OA
HETATM   19  C15 UNL     1      29.467   1.960  54.561  1.00  0.00     0.201 C 
ENDBRANCH  17  18
ENDBRANCH  14  17
ENDBRANCH   7   8
ENDBRANCH   6   7
ENDBRANCH   5   6
BRANCH   1  20
HETATM   20  C2  UNL     1      22.935   3.636  49.289  1.00  0.00     0.093 C 
HETATM   21  C1  UNL     1      22.401   3.020  48.255  1.00  0.00     0.085 C 
BRANCH  20  22
HETATM   22  N4  UNL     1      24.236   4.203  49.198  1.00  0.00    -0.276 N 
HETATM   23  C16 UNL     1      25.238   3.379  49.552  1.00  0.00     0.102 A 
HETATM   24  C17 UNL     1      26.521   3.918  49.471  1.00  0.00     0.021 A 
HETATM   25  C18 UNL     1      26.782   5.209  49.058  1.00  0.00     0.044 A 
HETATM   26  C19 UNL     1      25.688   6.008  48.706  1.00  0.00     0.137 A 
HETATM   27  C21 UNL     1      24.419   5.470  48.787  1.00  0.00     0.286 A 
HETATM   28  O5  UNL     1      23.371   6.103  48.494  1.00  0.00    -0.265 OA
BRANCH  26  29
HETATM   29  O4  UNL     1      25.807   7.304  48.281  1.00  0.00    -0.351 OA
HETATM   30  C20 UNL     1      26.876   7.780  47.484  1.00  0.00     0.210 C 
ENDBRANCH  26  29
ENDBRANCH  20  22
ENDBRANCH   1  20
TORSDOF 9
ENDMDL
MODEL 3
REMARK VINA RESULT:      -7.3      4.257      8.010
REMARK  9 active torsions:
REMARK  status: ('A' for Active; 'I' for Inactive)
REMARK    1  A    between atoms: C2_2  and  N1_3 
REMARK    2  A    between atoms: C2_2  and  N4_22 
REMARK    3  A    between atoms: C6_7  and  C7_8 
REMARK    4  A    between atoms: C7_8  and  O1_9 
REMARK    5  A    between atoms: O1_9  and  C8_10 
REMARK    6  A    between atoms: C10_14  and  O2_15 
REMARK    7  A    between atoms: C13_18  and  C14_19 
REMARK    8  A    between atoms: C14_19  and  O3_20 
REMARK    9  A    between atoms: C19_26  and  O4_27 
ROOT
HETATM    1  N1  UNL     1      23.844   2.584  50.926  1.00  0.00    -0.338 N 
HETATM    2  C3  UNL     1      22.813   1.833  50.193  1.00  0.00     0.134 C 
HETATM    3  C4  UNL     1      22.536   2.717  49.021  1.00  0.00     0.049 C 
HETATM    4  C5  UNL     1      23.831   3.445  48.845  1.00  0.00     0.002 C 
HETATM    5  C6  UNL     1      24.549   3.343  49.959  1.00  0.00     0.033 C 
ENDROOT
BRANCH   5   6
HETATM    6  C7  UNL     1      25.879   3.914  50.204  1.00  0.00     0.234 C 
BRANCH   6   7
HETATM    7  O1  UNL     1      26.474   4.438  49.032  1.00  0.00    -0.328 OA
BRANCH   7   8
HETATM    8  C8  UNL     1      26.723   5.759  48.777  1.00  0.00     0.176 A 
HETATM    9  N2  UNL     1      25.664   6.473  48.936  1.00  0.00    -0.218 NA
HETATM   10  C9  UNL     1      25.816   7.864  48.695  1.00  0.00     0.233 A 
HETATM   11  N3  UNL     1      26.858   8.484  48.343  1.00  0.00    -0.246 NA
HETATM   12  C10 UNL     1      28.134   7.833  48.118  1.00  0.00     0.282 A 
HETATM   13  C12 UNL     1      28.000   6.394  48.368  1.00  0.00     0.043 A 
HETATM   14  C13 UNL     1      28.981   5.492  48.261  1.00  0.00     0.015 C 
BRANCH  12  15
HETATM   15  O2  UNL     1      29.102   8.363  48.979  1.00  0.00    -0.365 OA
HETATM   16  C11 UNL     1      29.968   9.150  48.229  1.00  0.00     0.204 C 
ENDBRANCH  12  15
BRANCH  14  17
HETATM   17  C14 UNL     1      30.410   5.398  47.924  1.00  0.00     0.195 C 
BRANCH  17  18
HETATM   18  O3  UNL     1      31.182   5.198  49.036  1.00  0.00    -0.392 OA
HETATM   19  C15 UNL     1      32.076   6.190  49.309  1.00  0.00     0.201 C 
ENDBRANCH  17  18
ENDBRANCH  14  17
ENDBRANCH   7   8
ENDBRANCH   6   7
ENDBRANCH   5   6
BRANCH   1  20
HETATM   20  C2  UNL     1      24.080   2.548  52.325  1.00  0.00     0.093 C 
HETATM   21  C1  UNL     1      23.731   3.692  52.875  1.00  0.00     0.085 C 
BRANCH  20  22
HETATM   22  N4  UNL     1      24.607   1.494  53.123  1.00  0.00    -0.276 N 
HETATM   23  C16 UNL     1      23.787   0.440  53.279  1.00  0.00     0.102 A 
HETATM   24  C17 UNL     1      24.286  -0.602  54.060  1.00  0.00     0.021 A 
HETATM   25  C18 UNL     1      25.534  -0.585  54.648  1.00  0.00     0.044 A 
HETATM   26  C19 UNL     1      26.330   0.547  54.441  1.00  0.00     0.137 A 
HETATM   27  C21 UNL     1      25.833   1.577  53.667  1.00  0.00     0.286 A 
HETATM   28  O5  UNL     1      26.468   2.636  53.420  1.00  0.00    -0.265 OA
BRANCH  26  29
HETATM   29  O4  UNL     1      27.586   0.691  54.967  1.00  0.00    -0.351 OA
HETATM   30  C20 UNL     1      28.702  -0.085  54.575  1.00  0.00     0.210 C 
ENDBRANCH  26  29
ENDBRANCH  20  22
ENDBRANCH   1  20
TORSDOF 9
ENDMDL
MODEL 4
REMARK VINA RESULT:      -7.3      4.334      8.548
REMARK  9 active torsions:
REMARK  status: ('A' for Active; 'I' for Inactive)
REMARK    1  A    between atoms: C2_2  and  N1_3 
REMARK    2  A    between atoms: C2_2  and  N4_22 
REMARK    3  A    between atoms: C6_7  and  C7_8 
REMARK    4  A    between atoms: C7_8  and  O1_9 
REMARK    5  A    between atoms: O1_9  and  C8_10 
REMARK    6  A    between atoms: C10_14  and  O2_15 
REMARK    7  A    between atoms: C13_18  and  C14_19 
REMARK    8  A    between atoms: C14_19  and  O3_20 
REMARK    9  A    between atoms: C19_26  and  O4_27 
ROOT
HETATM    1  N1  UNL     1      24.827   2.325  51.379  1.00  0.00    -0.338 N 
HETATM    2  C3  UNL     1      23.567   1.677  50.985  1.00  0.00     0.134 C 
HETATM    3  C4  UNL     1      23.008   2.630  49.980  1.00  0.00     0.049 C 
HETATM    4  C5  UNL     1      24.237   3.281  49.427  1.00  0.00     0.002 C 
HETATM    5  C6  UNL     1      25.254   3.082  50.260  1.00  0.00     0.033 C 
ENDROOT
BRANCH   5   6
HETATM    6  C7  UNL     1      26.633   3.555  50.092  1.00  0.00     0.234 C 
BRANCH   6   7
HETATM    7  O1  UNL     1      26.867   4.123  48.818  1.00  0.00    -0.328 OA
BRANCH   7   8
HETATM    8  C8  UNL     1      27.628   5.230  48.558  1.00  0.00     0.176 A 
HETATM    9  N2  UNL     1      28.881   4.938  48.523  1.00  0.00    -0.218 NA
HETATM   10  C9  UNL     1      29.761   6.020  48.259  1.00  0.00     0.233 A 
HETATM   11  N3  UNL     1      29.466   7.231  48.056  1.00  0.00    -0.246 NA
HETATM   12  C10 UNL     1      28.105   7.731  48.062  1.00  0.00     0.282 A 
HETATM   13  C12 UNL     1      27.179   6.625  48.329  1.00  0.00     0.043 A 
HETATM   14  C13 UNL     1      25.847   6.726  48.399  1.00  0.00     0.015 C 
BRANCH  12  15
HETATM   15  O2  UNL     1      27.797   8.302  46.822  1.00  0.00    -0.365 OA
HETATM   16  C11 UNL     1      28.260   9.613  46.820  1.00  0.00     0.204 C 
ENDBRANCH  12  15
BRANCH  14  17
HETATM   17  C14 UNL     1      24.773   7.725  48.284  1.00  0.00     0.195 C 
BRANCH  17  18
HETATM   18  O3  UNL     1      23.546   7.186  48.561  1.00  0.00    -0.392 OA
HETATM   19  C15 UNL     1      22.937   7.673  49.679  1.00  0.00     0.201 C 
ENDBRANCH  17  18
ENDBRANCH  14  17
ENDBRANCH   7   8
ENDBRANCH   6   7
ENDBRANCH   5   6
BRANCH   1  20
HETATM   20  C2  UNL     1      25.480   2.209  52.634  1.00  0.00     0.093 C 
HETATM   21  C1  UNL     1      24.820   2.880  53.554  1.00  0.00     0.085 C 
BRANCH  20  22
HETATM   22  N4  UNL     1      26.668   1.502  52.969  1.00  0.00    -0.276 N 
HETATM   23  C16 UNL     1      27.738   2.280  53.209  1.00  0.00     0.102 A 
HETATM   24  C17 UNL     1      28.914   1.605  53.537  1.00  0.00     0.021 A 
HETATM   25  C18 UNL     1      29.007   0.231  53.620  1.00  0.00     0.044 A 
HETATM   26  C19 UNL     1      27.851  -0.512  53.355  1.00  0.00     0.137 A 
HETATM   27  C21 UNL     1      26.689   0.160  53.031  1.00  0.00     0.286 A 
HETATM   28  O5  UNL     1      25.597  -0.413  52.777  1.00  0.00    -0.265 OA
BRANCH  26  29
HETATM   29  O4  UNL     1      27.807  -1.880  53.402  1.00  0.00    -0.351 OA
HETATM   30  C20 UNL     1      28.912  -2.717  53.117  1.00  0.00     0.210 C 
ENDBRANCH  26  29
ENDBRANCH  20  22
ENDBRANCH   1  20
TORSDOF 9
ENDMDL
MODEL 5
REMARK VINA RESULT:      -7.3      2.940      7.074
REMARK  9 active torsions:
REMARK  status: ('A' for Active; 'I' for Inactive)
REMARK    1  A    between atoms: C2_2  and  N1_3 
REMARK    2  A    between atoms: C2_2  and  N4_22 
REMARK    3  A    between atoms: C6_7  and  C7_8 
REMARK    4  A    between atoms: C7_8  and  O1_9 
REMARK    5  A    between atoms: O1_9  and  C8_10 
REMARK    6  A    between atoms: C10_14  and  O2_15 
REMARK    7  A    between atoms: C13_18  and  C14_19 
REMARK    8  A    between atoms: C14_19  and  O3_20 
REMARK    9  A    between atoms: C19_26  and  O4_27 
ROOT
HETATM    1  N1  UNL     1      24.311   2.999  51.081  1.00  0.00    -0.338 N 
HETATM    2  C3  UNL     1      24.463   1.576  51.422  1.00  0.00     0.134 C 
HETATM    3  C4  UNL     1      25.002   1.628  52.813  1.00  0.00     0.049 C 
HETATM    4  C5  UNL     1      24.461   2.925  53.327  1.00  0.00     0.002 C 
HETATM    5  C6  UNL     1      24.077   3.679  52.302  1.00  0.00     0.033 C 
ENDROOT
BRANCH   5   6
HETATM    6  C7  UNL     1      23.493   5.024  52.370  1.00  0.00     0.234 C 
BRANCH   6   7
HETATM    7  O1  UNL     1      22.092   5.004  52.567  1.00  0.00    -0.328 OA
BRANCH   7   8
HETATM    8  C8  UNL     1      21.157   4.586  51.660  1.00  0.00     0.176 A 
HETATM    9  N2  UNL     1      20.954   5.476  50.753  1.00  0.00    -0.218 NA
HETATM   10  C9  UNL     1      19.998   5.139  49.759  1.00  0.00     0.233 A 
HETATM   11  N3  UNL     1      19.323   4.076  49.657  1.00  0.00    -0.246 NA
HETATM   12  C10 UNL     1      19.426   2.974  50.593  1.00  0.00     0.282 A 
HETATM   13  C12 UNL     1      20.414   3.301  51.626  1.00  0.00     0.043 A 
HETATM   14  C13 UNL     1      20.766   2.509  52.645  1.00  0.00     0.015 C 
BRANCH  12  15
HETATM   15  O2  UNL     1      19.825   1.811  49.925  1.00  0.00    -0.365 OA
HETATM   16  C11 UNL     1      18.760   0.918  49.932  1.00  0.00     0.204 C 
ENDBRANCH  12  15
BRANCH  14  17
HETATM   17  C14 UNL     1      20.469   1.184  53.212  1.00  0.00     0.195 C 
BRANCH  17  18
HETATM   18  O3  UNL     1      21.594   0.577  53.701  1.00  0.00    -0.392 OA
HETATM   19  C15 UNL     1      21.894  -0.629  53.141  1.00  0.00     0.201 C 
ENDBRANCH  17  18
ENDBRANCH  14  17
ENDBRANCH   7   8
ENDBRANCH   6   7
ENDBRANCH   5   6
BRANCH   1  20
HETATM   20  C2  UNL     1      24.386   3.569  49.783  1.00  0.00     0.093 C 
HETATM   21  C1  UNL     1      23.451   3.061  49.008  1.00  0.00     0.085 C 
BRANCH  20  22
HETATM   22  N4  UNL     1      25.287   4.548  49.280  1.00  0.00    -0.276 N 
HETATM   23  C16 UNL     1      24.723   5.727  48.965  1.00  0.00     0.102 A 
HETATM   24  C17 UNL     1      25.591   6.698  48.468  1.00  0.00     0.021 A 
HETATM   25  C18 UNL     1      26.945   6.497  48.298  1.00  0.00     0.044 A 
HETATM   26  C19 UNL     1      27.460   5.243  48.647  1.00  0.00     0.137 A 
HETATM   27  C21 UNL     1      26.597   4.284  49.140  1.00  0.00     0.286 A 
HETATM   28  O5  UNL     1      26.959   3.128  49.482  1.00  0.00    -0.265 OA
BRANCH  26  29
HETATM   29  O4  UNL     1      28.784   4.912  48.528  1.00  0.00    -0.351 OA
HETATM   30  C20 UNL     1      29.811   5.847  48.258  1.00  0.00     0.210 C 
ENDBRANCH  26  29
ENDBRANCH  20  22
ENDBRANCH   1  20
TORSDOF 9
ENDMDL
MODEL 6
REMARK VINA RESULT:      -7.3      2.851      5.045
REMARK  9 active torsions:
REMARK  status: ('A' for Active; 'I' for Inactive)
REMARK    1  A    between atoms: C2_2  and  N1_3 
REMARK    2  A    between atoms: C2_2  and  N4_22 
REMARK    3  A    between atoms: C6_7  and  C7_8 
REMARK    4  A    between atoms: C7_8  and  O1_9 
REMARK    5  A    between atoms: O1_9  and  C8_10 
REMARK    6  A    between atoms: C10_14  and  O2_15 
REMARK    7  A    between atoms: C13_18  and  C14_19 
REMARK    8  A    between atoms: C14_19  and  O3_20 
REMARK    9  A    between atoms: C19_26  and  O4_27 
ROOT
HETATM    1  N1  UNL     1      22.040   4.106  50.172  1.00  0.00    -0.338 N 
HETATM    2  C3  UNL     1      20.783   4.840  49.961  1.00  0.00     0.134 C 
HETATM    3  C4  UNL     1      19.852   4.179  50.923  1.00  0.00     0.049 C 
HETATM    4  C5  UNL     1      20.777   3.685  51.989  1.00  0.00     0.002 C 
HETATM    5  C6  UNL     1      22.020   3.659  51.516  1.00  0.00     0.033 C 
ENDROOT
BRANCH   5   6
HETATM    6  C7  UNL     1      23.227   3.237  52.237  1.00  0.00     0.234 C 
BRANCH   6   7
HETATM    7  O1  UNL     1      23.276   1.840  52.453  1.00  0.00    -0.328 OA
BRANCH   7   8
HETATM    8  C8  UNL     1      24.409   1.081  52.561  1.00  0.00     0.176 A 
HETATM    9  N2  UNL     1      25.342   1.522  51.793  1.00  0.00    -0.218 NA
HETATM   10  C9  UNL     1      26.565   0.802  51.830  1.00  0.00     0.233 A 
HETATM   11  N3  UNL     1      26.848  -0.217  52.521  1.00  0.00    -0.246 NA
HETATM   12  C10 UNL     1      25.914  -0.843  53.436  1.00  0.00     0.282 A 
HETATM   13  C12 UNL     1      24.644  -0.109  53.416  1.00  0.00     0.043 A 
HETATM   14  C13 UNL     1      23.562  -0.408  54.143  1.00  0.00     0.015 C 
BRANCH  12  15
HETATM   15  O2  UNL     1      26.433  -0.833  54.735  1.00  0.00    -0.365 OA
HETATM   16  C11 UNL     1      27.436   0.127  54.795  1.00  0.00     0.204 C 
ENDBRANCH  12  15
BRANCH  14  17
HETATM   17  C14 UNL     1      23.094  -1.383  55.140  1.00  0.00     0.195 C 
BRANCH  17  18
HETATM   18  O3  UNL     1      21.728  -1.449  55.184  1.00  0.00    -0.392 OA
HETATM   19  C15 UNL     1      21.076  -0.420  54.572  1.00  0.00     0.201 C 
ENDBRANCH  17  18
ENDBRANCH  14  17
ENDBRANCH   7   8
ENDBRANCH   6   7
ENDBRANCH   5   6
BRANCH   1  20
HETATM   20  C2  UNL     1      23.065   3.894  49.213  1.00  0.00     0.093 C 
HETATM   21  C1  UNL     1      22.738   2.903  48.409  1.00  0.00     0.085 C 
BRANCH  20  22
HETATM   22  N4  UNL     1      24.298   4.581  49.046  1.00  0.00    -0.276 N 
HETATM   23  C16 UNL     1      25.388   3.881  49.406  1.00  0.00     0.102 A 
HETATM   24  C17 UNL     1      26.608   4.540  49.251  1.00  0.00     0.021 A 
HETATM   25  C18 UNL     1      26.724   5.826  48.764  1.00  0.00     0.044 A 
HETATM   26  C19 UNL     1      25.545   6.492  48.411  1.00  0.00     0.137 A 
HETATM   27  C21 UNL     1      24.340   5.836  48.565  1.00  0.00     0.286 A 
HETATM   28  O5  UNL     1      23.225   6.345  48.278  1.00  0.00    -0.265 OA
BRANCH  26  29
HETATM   29  O4  UNL     1      25.520   7.768  47.917  1.00  0.00    -0.351 OA
HETATM   30  C20 UNL     1      26.340   8.222  46.857  1.00  0.00     0.210 C 
ENDBRANCH  26  29
ENDBRANCH  20  22
ENDBRANCH   1  20
TORSDOF 9
ENDMDL
MODEL 7
REMARK VINA RESULT:      -7.3      2.066      7.049
REMARK  9 active torsions:
REMARK  status: ('A' for Active; 'I' for Inactive)
REMARK    1  A    between atoms: C2_2  and  N1_3 
REMARK    2  A    between atoms: C2_2  and  N4_22 
REMARK    3  A    between atoms: C6_7  and  C7_8 
REMARK    4  A    between atoms: C7_8  and  O1_9 
REMARK    5  A    between atoms: O1_9  and  C8_10 
REMARK    6  A    between atoms: C10_14  and  O2_15 
REMARK    7  A    between atoms: C13_18  and  C14_19 
REMARK    8  A    between atoms: C14_19  and  O3_20 
REMARK    9  A    between atoms: C19_26  and  O4_27 
ROOT
HETATM    1  N1  UNL     1      24.016   3.270  51.708  1.00  0.00    -0.338 N 
HETATM    2  C3  UNL     1      23.847   4.194  52.839  1.00  0.00     0.134 C 
HETATM    3  C4  UNL     1      22.793   5.129  52.344  1.00  0.00     0.049 C 
HETATM    4  C5  UNL     1      22.032   4.281  51.374  1.00  0.00     0.002 C 
HETATM    5  C6  UNL     1      22.770   3.227  51.036  1.00  0.00     0.033 C 
ENDROOT
BRANCH   5   6
HETATM    6  C7  UNL     1      22.396   2.153  50.109  1.00  0.00     0.234 C 
BRANCH   6   7
HETATM    7  O1  UNL     1      21.971   0.978  50.774  1.00  0.00    -0.328 OA
BRANCH   7   8
HETATM    8  C8  UNL     1      20.680   0.656  51.092  1.00  0.00     0.176 A 
HETATM    9  N2  UNL     1      19.912   0.728  50.062  1.00  0.00    -0.218 NA
HETATM   10  C9  UNL     1      18.547   0.412  50.286  1.00  0.00     0.233 A 
HETATM   11  N3  UNL     1      17.994   0.070  51.370  1.00  0.00    -0.246 NA
HETATM   12  C10 UNL     1      18.711  -0.058  52.623  1.00  0.00     0.282 A 
HETATM   13  C12 UNL     1      20.127   0.261  52.411  1.00  0.00     0.043 A 
HETATM   14  C13 UNL     1      21.078   0.238  53.351  1.00  0.00     0.015 C 
BRANCH  12  15
HETATM   15  O2  UNL     1      18.599  -1.365  53.109  1.00  0.00    -0.365 OA
HETATM   16  C11 UNL     1      17.251  -1.702  53.147  1.00  0.00     0.204 C 
ENDBRANCH  12  15
BRANCH  14  17
HETATM   17  C14 UNL     1      21.256  -0.042  54.785  1.00  0.00     0.195 C 
BRANCH  17  18
HETATM   18  O3  UNL     1      21.636  -1.338  55.006  1.00  0.00    -0.392 OA
HETATM   19  C15 UNL     1      22.935  -1.506  55.385  1.00  0.00     0.201 C 
ENDBRANCH  17  18
ENDBRANCH  14  17
ENDBRANCH   7   8
ENDBRANCH   6   7
ENDBRANCH   5   6
BRANCH   1  20
HETATM   20  C2  UNL     1      25.199   2.564  51.365  1.00  0.00     0.093 C 
HETATM   21  C1  UNL     1      25.706   3.040  50.247  1.00  0.00     0.085 C 
BRANCH  20  22
HETATM   22  N4  UNL     1      25.836   1.490  52.046  1.00  0.00    -0.276 N 
HETATM   23  C16 UNL     1      25.040   0.441  52.317  1.00  0.00     0.102 A 
HETATM   24  C17 UNL     1      25.647  -0.621  52.986  1.00  0.00     0.021 A 
HETATM   25  C18 UNL     1      26.975  -0.628  53.360  1.00  0.00     0.044 A 
HETATM   26  C19 UNL     1      27.741   0.499  53.044  1.00  0.00     0.137 A 
HETATM   27  C21 UNL     1      27.137   1.549  52.381  1.00  0.00     0.286 A 
HETATM   28  O5  UNL     1      27.736   2.606  52.051  1.00  0.00    -0.265 OA
BRANCH  26  29
HETATM   29  O4  UNL     1      29.068   0.621  53.358  1.00  0.00    -0.351 OA
HETATM   30  C20 UNL     1      29.908  -0.472  53.679  1.00  0.00     0.210 C 
ENDBRANCH  26  29
ENDBRANCH  20  22
ENDBRANCH   1  20
TORSDOF 9
ENDMDL
MODEL 8
REMARK VINA RESULT:      -7.2      1.740      3.584
REMARK  9 active torsions:
REMARK  status: ('A' for Active; 'I' for Inactive)
REMARK    1  A    between atoms: C2_2  and  N1_3 
REMARK    2  A    between atoms: C2_2  and  N4_22 
REMARK    3  A    between atoms: C6_7  and  C7_8 
REMARK    4  A    between atoms: C7_8  and  O1_9 
REMARK    5  A    between atoms: O1_9  and  C8_10 
REMARK    6  A    between atoms: C10_14  and  O2_15 
REMARK    7  A    between atoms: C13_18  and  C14_19 
REMARK    8  A    between atoms: C14_19  and  O3_20 
REMARK    9  A    between atoms: C19_26  and  O4_27 
ROOT
HETATM    1  N1  UNL     1      21.914   2.864  50.769  1.00  0.00    -0.338 N 
HETATM    2  C3  UNL     1      22.763   3.972  50.307  1.00  0.00     0.134 C 
HETATM    3  C4  UNL     1      23.256   4.563  51.587  1.00  0.00     0.049 C 
HETATM    4  C5  UNL     1      23.226   3.394  52.521  1.00  0.00     0.002 C 
HETATM    5  C6  UNL     1      22.446   2.444  52.013  1.00  0.00     0.033 C 
ENDROOT
BRANCH   5   6
HETATM    6  C7  UNL     1      22.147   1.139  52.613  1.00  0.00     0.234 C 
BRANCH   6   7
HETATM    7  O1  UNL     1      23.228   0.231  52.518  1.00  0.00    -0.328 OA
BRANCH   7   8
HETATM    8  C8  UNL     1      24.140  -0.041  53.500  1.00  0.00     0.176 A 
HETATM    9  N2  UNL     1      23.646  -0.824  54.393  1.00  0.00    -0.218 NA
HETATM   10  C9  UNL     1      24.515  -1.169  55.462  1.00  0.00     0.233 A 
HETATM   11  N3  UNL     1      25.710  -0.802  55.643  1.00  0.00    -0.246 NA
HETATM   12  C10 UNL     1      26.418   0.080  54.735  1.00  0.00     0.282 A 
HETATM   13  C12 UNL     1      25.537   0.444  53.621  1.00  0.00     0.043 A 
HETATM   14  C13 UNL     1      25.867   1.239  52.597  1.00  0.00     0.015 C 
BRANCH  12  15
HETATM   15  O2  UNL     1      27.557  -0.560  54.234  1.00  0.00    -0.365 OA
HETATM   16  C11 UNL     1      28.677   0.030  54.808  1.00  0.00     0.204 C 
ENDBRANCH  12  15
BRANCH  14  17
HETATM   17  C14 UNL     1      27.000   2.026  52.085  1.00  0.00     0.195 C 
BRANCH  17  18
HETATM   18  O3  UNL     1      26.933   2.190  50.728  1.00  0.00    -0.392 OA
HETATM   19  C15 UNL     1      26.490   3.410  50.311  1.00  0.00     0.201 C 
ENDBRANCH  17  18
ENDBRANCH  14  17
ENDBRANCH   7   8
ENDBRANCH   6   7
ENDBRANCH   5   6
BRANCH   1  20
HETATM   20  C2  UNL     1      20.786   2.326  50.095  1.00  0.00     0.093 C 
HETATM   21  C1  UNL     1      21.115   1.969  48.871  1.00  0.00     0.085 C 
BRANCH  20  22
HETATM   22  N4  UNL     1      19.456   2.148  50.565  1.00  0.00    -0.276 N 
HETATM   23  C16 UNL     1      18.941   0.924  50.354  1.00  0.00     0.102 A 
HETATM   24  C17 UNL     1      17.636   0.731  50.807  1.00  0.00     0.021 A 
HETATM   25  C18 UNL     1      16.894   1.710  51.436  1.00  0.00     0.044 A 
HETATM   26  C19 UNL     1      17.497   2.959  51.620  1.00  0.00     0.137 A 
HETATM   27  C21 UNL     1      18.790   3.146  51.170  1.00  0.00     0.286 A 
HETATM   28  O5  UNL     1      19.421   4.229  51.288  1.00  0.00    -0.265 OA
BRANCH  26  29
HETATM   29  O4  UNL     1      16.873   4.015  52.228  1.00  0.00    -0.351 OA
HETATM   30  C20 UNL     1      15.508   4.018  52.603  1.00  0.00     0.210 C 
ENDBRANCH  26  29
ENDBRANCH  20  22
ENDBRANCH   1  20
TORSDOF 9
ENDMDL
MODEL 9
REMARK VINA RESULT:      -7.1      1.752      4.226
REMARK  9 active torsions:
REMARK  status: ('A' for Active; 'I' for Inactive)
REMARK    1  A    between atoms: C2_2  and  N1_3 
REMARK    2  A    between atoms: C2_2  and  N4_22 
REMARK    3  A    between atoms: C6_7  and  C7_8 
REMARK    4  A    between atoms: C7_8  and  O1_9 
REMARK    5  A    between atoms: O1_9  and  C8_10 
REMARK    6  A    between atoms: C10_14  and  O2_15 
REMARK    7  A    between atoms: C13_18  and  C14_19 
REMARK    8  A    between atoms: C14_19  and  O3_20 
REMARK    9  A    between atoms: C19_26  and  O4_27 
ROOT
HETATM    1  N1  UNL     1      20.556   1.452  50.647  1.00  0.00    -0.338 N 
HETATM    2  C3  UNL     1      20.491   1.326  49.183  1.00  0.00     0.134 C 
HETATM    3  C4  UNL     1      21.724   2.039  48.737  1.00  0.00     0.049 C 
HETATM    4  C5  UNL     1      22.642   1.873  49.907  1.00  0.00     0.002 C 
HETATM    5  C6  UNL     1      21.931   1.536  50.980  1.00  0.00     0.033 C 
ENDROOT
BRANCH   5   6
HETATM    6  C7  UNL     1      22.445   1.280  52.330  1.00  0.00     0.234 C 
BRANCH   6   7
HETATM    7  O1  UNL     1      23.446   0.280  52.355  1.00  0.00    -0.328 OA
BRANCH   7   8
HETATM    8  C8  UNL     1      24.272  -0.006  53.408  1.00  0.00     0.176 A 
HETATM    9  N2  UNL     1      23.706  -0.806  54.242  1.00  0.00    -0.218 NA
HETATM   10  C9  UNL     1      24.481  -1.167  55.375  1.00  0.00     0.233 A 
HETATM   11  N3  UNL     1      25.654  -0.800  55.665  1.00  0.00    -0.246 NA
HETATM   12  C10 UNL     1      26.434   0.099  54.837  1.00  0.00     0.282 A 
HETATM   13  C12 UNL     1      25.651   0.481  53.657  1.00  0.00     0.043 A 
HETATM   14  C13 UNL     1      26.065   1.294  52.680  1.00  0.00     0.015 C 
BRANCH  12  15
HETATM   15  O2  UNL     1      27.614  -0.529  54.426  1.00  0.00    -0.365 OA
HETATM   16  C11 UNL     1      28.690   0.179  54.948  1.00  0.00     0.204 C 
ENDBRANCH  12  15
BRANCH  14  17
HETATM   17  C14 UNL     1      27.235   2.092  52.281  1.00  0.00     0.195 C 
BRANCH  17  18
HETATM   18  O3  UNL     1      27.061   2.669  51.052  1.00  0.00    -0.392 OA
HETATM   19  C15 UNL     1      25.818   3.179  50.819  1.00  0.00     0.201 C 
ENDBRANCH  17  18
ENDBRANCH  14  17
ENDBRANCH   7   8
ENDBRANCH   6   7
ENDBRANCH   5   6
BRANCH   1  20
HETATM   20  C2  UNL     1      19.455   1.481  51.542  1.00  0.00     0.093 C 
HETATM   21  C1  UNL     1      19.231   2.714  51.948  1.00  0.00     0.085 C 
BRANCH  20  22
HETATM   22  N4  UNL     1      18.641   0.411  52.004  1.00  0.00    -0.276 N 
HETATM   23  C16 UNL     1      19.207  -0.366  52.943  1.00  0.00     0.102 A 
HETATM   24  C17 UNL     1      18.424  -1.423  53.407  1.00  0.00     0.021 A 
HETATM   25  C18 UNL     1      17.148  -1.683  52.953  1.00  0.00     0.044 A 
HETATM   26  C19 UNL     1      16.625  -0.832  51.973  1.00  0.00     0.137 A 
HETATM   27  C21 UNL     1      17.403   0.214  51.517  1.00  0.00     0.286 A 
HETATM   28  O5  UNL     1      17.027   1.035  50.640  1.00  0.00    -0.265 OA
BRANCH  26  29
HETATM   29  O4  UNL     1      15.373  -0.978  51.437  1.00  0.00    -0.351 OA
HETATM   30  C20 UNL     1      14.920  -2.156  50.796  1.00  0.00     0.210 C 
ENDBRANCH  26  29
ENDBRANCH  20  22
ENDBRANCH   1  20
TORSDOF 9
ENDMDL
