MODEL 1
REMARK VINA RESULT:      -9.3      0.000      0.000
REMARK  2 active torsions:
REMARK  status: ('A' for Active; 'I' for Inactive)
REMARK    1  A    between atoms: O1_2  and  C2_3 
REMARK    2  A    between atoms: C11_14  and  C12_15 
ROOT
HETATM    1  C2  UNL     1      19.719  -0.694  53.049  1.00  0.00     0.066 C 
HETATM    2  C3  UNL     1      20.134   0.215  52.178  1.00  0.00     0.019 C 
HETATM    3  C4  UNL     1      21.158   1.109  51.626  1.00  0.00     0.068 C 
HETATM    4  C5  UNL     1      20.714   1.463  50.203  1.00  0.00     0.280 C 
HETATM    5  N1  UNL     1      19.731   2.497  50.193  1.00  0.00     0.084 N 
HETATM    6  C6  UNL     1      20.418   3.704  50.627  1.00  0.00     0.272 C 
HETATM    7  C7  UNL     1      20.948   3.613  52.005  1.00  0.00     0.063 C 
HETATM    8  C8  UNL     1      21.399   2.292  52.493  1.00  0.00     0.138 C 
HETATM    9  O2  UNL     1      22.760   2.328  52.963  1.00  0.00    -0.357 OA
HETATM   10  C9  UNL     1      23.797   1.669  52.301  1.00  0.00     0.132 C 
HETATM   11  C10 UNL     1      24.565   0.625  52.359  1.00  0.00     0.012 C 
HETATM   12  C11 UNL     1      24.987  -0.593  53.024  1.00  0.00     0.083 C 
HETATM   13  C18 UNL     1      24.402  -0.760  54.403  1.00  0.00     0.102 C 
HETATM   14  N2  UNL     1      23.321  -0.904  55.087  1.00  0.00    -0.276 NA
HETATM   15  C19 UNL     1      22.029  -0.953  54.502  1.00  0.00     0.118 C 
HETATM   16  C20 UNL     1      20.808  -1.045  54.004  1.00  0.00     0.055 C 
HETATM   17  H8  UNL     1      18.913   2.261  50.795  1.00  0.00     0.315 HD
ENDROOT
BRANCH  12  18
HETATM   18  C12 UNL     1      26.474  -0.733  53.181  1.00  0.00    -0.044 A 
HETATM   19  C13 UNL     1      27.127  -1.899  52.805  1.00  0.00     0.011 A 
HETATM   20  C14 UNL     1      28.508  -1.945  52.984  1.00  0.00     0.044 A 
HETATM   21  C15 UNL     1      29.196  -0.881  53.510  1.00  0.00     0.138 A 
HETATM   22  F1  UNL     1      30.549  -0.954  53.673  1.00  0.00    -0.204 F 
HETATM   23  C16 UNL     1      28.543   0.286  53.886  1.00  0.00     0.073 A 
HETATM   24 CL1  UNL     1      29.430   1.637  54.555  1.00  0.00    -0.081 Cl
HETATM   25  C17 UNL     1      27.176   0.331  53.708  1.00  0.00     0.035 A 
ENDBRANCH  12  18
BRANCH   1  26
HETATM   26  O1  UNL     1      18.662  -1.494  53.473  1.00  0.00    -0.356 OA
HETATM   27  C1  UNL     1      17.398  -1.206  52.859  1.00  0.00     0.210 C 
ENDBRANCH   1  26
TORSDOF 2
ENDMDL
MODEL 2
REMARK VINA RESULT:      -8.9      2.744      4.782
REMARK  2 active torsions:
REMARK  status: ('A' for Active; 'I' for Inactive)
REMARK    1  A    between atoms: O1_2  and  C2_3 
REMARK    2  A    between atoms: C11_14  and  C12_15 
ROOT
HETATM    1  C2  UNL     1      22.571   5.625  50.872  1.00  0.00     0.066 C 
HETATM    2  C3  UNL     1      21.925   4.575  51.357  1.00  0.00     0.019 C 
HETATM    3  C4  UNL     1      21.865   3.171  51.778  1.00  0.00     0.068 C 
HETATM    4  C5  UNL     1      20.637   3.033  52.684  1.00  0.00     0.280 C 
HETATM    5  N1  UNL     1      19.430   2.915  51.932  1.00  0.00     0.084 N 
HETATM    6  C6  UNL     1      19.496   1.616  51.277  1.00  0.00     0.272 C 
HETATM    7  C7  UNL     1      20.622   1.496  50.326  1.00  0.00     0.063 C 
HETATM    8  C8  UNL     1      21.867   2.236  50.622  1.00  0.00     0.138 C 
HETATM    9  O2  UNL     1      23.015   1.366  50.656  1.00  0.00    -0.357 OA
HETATM   10  C9  UNL     1      23.712   1.092  51.833  1.00  0.00     0.132 C 
HETATM   11  C10 UNL     1      24.803   1.366  52.479  1.00  0.00     0.012 C 
HETATM   12  C11 UNL     1      26.068   2.070  52.572  1.00  0.00     0.083 C 
HETATM   13  C18 UNL     1      26.481   2.743  51.288  1.00  0.00     0.102 C 
HETATM   14  N2  UNL     1      26.182   3.643  50.418  1.00  0.00    -0.276 NA
HETATM   15  C19 UNL     1      25.027   4.464  50.510  1.00  0.00     0.118 C 
HETATM   16  C20 UNL     1      23.989   5.279  50.571  1.00  0.00     0.055 C 
HETATM   17  H8  UNL     1      19.314   3.700  51.256  1.00  0.00     0.315 HD
ENDROOT
BRANCH  12  18
HETATM   18  C12 UNL     1      27.229   1.211  52.986  1.00  0.00    -0.044 A 
HETATM   19  C13 UNL     1      28.351   1.765  53.587  1.00  0.00     0.011 A 
HETATM   20  C14 UNL     1      29.382   0.896  53.939  1.00  0.00     0.044 A 
HETATM   21  C15 UNL     1      29.292  -0.453  53.703  1.00  0.00     0.138 A 
HETATM   22  F1  UNL     1      30.317  -1.280  54.060  1.00  0.00    -0.204 F 
HETATM   23  C16 UNL     1      28.168  -1.007  53.102  1.00  0.00     0.073 A 
HETATM   24 CL1  UNL     1      28.064  -2.727  52.806  1.00  0.00    -0.081 Cl
HETATM   25  C17 UNL     1      27.149  -0.146  52.754  1.00  0.00     0.035 A 
ENDBRANCH  12  18
BRANCH   1  26
HETATM   26  O1  UNL     1      22.493   6.967  50.507  1.00  0.00    -0.356 OA
HETATM   27  C1  UNL     1      23.655   7.749  50.813  1.00  0.00     0.210 C 
ENDBRANCH   1  26
TORSDOF 2
ENDMDL
MODEL 3
REMARK VINA RESULT:      -8.9      1.428      1.657
REMARK  2 active torsions:
REMARK  status: ('A' for Active; 'I' for Inactive)
REMARK    1  A    between atoms: O1_2  and  C2_3 
REMARK    2  A    between atoms: C11_14  and  C12_15 
ROOT
HETATM    1  C2  UNL     1      20.153   0.714  51.201  1.00  0.00     0.066 C 
HETATM    2  C3  UNL     1      20.804   1.764  50.720  1.00  0.00     0.019 C 
HETATM    3  C4  UNL     1      21.967   2.656  50.671  1.00  0.00     0.068 C 
HETATM    4  C5  UNL     1      21.899   3.397  49.331  1.00  0.00     0.280 C 
HETATM    5  N1  UNL     1      20.991   4.496  49.375  1.00  0.00     0.084 N 
HETATM    6  C6  UNL     1      21.599   5.480  50.258  1.00  0.00     0.272 C 
HETATM    7  C7  UNL     1      21.773   4.995  51.645  1.00  0.00     0.063 C 
HETATM    8  C8  UNL     1      22.037   3.555  51.853  1.00  0.00     0.138 C 
HETATM    9  O2  UNL     1      23.242   3.333  52.608  1.00  0.00    -0.357 OA
HETATM   10  C9  UNL     1      24.382   2.756  52.047  1.00  0.00     0.132 C 
HETATM   11  C10 UNL     1      25.070   1.658  51.996  1.00  0.00     0.012 C 
HETATM   12  C11 UNL     1      25.266   0.275  52.391  1.00  0.00     0.083 C 
HETATM   13  C18 UNL     1      24.356  -0.168  53.508  1.00  0.00     0.102 C 
HETATM   14  N2  UNL     1      23.136  -0.365  53.867  1.00  0.00    -0.276 NA
HETATM   15  C19 UNL     1      22.025  -0.134  53.014  1.00  0.00     0.118 C 
HETATM   16  C20 UNL     1      20.960   0.027  52.249  1.00  0.00     0.055 C 
HETATM   17  H8  UNL     1      20.042   4.203  49.693  1.00  0.00     0.315 HD
ENDROOT
BRANCH  12  18
HETATM   18  C12 UNL     1      26.663  -0.052  52.835  1.00  0.00    -0.044 A 
HETATM   19  C13 UNL     1      27.183  -1.330  52.680  1.00  0.00     0.011 A 
HETATM   20  C14 UNL     1      28.488  -1.547  53.119  1.00  0.00     0.044 A 
HETATM   21  C15 UNL     1      29.229  -0.539  53.682  1.00  0.00     0.138 A 
HETATM   22  F1  UNL     1      30.505  -0.780  54.102  1.00  0.00    -0.204 F 
HETATM   23  C16 UNL     1      28.709   0.740  53.836  1.00  0.00     0.073 A 
HETATM   24 CL1  UNL     1      29.664   2.018  54.554  1.00  0.00    -0.081 Cl
HETATM   25  C17 UNL     1      27.418   0.954  53.402  1.00  0.00     0.035 A 
ENDBRANCH  12  18
BRANCH   1  26
HETATM   26  O1  UNL     1      18.992  -0.052  51.149  1.00  0.00    -0.356 OA
HETATM   27  C1  UNL     1      17.890   0.559  50.462  1.00  0.00     0.210 C 
ENDBRANCH   1  26
TORSDOF 2
ENDMDL
MODEL 4
REMARK VINA RESULT:      -8.9      4.610      7.066
REMARK  2 active torsions:
REMARK  status: ('A' for Active; 'I' for Inactive)
REMARK    1  A    between atoms: O1_2  and  C2_3 
REMARK    2  A    between atoms: C11_14  and  C12_15 
ROOT
HETATM    1  C2  UNL     1      22.978   0.255  53.319  1.00  0.00     0.066 C 
HETATM    2  C3  UNL     1      24.265   0.424  53.588  1.00  0.00     0.019 C 
HETATM    3  C4  UNL     1      25.601   0.932  53.260  1.00  0.00     0.068 C 
HETATM    4  C5  UNL     1      26.392   0.973  54.572  1.00  0.00     0.280 C 
HETATM    5  N1  UNL     1      26.908  -0.310  54.924  1.00  0.00     0.084 N 
HETATM    6  C6  UNL     1      27.934  -0.610  53.937  1.00  0.00     0.272 C 
HETATM    7  C7  UNL     1      27.410  -0.709  52.557  1.00  0.00     0.063 C 
HETATM    8  C8  UNL     1      26.257   0.140  52.187  1.00  0.00     0.138 C 
HETATM    9  O2  UNL     1      26.538   0.954  51.033  1.00  0.00    -0.357 OA
HETATM   10  C9  UNL     1      26.656   2.343  51.107  1.00  0.00     0.132 C 
HETATM   11  C10 UNL     1      26.036   3.451  50.842  1.00  0.00     0.012 C 
HETATM   12  C11 UNL     1      24.876   4.153  50.326  1.00  0.00     0.083 C 
HETATM   13  C18 UNL     1      23.907   3.261  49.594  1.00  0.00     0.102 C 
HETATM   14  N2  UNL     1      23.105   2.258  49.694  1.00  0.00    -0.276 NA
HETATM   15  C19 UNL     1      22.891   1.548  50.904  1.00  0.00     0.118 C 
HETATM   16  C20 UNL     1      22.625   0.880  52.012  1.00  0.00     0.055 C 
HETATM   17  H8  UNL     1      26.158  -1.034  54.958  1.00  0.00     0.315 HD
ENDROOT
BRANCH  12  18
HETATM   18  C12 UNL     1      25.198   5.279  49.386  1.00  0.00    -0.044 A 
HETATM   19  C13 UNL     1      24.194   6.069  48.843  1.00  0.00     0.011 A 
HETATM   20  C14 UNL     1      24.581   7.092  47.980  1.00  0.00     0.044 A 
HETATM   21  C15 UNL     1      25.902   7.312  47.680  1.00  0.00     0.138 A 
HETATM   22  F1  UNL     1      26.252   8.323  46.832  1.00  0.00    -0.204 F 
HETATM   23  C16 UNL     1      26.907   6.523  48.223  1.00  0.00     0.073 A 
HETATM   24 CL1  UNL     1      28.587   6.812  47.833  1.00  0.00    -0.081 Cl
HETATM   25  C17 UNL     1      26.523   5.510  49.077  1.00  0.00     0.035 A 
ENDBRANCH  12  18
BRANCH   1  26
HETATM   26  O1  UNL     1      21.766  -0.278  53.747  1.00  0.00    -0.356 OA
HETATM   27  C1  UNL     1      21.873  -1.446  54.573  1.00  0.00     0.210 C 
ENDBRANCH   1  26
TORSDOF 2
ENDMDL
MODEL 5
REMARK VINA RESULT:      -8.6      4.634      7.523
REMARK  2 active torsions:
REMARK  status: ('A' for Active; 'I' for Inactive)
REMARK    1  A    between atoms: O1_2  and  C2_3 
REMARK    2  A    between atoms: C11_14  and  C12_15 
ROOT
HETATM    1  C2  UNL     1      25.637   1.942  53.736  1.00  0.00     0.066 C 
HETATM    2  C3  UNL     1      24.994   2.783  52.939  1.00  0.00     0.019 C 
HETATM    3  C4  UNL     1      23.896   3.121  52.027  1.00  0.00     0.068 C 
HETATM    4  C5  UNL     1      23.820   4.651  51.974  1.00  0.00     0.280 C 
HETATM    5  N1  UNL     1      24.795   5.203  51.090  1.00  0.00     0.084 N 
HETATM    6  C6  UNL     1      24.383   4.812  49.750  1.00  0.00     0.272 C 
HETATM    7  C7  UNL     1      24.377   3.347  49.542  1.00  0.00     0.063 C 
HETATM    8  C8  UNL     1      24.052   2.480  50.695  1.00  0.00     0.138 C 
HETATM    9  O2  UNL     1      22.954   1.594  50.409  1.00  0.00    -0.357 OA
HETATM   10  C9  UNL     1      21.711   1.716  51.032  1.00  0.00     0.132 C 
HETATM   11  C10 UNL     1      20.954   1.193  51.946  1.00  0.00     0.012 C 
HETATM   12  C11 UNL     1      20.726   0.193  52.972  1.00  0.00     0.083 C 
HETATM   13  C18 UNL     1      21.755  -0.908  52.981  1.00  0.00     0.102 C 
HETATM   14  N2  UNL     1      22.999  -1.198  53.144  1.00  0.00    -0.276 NA
HETATM   15  C19 UNL     1      23.990  -0.230  53.453  1.00  0.00     0.118 C 
HETATM   16  C20 UNL     1      24.944   0.623  53.781  1.00  0.00     0.055 C 
HETATM   17  H8  UNL     1      25.759   4.880  51.324  1.00  0.00     0.315 HD
ENDROOT
BRANCH  12  18
HETATM   18  C12 UNL     1      19.388  -0.485  52.895  1.00  0.00    -0.044 A 
HETATM   19  C13 UNL     1      19.074  -1.546  53.732  1.00  0.00     0.011 A 
HETATM   20  C14 UNL     1      17.810  -2.117  53.594  1.00  0.00     0.044 A 
HETATM   21  C15 UNL     1      16.912  -1.649  52.668  1.00  0.00     0.138 A 
HETATM   22  F1  UNL     1      15.681  -2.227  52.556  1.00  0.00    -0.204 F 
HETATM   23  C16 UNL     1      17.226  -0.585  51.831  1.00  0.00     0.073 A 
HETATM   24 CL1  UNL     1      16.073   0.004  50.655  1.00  0.00    -0.081 Cl
HETATM   25  C17 UNL     1      18.477  -0.021  51.969  1.00  0.00     0.035 A 
ENDBRANCH  12  18
BRANCH   1  26
HETATM   26  O1  UNL     1      26.727   1.751  54.581  1.00  0.00    -0.356 OA
HETATM   27  C1  UNL     1      27.528   0.597  54.289  1.00  0.00     0.210 C 
ENDBRANCH   1  26
TORSDOF 2
ENDMDL
MODEL 6
REMARK VINA RESULT:      -8.5      4.540      8.137
REMARK  2 active torsions:
REMARK  status: ('A' for Active; 'I' for Inactive)
REMARK    1  A    between atoms: O1_2  and  C2_3 
REMARK    2  A    between atoms: C11_14  and  C12_15 
ROOT
HETATM    1  C2  UNL     1      26.483   2.785  50.651  1.00  0.00     0.066 C 
HETATM    2  C3  UNL     1      26.654   1.707  51.403  1.00  0.00     0.019 C 
HETATM    3  C4  UNL     1      26.159   0.677  52.322  1.00  0.00     0.068 C 
HETATM    4  C5  UNL     1      27.156  -0.486  52.261  1.00  0.00     0.280 C 
HETATM    5  N1  UNL     1      28.308  -0.243  53.067  1.00  0.00     0.084 N 
HETATM    6  C6  UNL     1      27.844  -0.287  54.446  1.00  0.00     0.272 C 
HETATM    7  C7  UNL     1      26.853   0.764  54.765  1.00  0.00     0.063 C 
HETATM    8  C8  UNL     1      25.936   1.206  53.693  1.00  0.00     0.138 C 
HETATM    9  O2  UNL     1      24.555   1.084  54.082  1.00  0.00    -0.357 OA
HETATM   10  C9  UNL     1      23.690   0.160  53.494  1.00  0.00     0.132 C 
HETATM   11  C10 UNL     1      22.713   0.048  52.649  1.00  0.00     0.012 C 
HETATM   12  C11 UNL     1      21.785   0.649  51.709  1.00  0.00     0.083 C 
HETATM   13  C18 UNL     1      21.776   2.156  51.751  1.00  0.00     0.102 C 
HETATM   14  N2  UNL     1      22.466   3.226  51.568  1.00  0.00    -0.276 NA
HETATM   15  C19 UNL     1      23.824   3.217  51.153  1.00  0.00     0.118 C 
HETATM   16  C20 UNL     1      25.074   3.265  50.730  1.00  0.00     0.055 C 
HETATM   17  H8  UNL     1      28.768   0.661  52.827  1.00  0.00     0.315 HD
ENDROOT
BRANCH  12  18
HETATM   18  C12 UNL     1      20.357   0.217  51.883  1.00  0.00    -0.044 A 
HETATM   19  C13 UNL     1      19.961  -0.520  52.990  1.00  0.00     0.011 A 
HETATM   20  C14 UNL     1      18.617  -0.879  53.073  1.00  0.00     0.044 A 
HETATM   21  C15 UNL     1      17.720  -0.518  52.099  1.00  0.00     0.138 A 
HETATM   22  F1  UNL     1      16.409  -0.882  52.207  1.00  0.00    -0.204 F 
HETATM   23  C16 UNL     1      18.116   0.221  50.991  1.00  0.00     0.073 A 
HETATM   24 CL1  UNL     1      16.964   0.676  49.756  1.00  0.00    -0.081 Cl
HETATM   25  C17 UNL     1      19.447   0.575  50.910  1.00  0.00     0.035 A 
ENDBRANCH  12  18
BRANCH   1  26
HETATM   26  O1  UNL     1      27.078   3.701  49.787  1.00  0.00    -0.356 OA
HETATM   27  C1  UNL     1      26.218   4.756  49.335  1.00  0.00     0.210 C 
ENDBRANCH   1  26
TORSDOF 2
ENDMDL
MODEL 7
REMARK VINA RESULT:      -8.3     10.458     13.448
REMARK  2 active torsions:
REMARK  status: ('A' for Active; 'I' for Inactive)
REMARK    1  A    between atoms: O1_2  and  C2_3 
REMARK    2  A    between atoms: C11_14  and  C12_15 
ROOT
HETATM    1  C2  UNL     1      33.731   8.355  45.581  1.00  0.00     0.066 C 
HETATM    2  C3  UNL     1      33.741   7.031  45.522  1.00  0.00     0.019 C 
HETATM    3  C4  UNL     1      33.268   5.711  45.953  1.00  0.00     0.068 C 
HETATM    4  C5  UNL     1      33.647   4.723  44.844  1.00  0.00     0.280 C 
HETATM    5  N1  UNL     1      35.013   4.321  44.933  1.00  0.00     0.084 N 
HETATM    6  C6  UNL     1      35.111   3.509  46.137  1.00  0.00     0.272 C 
HETATM    7  C7  UNL     1      34.789   4.255  47.374  1.00  0.00     0.063 C 
HETATM    8  C8  UNL     1      33.785   5.337  47.295  1.00  0.00     0.138 C 
HETATM    9  O2  UNL     1      32.711   5.145  48.235  1.00  0.00    -0.357 OA
HETATM   10  C9  UNL     1      31.409   4.845  47.833  1.00  0.00     0.132 C 
HETATM   11  C10 UNL     1      30.226   5.357  47.687  1.00  0.00     0.012 C 
HETATM   12  C11 UNL     1      29.323   6.488  47.782  1.00  0.00     0.083 C 
HETATM   13  C18 UNL     1      29.905   7.664  48.523  1.00  0.00     0.102 C 
HETATM   14  N2  UNL     1      30.831   8.558  48.535  1.00  0.00    -0.276 NA
HETATM   15  C19 UNL     1      31.826   8.663  47.528  1.00  0.00     0.118 C 
HETATM   16  C20 UNL     1      32.748   8.830  46.597  1.00  0.00     0.055 C 
HETATM   17  H8  UNL     1      35.659   5.139  44.946  1.00  0.00     0.315 HD
ENDROOT
BRANCH  12  18
HETATM   18  C12 UNL     1      28.011   6.182  48.447  1.00  0.00    -0.044 A 
HETATM   19  C13 UNL     1      27.587   4.873  48.626  1.00  0.00     0.011 A 
HETATM   20  C14 UNL     1      26.358   4.679  49.253  1.00  0.00     0.044 A 
HETATM   21  C15 UNL     1      25.597   5.739  49.677  1.00  0.00     0.138 A 
HETATM   22  F1  UNL     1      24.397   5.518  50.290  1.00  0.00    -0.204 F 
HETATM   23  C16 UNL     1      26.022   7.049  49.500  1.00  0.00     0.073 A 
HETATM   24 CL1  UNL     1      25.044   8.393  50.045  1.00  0.00    -0.081 Cl
HETATM   25  C17 UNL     1      27.239   7.240  48.879  1.00  0.00     0.035 A 
ENDBRANCH  12  18
BRANCH   1  26
HETATM   26  O1  UNL     1      34.265   9.541  45.085  1.00  0.00    -0.356 OA
HETATM   27  C1  UNL     1      35.375   9.379  44.191  1.00  0.00     0.210 C 
ENDBRANCH   1  26
TORSDOF 2
ENDMDL
MODEL 8
REMARK VINA RESULT:      -8.1      1.860      2.409
REMARK  2 active torsions:
REMARK  status: ('A' for Active; 'I' for Inactive)
REMARK    1  A    between atoms: O1_2  and  C2_3 
REMARK    2  A    between atoms: C11_14  and  C12_15 
ROOT
HETATM    1  C2  UNL     1      18.071  -0.129  51.365  1.00  0.00     0.066 C 
HETATM    2  C3  UNL     1      18.660   0.838  50.675  1.00  0.00     0.019 C 
HETATM    3  C4  UNL     1      19.731   1.819  50.474  1.00  0.00     0.068 C 
HETATM    4  C5  UNL     1      19.714   2.193  48.987  1.00  0.00     0.280 C 
HETATM    5  N1  UNL     1      18.703   3.157  48.692  1.00  0.00     0.084 N 
HETATM    6  C6  UNL     1      19.133   4.391  49.332  1.00  0.00     0.272 C 
HETATM    7  C7  UNL     1      19.226   4.287  50.805  1.00  0.00     0.063 C 
HETATM    8  C8  UNL     1      19.608   2.984  51.389  1.00  0.00     0.138 C 
HETATM    9  O2  UNL     1      20.756   3.095  52.251  1.00  0.00    -0.357 OA
HETATM   10  C9  UNL     1      21.992   2.534  51.927  1.00  0.00     0.132 C 
HETATM   11  C10 UNL     1      22.784   1.543  52.202  1.00  0.00     0.012 C 
HETATM   12  C11 UNL     1      23.075   0.333  52.948  1.00  0.00     0.083 C 
HETATM   13  C18 UNL     1      22.115   0.077  54.081  1.00  0.00     0.102 C 
HETATM   14  N2  UNL     1      20.892  -0.165  54.401  1.00  0.00    -0.276 NA
HETATM   15  C19 UNL     1      19.845  -0.281  53.449  1.00  0.00     0.118 C 
HETATM   16  C20 UNL     1      18.843  -0.438  52.602  1.00  0.00     0.055 C 
HETATM   17  H8  UNL     1      17.762   2.844  49.014  1.00  0.00     0.315 HD
ENDROOT
BRANCH  12  18
HETATM   18  C12 UNL     1      24.451   0.289  53.548  1.00  0.00    -0.044 A 
HETATM   19  C13 UNL     1      24.768  -0.619  54.549  1.00  0.00     0.011 A 
HETATM   20  C14 UNL     1      26.068  -0.592  55.049  1.00  0.00     0.044 A 
HETATM   21  C15 UNL     1      26.999   0.295  54.572  1.00  0.00     0.138 A 
HETATM   22  F1  UNL     1      28.266   0.298  55.080  1.00  0.00    -0.204 F 
HETATM   23  C16 UNL     1      26.683   1.204  53.569  1.00  0.00     0.073 A 
HETATM   24 CL1  UNL     1      27.878   2.330  52.968  1.00  0.00    -0.081 Cl
HETATM   25  C17 UNL     1      25.396   1.177  53.075  1.00  0.00     0.035 A 
ENDBRANCH  12  18
BRANCH   1  26
HETATM   26  O1  UNL     1      16.999  -1.013  51.437  1.00  0.00    -0.356 OA
HETATM   27  C1  UNL     1      15.934  -0.754  50.512  1.00  0.00     0.210 C 
ENDBRANCH   1  26
TORSDOF 2
ENDMDL
MODEL 9
REMARK VINA RESULT:      -7.9      4.507      7.430
REMARK  2 active torsions:
REMARK  status: ('A' for Active; 'I' for Inactive)
REMARK    1  A    between atoms: O1_2  and  C2_3 
REMARK    2  A    between atoms: C11_14  and  C12_15 
ROOT
HETATM    1  C2  UNL     1      25.346   0.591  53.798  1.00  0.00     0.066 C 
HETATM    2  C3  UNL     1      24.184   0.000  53.558  1.00  0.00     0.019 C 
HETATM    3  C4  UNL     1      22.865  -0.052  52.921  1.00  0.00     0.068 C 
HETATM    4  C5  UNL     1      22.419  -1.519  52.949  1.00  0.00     0.280 C 
HETATM    5  N1  UNL     1      21.880  -1.888  54.217  1.00  0.00     0.084 N 
HETATM    6  C6  UNL     1      20.623  -1.165  54.340  1.00  0.00     0.272 C 
HETATM    7  C7  UNL     1      20.789   0.305  54.343  1.00  0.00     0.063 C 
HETATM    8  C8  UNL     1      21.897   0.883  53.552  1.00  0.00     0.138 C 
HETATM    9  O2  UNL     1      21.429   1.866  52.609  1.00  0.00    -0.357 OA
HETATM   10  C9  UNL     1      21.468   1.658  51.230  1.00  0.00     0.132 C 
HETATM   11  C10 UNL     1      22.112   1.982  50.151  1.00  0.00     0.012 C 
HETATM   12  C11 UNL     1      23.177   2.714  49.492  1.00  0.00     0.083 C 
HETATM   13  C18 UNL     1      23.851   3.729  50.379  1.00  0.00     0.102 C 
HETATM   14  N2  UNL     1      24.551   3.908  51.445  1.00  0.00    -0.276 NA
HETATM   15  C19 UNL     1      24.978   2.846  52.285  1.00  0.00     0.118 C 
HETATM   16  C20 UNL     1      25.435   1.893  53.077  1.00  0.00     0.055 C 
HETATM   17  H8  UNL     1      22.541  -1.679  54.996  1.00  0.00     0.315 HD
ENDROOT
BRANCH  12  18
HETATM   18  C12 UNL     1      22.751   3.456  48.258  1.00  0.00    -0.044 A 
HETATM   19  C13 UNL     1      22.122   2.800  47.209  1.00  0.00     0.011 A 
HETATM   20  C14 UNL     1      21.759   3.564  46.101  1.00  0.00     0.044 A 
HETATM   21  C15 UNL     1      22.012   4.912  46.050  1.00  0.00     0.138 A 
HETATM   22  F1  UNL     1      21.645   5.636  44.952  1.00  0.00    -0.204 F 
HETATM   23  C16 UNL     1      22.641   5.569  47.100  1.00  0.00     0.073 A 
HETATM   24 CL1  UNL     1      22.959   7.287  47.023  1.00  0.00    -0.081 Cl
HETATM   25  C17 UNL     1      23.000   4.811  48.195  1.00  0.00     0.035 A 
ENDBRANCH  12  18
BRANCH   1  26
HETATM   26  O1  UNL     1      26.568   0.518  54.461  1.00  0.00    -0.356 OA
HETATM   27  C1  UNL     1      27.642  -0.047  53.697  1.00  0.00     0.210 C 
ENDBRANCH   1  26
TORSDOF 2
ENDMDL
