MODEL 1
REMARK VINA RESULT:      -7.5      0.000      0.000
REMARK  3 active torsions:
REMARK  status: ('A' for Active; 'I' for Inactive)
REMARK    1  A    between atoms: C2_2  and  N3_18 
REMARK    2  A    between atoms: C3_3  and  C4_4 
REMARK    3  A    between atoms: N1_7  and  C7_8 
REMARK       I    between atoms: N3_18  and  C14_19 
REMARK       I    between atoms: C14_19  and  N4_20 
ROOT
HETATM    1  C4  UNL     1      22.410   0.691  52.551  1.00  0.00     0.135 C 
HETATM    2  C5  UNL     1      22.732  -0.128  53.786  1.00  0.00     0.052 C 
HETATM    3  C6  UNL     1      24.179  -0.565  53.662  1.00  0.00     0.132 C 
HETATM    4  N1  UNL     1      24.979   0.616  53.407  1.00  0.00    -0.342 N 
HETATM    5  C13 UNL     1      24.380   1.878  53.147  1.00  0.00     0.204 C 
HETATM    6  N2  UNL     1      23.149   1.948  52.736  1.00  0.00    -0.275 NA
ENDROOT
BRANCH   1   7
HETATM    7  C3  UNL     1      20.977   0.971  52.420  1.00  0.00     0.025 C 
HETATM    8  C2  UNL     1      20.389   1.038  51.256  1.00  0.00     0.008 C 
HETATM    9  C1  UNL     1      21.144   0.834  49.992  1.00  0.00     0.068 C 
BRANCH   8  10
HETATM   10  N3  UNL     1      18.999   1.311  51.124  1.00  0.00    -0.314 N 
HETATM   11  C14 UNL     1      18.180   2.438  51.474  1.00  0.00     0.318 C 
HETATM   12  N4  UNL     1      16.786   2.300  51.159  1.00  0.00    -0.352 N 
HETATM   13  O1  UNL     1      18.595   3.493  52.018  1.00  0.00    -0.247 OA
HETATM   14  H15 UNL     1      16.076   2.360  50.371  1.00  0.00     0.160 HD
HETATM   15  H16 UNL     1      16.096   2.040  51.924  1.00  0.00     0.160 HD
HETATM   16  H14 UNL     1      18.593   0.471  50.678  1.00  0.00     0.170 HD
ENDBRANCH   8  10
ENDBRANCH   1   7
BRANCH   4  17
HETATM   17  C7  UNL     1      26.388   0.454  53.427  1.00  0.00     0.036 A 
HETATM   18  C8  UNL     1      27.189   1.567  53.569  1.00  0.00     0.033 A 
HETATM   19  C9  UNL     1      28.577   1.447  53.592  1.00  0.00     0.046 A 
HETATM   20  C10 UNL     1      29.186   0.215  53.475  1.00  0.00     0.138 A 
HETATM   21  F1  UNL     1      30.536   0.056  53.493  1.00  0.00    -0.204 F 
HETATM   22  C11 UNL     1      28.403  -0.912  53.332  1.00  0.00     0.074 A 
HETATM   23 CL1  UNL     1      29.169  -2.489  53.181  1.00  0.00    -0.081 Cl
HETATM   24  C12 UNL     1      27.038  -0.757  53.313  1.00  0.00     0.056 A 
ENDBRANCH   4  17
TORSDOF 3
ENDMDL
MODEL 2
REMARK VINA RESULT:      -7.3      5.322      8.649
REMARK  3 active torsions:
REMARK  status: ('A' for Active; 'I' for Inactive)
REMARK    1  A    between atoms: C2_2  and  N3_18 
REMARK    2  A    between atoms: C3_3  and  C4_4 
REMARK    3  A    between atoms: N1_7  and  C7_8 
REMARK       I    between atoms: N3_18  and  C14_19 
REMARK       I    between atoms: C14_19  and  N4_20 
ROOT
HETATM    1  C4  UNL     1      24.095   0.728  52.322  1.00  0.00     0.135 C 
HETATM    2  C5  UNL     1      23.301   1.770  51.559  1.00  0.00     0.052 C 
HETATM    3  C6  UNL     1      21.978   1.131  51.182  1.00  0.00     0.132 C 
HETATM    4  N1  UNL     1      21.390   0.584  52.389  1.00  0.00    -0.342 N 
HETATM    5  C13 UNL     1      22.108   0.544  53.614  1.00  0.00     0.204 C 
HETATM    6  N2  UNL     1      23.407   0.612  53.616  1.00  0.00    -0.275 NA
ENDROOT
BRANCH   1   7
HETATM    7  C3  UNL     1      25.489   1.128  52.534  1.00  0.00     0.025 C 
HETATM    8  C2  UNL     1      26.452   0.251  52.633  1.00  0.00     0.008 C 
HETATM    9  C1  UNL     1      26.186  -1.208  52.535  1.00  0.00     0.068 C 
BRANCH   8  10
HETATM   10  N3  UNL     1      27.807   0.634  52.840  1.00  0.00    -0.314 N 
HETATM   11  C14 UNL     1      28.738   0.416  53.912  1.00  0.00     0.318 C 
HETATM   12  N4  UNL     1      30.039   0.989  53.715  1.00  0.00    -0.352 N 
HETATM   13  O1  UNL     1      28.489  -0.218  54.968  1.00  0.00    -0.247 OA
HETATM   14  H15 UNL     1      30.971   0.848  53.224  1.00  0.00     0.160 HD
HETATM   15  H16 UNL     1      30.289   1.907  54.187  1.00  0.00     0.160 HD
HETATM   16  H14 UNL     1      28.076   1.167  51.996  1.00  0.00     0.170 HD
ENDBRANCH   8  10
ENDBRANCH   1   7
BRANCH   4  17
HETATM   17  C7  UNL     1      20.065   0.089  52.289  1.00  0.00     0.036 A 
HETATM   18  C8  UNL     1      19.546  -0.652  53.330  1.00  0.00     0.033 A 
HETATM   19  C9  UNL     1      18.249  -1.157  53.269  1.00  0.00     0.046 A 
HETATM   20  C10 UNL     1      17.450  -0.928  52.168  1.00  0.00     0.138 A 
HETATM   21  F1  UNL     1      16.179  -1.403  52.069  1.00  0.00    -0.204 F 
HETATM   22  C11 UNL     1      17.948  -0.189  51.116  1.00  0.00     0.074 A 
HETATM   23 CL1  UNL     1      16.938   0.108  49.706  1.00  0.00    -0.081 Cl
HETATM   24  C12 UNL     1      19.232   0.292  51.210  1.00  0.00     0.056 A 
ENDBRANCH   4  17
TORSDOF 3
ENDMDL
MODEL 3
REMARK VINA RESULT:      -7.2      1.874      2.121
REMARK  3 active torsions:
REMARK  status: ('A' for Active; 'I' for Inactive)
REMARK    1  A    between atoms: C2_2  and  N3_18 
REMARK    2  A    between atoms: C3_3  and  C4_4 
REMARK    3  A    between atoms: N1_7  and  C7_8 
REMARK       I    between atoms: N3_18  and  C14_19 
REMARK       I    between atoms: C14_19  and  N4_20 
ROOT
HETATM    1  C4  UNL     1      23.623   2.784  51.835  1.00  0.00     0.135 C 
HETATM    2  C5  UNL     1      24.234   3.383  53.087  1.00  0.00     0.052 C 
HETATM    3  C6  UNL     1      25.203   2.357  53.642  1.00  0.00     0.132 C 
HETATM    4  N1  UNL     1      26.100   1.970  52.571  1.00  0.00    -0.342 N 
HETATM    5  C13 UNL     1      25.890   2.398  51.233  1.00  0.00     0.204 C 
HETATM    6  N2  UNL     1      24.713   2.795  50.848  1.00  0.00    -0.275 NA
ENDROOT
BRANCH   1   7
HETATM    7  C3  UNL     1      22.489   3.566  51.332  1.00  0.00     0.025 C 
HETATM    8  C2  UNL     1      21.443   2.999  50.794  1.00  0.00     0.008 C 
HETATM    9  C1  UNL     1      21.344   1.522  50.660  1.00  0.00     0.068 C 
BRANCH   8  10
HETATM   10  N3  UNL     1      20.341   3.753  50.304  1.00  0.00    -0.314 N 
HETATM   11  C14 UNL     1      19.061   4.097  50.857  1.00  0.00     0.318 C 
HETATM   12  N4  UNL     1      18.225   4.896  50.007  1.00  0.00    -0.352 N 
HETATM   13  O1  UNL     1      18.647   3.751  51.993  1.00  0.00    -0.247 OA
HETATM   14  H15 UNL     1      18.051   5.887  49.664  1.00  0.00     0.160 HD
HETATM   15  H16 UNL     1      17.442   4.438  49.454  1.00  0.00     0.160 HD
HETATM   16  H14 UNL     1      20.621   4.070  49.360  1.00  0.00     0.170 HD
ENDBRANCH   8  10
ENDBRANCH   1   7
BRANCH   4  17
HETATM   17  C7  UNL     1      27.197   1.142  52.922  1.00  0.00     0.036 A 
HETATM   18  C8  UNL     1      28.327   1.719  53.461  1.00  0.00     0.033 A 
HETATM   19  C9  UNL     1      29.425   0.939  53.817  1.00  0.00     0.046 A 
HETATM   20  C10 UNL     1      29.411  -0.429  53.641  1.00  0.00     0.138 A 
HETATM   21  F1  UNL     1      30.462  -1.226  53.976  1.00  0.00    -0.204 F 
HETATM   22  C11 UNL     1      28.291  -1.027  53.104  1.00  0.00     0.074 A 
HETATM   23 CL1  UNL     1      28.262  -2.771  52.875  1.00  0.00    -0.081 Cl
HETATM   24  C12 UNL     1      27.226  -0.227  52.764  1.00  0.00     0.056 A 
ENDBRANCH   4  17
TORSDOF 3
ENDMDL
MODEL 4
REMARK VINA RESULT:      -7.2      5.813      8.321
REMARK  3 active torsions:
REMARK  status: ('A' for Active; 'I' for Inactive)
REMARK    1  A    between atoms: C2_2  and  N3_18 
REMARK    2  A    between atoms: C3_3  and  C4_4 
REMARK    3  A    between atoms: N1_7  and  C7_8 
REMARK       I    between atoms: N3_18  and  C14_19 
REMARK       I    between atoms: C14_19  and  N4_20 
ROOT
HETATM    1  C4  UNL     1      26.238   1.857  51.773  1.00  0.00     0.135 C 
HETATM    2  C5  UNL     1      24.754   1.700  51.505  1.00  0.00     0.052 C 
HETATM    3  C6  UNL     1      24.140   3.084  51.585  1.00  0.00     0.132 C 
HETATM    4  N1  UNL     1      24.896   3.957  50.708  1.00  0.00    -0.342 N 
HETATM    5  C13 UNL     1      26.097   3.524  50.085  1.00  0.00     0.204 C 
HETATM    6  N2  UNL     1      26.765   2.520  50.570  1.00  0.00    -0.275 NA
ENDROOT
BRANCH   1   7
HETATM    7  C3  UNL     1      26.914   0.572  51.969  1.00  0.00     0.025 C 
HETATM    8  C2  UNL     1      27.202   0.116  53.159  1.00  0.00     0.008 C 
HETATM    9  C1  UNL     1      26.857   0.879  54.386  1.00  0.00     0.068 C 
BRANCH   8  10
HETATM   10  N3  UNL     1      27.858  -1.131  53.353  1.00  0.00    -0.314 N 
HETATM   11  C14 UNL     1      27.684  -2.436  52.777  1.00  0.00     0.318 C 
HETATM   12  N4  UNL     1      28.582  -3.443  53.267  1.00  0.00    -0.352 N 
HETATM   13  O1  UNL     1      26.827  -2.734  51.907  1.00  0.00    -0.247 OA
HETATM   14  H15 UNL     1      29.571  -3.823  53.182  1.00  0.00     0.160 HD
HETATM   15  H16 UNL     1      28.249  -4.136  54.000  1.00  0.00     0.160 HD
HETATM   16  H14 UNL     1      28.585  -0.952  54.067  1.00  0.00     0.170 HD
ENDBRANCH   8  10
ENDBRANCH   1   7
BRANCH   4  17
HETATM   17  C7  UNL     1      24.382   5.262  50.503  1.00  0.00     0.036 A 
HETATM   18  C8  UNL     1      23.017   5.440  50.425  1.00  0.00     0.033 A 
HETATM   19  C9  UNL     1      22.474   6.708  50.223  1.00  0.00     0.046 A 
HETATM   20  C10 UNL     1      23.286   7.816  50.098  1.00  0.00     0.138 A 
HETATM   21  F1  UNL     1      22.795   9.069  49.901  1.00  0.00    -0.204 F 
HETATM   22  C11 UNL     1      24.654   7.661  50.174  1.00  0.00     0.074 A 
HETATM   23 CL1  UNL     1      25.699   9.067  50.015  1.00  0.00    -0.081 Cl
HETATM   24  C12 UNL     1      25.155   6.397  50.373  1.00  0.00     0.056 A 
ENDBRANCH   4  17
TORSDOF 3
ENDMDL
MODEL 5
REMARK VINA RESULT:      -7.1      5.091      8.465
REMARK  3 active torsions:
REMARK  status: ('A' for Active; 'I' for Inactive)
REMARK    1  A    between atoms: C2_2  and  N3_18 
REMARK    2  A    between atoms: C3_3  and  C4_4 
REMARK    3  A    between atoms: N1_7  and  C7_8 
REMARK       I    between atoms: N3_18  and  C14_19 
REMARK       I    between atoms: C14_19  and  N4_20 
ROOT
HETATM    1  C4  UNL     1      24.117   1.726  52.767  1.00  0.00     0.135 C 
HETATM    2  C5  UNL     1      23.181   2.920  52.751  1.00  0.00     0.052 C 
HETATM    3  C6  UNL     1      21.988   2.537  51.898  1.00  0.00     0.132 C 
HETATM    4  N1  UNL     1      21.470   1.279  52.399  1.00  0.00    -0.342 N 
HETATM    5  C13 UNL     1      22.158   0.535  53.394  1.00  0.00     0.204 C 
HETATM    6  N2  UNL     1      23.428   0.726  53.596  1.00  0.00    -0.275 NA
ENDROOT
BRANCH   1   7
HETATM    7  C3  UNL     1      25.423   2.043  53.351  1.00  0.00     0.025 C 
HETATM    8  C2  UNL     1      26.517   2.047  52.638  1.00  0.00     0.008 C 
HETATM    9  C1  UNL     1      26.497   1.730  51.185  1.00  0.00     0.068 C 
BRANCH   8  10
HETATM   10  N3  UNL     1      27.787   2.352  53.200  1.00  0.00    -0.314 N 
HETATM   11  C14 UNL     1      28.590   1.726  54.214  1.00  0.00     0.318 C 
HETATM   12  N4  UNL     1      29.841   2.375  54.488  1.00  0.00    -0.352 N 
HETATM   13  O1  UNL     1      28.274   0.688  54.849  1.00  0.00    -0.247 OA
HETATM   14  H15 UNL     1      30.838   2.495  54.140  1.00  0.00     0.160 HD
HETATM   15  H16 UNL     1      29.933   3.007  55.337  1.00  0.00     0.160 HD
HETATM   16  H14 UNL     1      28.107   3.207  52.715  1.00  0.00     0.170 HD
ENDBRANCH   8  10
ENDBRANCH   1   7
BRANCH   4  17
HETATM   17  C7  UNL     1      20.245   0.825  51.848  1.00  0.00     0.036 A 
HETATM   18  C8  UNL     1      19.861   1.278  50.603  1.00  0.00     0.033 A 
HETATM   19  C9  UNL     1      18.664   0.856  50.028  1.00  0.00     0.046 A 
HETATM   20  C10 UNL     1      17.832  -0.026  50.688  1.00  0.00     0.138 A 
HETATM   21  F1  UNL     1      16.657  -0.462  50.162  1.00  0.00    -0.204 F 
HETATM   22  C11 UNL     1      18.196  -0.491  51.934  1.00  0.00     0.074 A 
HETATM   23 CL1  UNL     1      17.143  -1.615  52.784  1.00  0.00    -0.081 Cl
HETATM   24  C12 UNL     1      19.383  -0.053  52.470  1.00  0.00     0.056 A 
ENDBRANCH   4  17
TORSDOF 3
ENDMDL
MODEL 6
REMARK VINA RESULT:      -6.9      5.799      7.350
REMARK  3 active torsions:
REMARK  status: ('A' for Active; 'I' for Inactive)
REMARK    1  A    between atoms: C2_2  and  N3_18 
REMARK    2  A    between atoms: C3_3  and  C4_4 
REMARK    3  A    between atoms: N1_7  and  C7_8 
REMARK       I    between atoms: N3_18  and  C14_19 
REMARK       I    between atoms: C14_19  and  N4_20 
ROOT
HETATM    1  C4  UNL     1      25.659   4.333  50.038  1.00  0.00     0.135 C 
HETATM    2  C5  UNL     1      26.547   3.105  50.089  1.00  0.00     0.052 C 
HETATM    3  C6  UNL     1      26.142   2.315  51.318  1.00  0.00     0.132 C 
HETATM    4  N1  UNL     1      24.708   2.109  51.260  1.00  0.00    -0.342 N 
HETATM    5  C13 UNL     1      23.904   2.748  50.278  1.00  0.00     0.204 C 
HETATM    6  N2  UNL     1      24.332   3.816  49.672  1.00  0.00    -0.275 NA
ENDROOT
BRANCH   1   7
HETATM    7  C3  UNL     1      26.104   5.309  49.039  1.00  0.00     0.025 C 
HETATM    8  C2  UNL     1      25.996   6.596  49.235  1.00  0.00     0.008 C 
HETATM    9  C1  UNL     1      25.413   7.145  50.487  1.00  0.00     0.068 C 
BRANCH   8  10
HETATM   10  N3  UNL     1      26.426   7.547  48.268  1.00  0.00    -0.314 N 
HETATM   11  C14 UNL     1      27.528   8.469  48.217  1.00  0.00     0.318 C 
HETATM   12  N4  UNL     1      27.598   9.268  47.027  1.00  0.00    -0.352 N 
HETATM   13  O1  UNL     1      28.395   8.610  49.116  1.00  0.00    -0.247 OA
HETATM   14  H15 UNL     1      27.895   9.261  46.007  1.00  0.00     0.160 HD
HETATM   15  H16 UNL     1      27.249  10.272  47.044  1.00  0.00     0.160 HD
HETATM   16  H14 UNL     1      25.746   7.481  47.493  1.00  0.00     0.170 HD
ENDBRANCH   8  10
ENDBRANCH   1   7
BRANCH   4  17
HETATM   17  C7  UNL     1      24.145   1.243  52.231  1.00  0.00     0.036 A 
HETATM   18  C8  UNL     1      24.948   0.296  52.831  1.00  0.00     0.033 A 
HETATM   19  C9  UNL     1      24.431  -0.574  53.789  1.00  0.00     0.046 A 
HETATM   20  C10 UNL     1      23.105  -0.510  54.163  1.00  0.00     0.138 A 
HETATM   21  F1  UNL     1      22.563  -1.340  55.094  1.00  0.00    -0.204 F 
HETATM   22  C11 UNL     1      22.284   0.429  53.577  1.00  0.00     0.074 A 
HETATM   23 CL1  UNL     1      20.591   0.519  54.046  1.00  0.00    -0.081 Cl
HETATM   24  C12 UNL     1      22.827   1.271  52.635  1.00  0.00     0.056 A 
ENDBRANCH   4  17
TORSDOF 3
ENDMDL
MODEL 7
REMARK VINA RESULT:      -6.7      5.311      6.258
REMARK  3 active torsions:
REMARK  status: ('A' for Active; 'I' for Inactive)
REMARK    1  A    between atoms: C2_2  and  N3_18 
REMARK    2  A    between atoms: C3_3  and  C4_4 
REMARK    3  A    between atoms: N1_7  and  C7_8 
REMARK       I    between atoms: N3_18  and  C14_19 
REMARK       I    between atoms: C14_19  and  N4_20 
ROOT
HETATM    1  C4  UNL     1      23.226   2.440  51.128  1.00  0.00     0.135 C 
HETATM    2  C5  UNL     1      22.822   3.858  51.485  1.00  0.00     0.052 C 
HETATM    3  C6  UNL     1      23.981   4.759  51.105  1.00  0.00     0.132 C 
HETATM    4  N1  UNL     1      24.323   4.481  49.724  1.00  0.00    -0.342 N 
HETATM    5  C13 UNL     1      23.735   3.400  49.015  1.00  0.00     0.204 C 
HETATM    6  N2  UNL     1      23.199   2.406  49.659  1.00  0.00    -0.275 NA
ENDROOT
BRANCH   1   7
HETATM    7  C3  UNL     1      22.301   1.439  51.667  1.00  0.00     0.025 C 
HETATM    8  C2  UNL     1      22.699   0.494  52.476  1.00  0.00     0.008 C 
HETATM    9  C1  UNL     1      24.120   0.382  52.898  1.00  0.00     0.068 C 
BRANCH   8  10
HETATM   10  N3  UNL     1      21.805  -0.481  52.999  1.00  0.00    -0.314 N 
HETATM   11  C14 UNL     1      20.991  -0.535  54.182  1.00  0.00     0.318 C 
HETATM   12  N4  UNL     1      20.217  -1.733  54.335  1.00  0.00    -0.352 N 
HETATM   13  O1  UNL     1      20.921   0.368  55.054  1.00  0.00    -0.247 OA
HETATM   14  H15 UNL     1      19.330  -2.227  54.017  1.00  0.00     0.160 HD
HETATM   15  H16 UNL     1      20.554  -2.500  54.989  1.00  0.00     0.160 HD
HETATM   16  H14 UNL     1      21.817  -1.260  52.320  1.00  0.00     0.170 HD
ENDBRANCH   8  10
ENDBRANCH   1   7
BRANCH   4  17
HETATM   17  C7  UNL     1      25.274   5.338  49.115  1.00  0.00     0.036 A 
HETATM   18  C8  UNL     1      24.858   6.553  48.613  1.00  0.00     0.033 A 
HETATM   19  C9  UNL     1      25.763   7.422  48.006  1.00  0.00     0.046 A 
HETATM   20  C10 UNL     1      27.097   7.091  47.893  1.00  0.00     0.138 A 
HETATM   21  F1  UNL     1      28.012   7.911  47.308  1.00  0.00    -0.204 F 
HETATM   22  C11 UNL     1      27.536   5.882  48.388  1.00  0.00     0.074 A 
HETATM   23 CL1  UNL     1      29.235   5.449  48.248  1.00  0.00    -0.081 Cl
HETATM   24  C12 UNL     1      26.616   5.049  48.979  1.00  0.00     0.056 A 
ENDBRANCH   4  17
TORSDOF 3
ENDMDL
MODEL 8
REMARK VINA RESULT:      -6.7      5.370      6.119
REMARK  3 active torsions:
REMARK  status: ('A' for Active; 'I' for Inactive)
REMARK    1  A    between atoms: C2_2  and  N3_18 
REMARK    2  A    between atoms: C3_3  and  C4_4 
REMARK    3  A    between atoms: N1_7  and  C7_8 
REMARK       I    between atoms: N3_18  and  C14_19 
REMARK       I    between atoms: C14_19  and  N4_20 
ROOT
HETATM    1  C4  UNL     1      23.807   2.612  51.165  1.00  0.00     0.135 C 
HETATM    2  C5  UNL     1      23.493   2.707  49.685  1.00  0.00     0.052 C 
HETATM    3  C6  UNL     1      24.160   3.967  49.169  1.00  0.00     0.132 C 
HETATM    4  N1  UNL     1      25.554   3.925  49.563  1.00  0.00    -0.342 N 
HETATM    5  C13 UNL     1      26.049   2.922  50.440  1.00  0.00     0.204 C 
HETATM    6  N2  UNL     1      25.236   2.274  51.221  1.00  0.00    -0.275 NA
ENDROOT
BRANCH   1   7
HETATM    7  C3  UNL     1      23.023   1.575  51.842  1.00  0.00     0.025 C 
HETATM    8  C2  UNL     1      21.877   1.835  52.411  1.00  0.00     0.008 C 
HETATM    9  C1  UNL     1      21.301   3.205  52.405  1.00  0.00     0.068 C 
BRANCH   8  10
HETATM   10  N3  UNL     1      21.114   0.832  53.070  1.00  0.00    -0.314 N 
HETATM   11  C14 UNL     1      21.458  -0.236  53.967  1.00  0.00     0.318 C 
HETATM   12  N4  UNL     1      20.355  -1.039  54.411  1.00  0.00    -0.352 N 
HETATM   13  O1  UNL     1      22.621  -0.498  54.368  1.00  0.00    -0.247 OA
HETATM   14  H15 UNL     1      19.542  -1.075  55.096  1.00  0.00     0.160 HD
HETATM   15  H16 UNL     1      20.173  -1.983  53.959  1.00  0.00     0.160 HD
HETATM   16  H14 UNL     1      20.135   0.993  52.779  1.00  0.00     0.170 HD
ENDBRANCH   8  10
ENDBRANCH   1   7
BRANCH   4  17
HETATM   17  C7  UNL     1      26.401   4.931  49.034  1.00  0.00     0.036 A 
HETATM   18  C8  UNL     1      25.878   6.182  48.780  1.00  0.00     0.033 A 
HETATM   19  C9  UNL     1      26.678   7.197  48.259  1.00  0.00     0.046 A 
HETATM   20  C10 UNL     1      28.013   6.979  47.985  1.00  0.00     0.138 A 
HETATM   21  F1  UNL     1      28.827   7.943  47.478  1.00  0.00    -0.204 F 
HETATM   22  C11 UNL     1      28.557   5.736  48.232  1.00  0.00     0.074 A 
HETATM   23 CL1  UNL     1      30.257   5.446  47.886  1.00  0.00    -0.081 Cl
HETATM   24  C12 UNL     1      27.738   4.758  48.745  1.00  0.00     0.056 A 
ENDBRANCH   4  17
TORSDOF 3
ENDMDL
MODEL 9
REMARK VINA RESULT:      -6.6      3.935      4.475
REMARK  3 active torsions:
REMARK  status: ('A' for Active; 'I' for Inactive)
REMARK    1  A    between atoms: C2_2  and  N3_18 
REMARK    2  A    between atoms: C3_3  and  C4_4 
REMARK    3  A    between atoms: N1_7  and  C7_8 
REMARK       I    between atoms: N3_18  and  C14_19 
REMARK       I    between atoms: C14_19  and  N4_20 
ROOT
HETATM    1  C4  UNL     1      24.452   4.508  50.389  1.00  0.00     0.135 C 
HETATM    2  C5  UNL     1      25.330   3.768  49.399  1.00  0.00     0.052 C 
HETATM    3  C6  UNL     1      26.442   3.112  50.195  1.00  0.00     0.132 C 
HETATM    4  N1  UNL     1      25.830   2.344  51.262  1.00  0.00    -0.342 N 
HETATM    5  C13 UNL     1      24.437   2.424  51.530  1.00  0.00     0.204 C 
HETATM    6  N2  UNL     1      23.747   3.449  51.125  1.00  0.00    -0.275 NA
ENDROOT
BRANCH   1   7
HETATM    7  C3  UNL     1      23.482   5.388  49.732  1.00  0.00     0.025 C 
HETATM    8  C2  UNL     1      23.353   6.645  50.063  1.00  0.00     0.008 C 
HETATM    9  C1  UNL     1      24.189   7.256  51.130  1.00  0.00     0.068 C 
BRANCH   8  10
HETATM   10  N3  UNL     1      22.411   7.503  49.429  1.00  0.00    -0.314 N 
HETATM   11  C14 UNL     1      20.977   7.504  49.354  1.00  0.00     0.318 C 
HETATM   12  N4  UNL     1      20.407   8.578  48.592  1.00  0.00    -0.352 N 
HETATM   13  O1  UNL     1      20.223   6.654  49.893  1.00  0.00    -0.247 OA
HETATM   14  H15 UNL     1      20.146   9.608  48.626  1.00  0.00     0.160 HD
HETATM   15  H16 UNL     1      20.083   8.405  47.595  1.00  0.00     0.160 HD
HETATM   16  H14 UNL     1      22.974   8.233  48.962  1.00  0.00     0.170 HD
ENDBRANCH   8  10
ENDBRANCH   1   7
BRANCH   4  17
HETATM   17  C7  UNL     1      26.686   1.511  52.025  1.00  0.00     0.036 A 
HETATM   18  C8  UNL     1      27.632   2.093  52.843  1.00  0.00     0.033 A 
HETATM   19  C9  UNL     1      28.493   1.308  53.607  1.00  0.00     0.046 A 
HETATM   20  C10 UNL     1      28.422  -0.069  53.568  1.00  0.00     0.138 A 
HETATM   21  F1  UNL     1      29.242  -0.870  54.299  1.00  0.00    -0.204 F 
HETATM   22  C11 UNL     1      27.483  -0.672  52.758  1.00  0.00     0.074 A 
HETATM   23 CL1  UNL     1      27.383  -2.427  52.699  1.00  0.00    -0.081 Cl
HETATM   24  C12 UNL     1      26.651   0.133  52.017  1.00  0.00     0.056 A 
ENDBRANCH   4  17
TORSDOF 3
ENDMDL
