MODEL 1
REMARK VINA RESULT:      -8.5      0.000      0.000
REMARK  4 active torsions:
REMARK  status: ('A' for Active; 'I' for Inactive)
REMARK    1  A    between atoms: O1_2  and  C2_3 
REMARK    2  A    between atoms: C6_9  and  N3_10 
REMARK    3  A    between atoms: N3_10  and  C7_11 
REMARK    4  A    between atoms: C18_23  and  O2_24 
ROOT
HETATM    1  C2  UNL     1      26.587   0.234  54.296  1.00  0.00     0.103 A 
HETATM    2  C3  UNL     1      25.451  -0.518  54.012  1.00  0.00     0.072 A 
HETATM    3  C4  UNL     1      24.360   0.111  53.443  1.00  0.00     0.075 A 
HETATM    4  N1  UNL     1      23.309  -0.719  53.211  1.00  0.00    -0.241 NA
HETATM    5  C5  UNL     1      22.205  -0.168  52.656  1.00  0.00     0.236 A 
HETATM    6  N2  UNL     1      22.075   1.148  52.316  1.00  0.00    -0.223 NA
HETATM    7  C6  UNL     1      23.146   1.909  52.571  1.00  0.00     0.143 A 
HETATM    8  C16 UNL     1      24.316   1.454  53.130  1.00  0.00     0.042 A 
HETATM    9  C17 UNL     1      25.451   2.179  53.417  1.00  0.00     0.057 A 
HETATM   10  C18 UNL     1      26.571   1.597  53.987  1.00  0.00     0.102 A 
ENDROOT
BRANCH   7  11
HETATM   11  N3  UNL     1      23.073   3.285  52.328  1.00  0.00    -0.325 N 
HETATM   12  H6  UNL     1      22.790   4.068  52.925  1.00  0.00     0.169 HD
BRANCH  11  13
HETATM   13  C7  UNL     1      23.380   4.060  51.149  1.00  0.00     0.128 C 
HETATM   14  C8  UNL     1      24.026   3.520  50.058  1.00  0.00     0.051 C 
HETATM   15  C9  UNL     1      24.963   4.084  49.178  1.00  0.00     0.016 C 
HETATM   16  C10 UNL     1      25.706   5.240  49.181  1.00  0.00    -0.026 A 
HETATM   17  C11 UNL     1      26.923   5.592  48.652  1.00  0.00     0.013 A 
HETATM   18  C13 UNL     1      25.472   6.555  49.770  1.00  0.00    -0.025 A 
HETATM   19  C12 UNL     1      26.700   6.854  49.216  1.00  0.00     0.013 A 
HETATM   20  C14 UNL     1      24.477   7.148  50.511  1.00  0.00     0.031 C 
HETATM   21  C15 UNL     1      23.353   6.572  51.101  1.00  0.00     0.120 C 
HETATM   22  N4  UNL     1      22.904   5.319  51.411  1.00  0.00    -0.243 NA
ENDBRANCH  11  13
ENDBRANCH   7  11
BRANCH  10  23
HETATM   23  O2  UNL     1      27.713   2.306  54.277  1.00  0.00    -0.353 OA
HETATM   24  C19 UNL     1      28.766   2.614  53.419  1.00  0.00     0.210 C 
ENDBRANCH  10  23
BRANCH   1  25
HETATM   25  O1  UNL     1      27.705  -0.364  54.875  1.00  0.00    -0.353 OA
HETATM   26  C1  UNL     1      28.704  -0.872  54.013  1.00  0.00     0.210 C 
ENDBRANCH   1  25
TORSDOF 4
ENDMDL
MODEL 2
REMARK VINA RESULT:      -8.4      4.452      6.750
REMARK  4 active torsions:
REMARK  status: ('A' for Active; 'I' for Inactive)
REMARK    1  A    between atoms: O1_2  and  C2_3 
REMARK    2  A    between atoms: C6_9  and  N3_10 
REMARK    3  A    between atoms: N3_10  and  C7_11 
REMARK    4  A    between atoms: C18_23  and  O2_24 
ROOT
HETATM    1  C2  UNL     1      19.370  -0.367  52.560  1.00  0.00     0.103 A 
HETATM    2  C3  UNL     1      19.871  -1.132  53.611  1.00  0.00     0.072 A 
HETATM    3  C4  UNL     1      21.192  -0.970  53.983  1.00  0.00     0.075 A 
HETATM    4  N1  UNL     1      21.572  -1.768  55.017  1.00  0.00    -0.241 NA
HETATM    5  C5  UNL     1      22.854  -1.661  55.432  1.00  0.00     0.236 A 
HETATM    6  N2  UNL     1      23.783  -0.819  54.892  1.00  0.00    -0.223 NA
HETATM    7  C6  UNL     1      23.345  -0.063  53.879  1.00  0.00     0.143 A 
HETATM    8  C16 UNL     1      22.065  -0.089  53.379  1.00  0.00     0.042 A 
HETATM    9  C17 UNL     1      21.549   0.660  52.345  1.00  0.00     0.057 A 
HETATM   10  C18 UNL     1      20.233   0.535  51.932  1.00  0.00     0.102 A 
ENDROOT
BRANCH   7  11
HETATM   11  N3  UNL     1      24.250   0.773  53.216  1.00  0.00    -0.325 N 
HETATM   12  H6  UNL     1      24.197   1.763  52.954  1.00  0.00     0.169 HD
BRANCH  11  13
HETATM   13  C7  UNL     1      25.567   0.517  52.683  1.00  0.00     0.128 C 
HETATM   14  C8  UNL     1      25.962  -0.735  52.263  1.00  0.00     0.051 C 
HETATM   15  C9  UNL     1      27.209  -1.375  52.344  1.00  0.00     0.016 C 
HETATM   16  C10 UNL     1      28.382  -1.109  53.010  1.00  0.00    -0.026 A 
HETATM   17  C11 UNL     1      29.395  -1.891  53.505  1.00  0.00     0.013 A 
HETATM   18  C13 UNL     1      28.996   0.139  53.453  1.00  0.00    -0.025 A 
HETATM   19  C12 UNL     1      29.987  -0.695  53.931  1.00  0.00     0.013 A 
HETATM   20  C14 UNL     1      28.684   1.477  53.389  1.00  0.00     0.031 C 
HETATM   21  C15 UNL     1      27.505   2.090  52.971  1.00  0.00     0.120 C 
HETATM   22  N4  UNL     1      26.212   1.726  52.718  1.00  0.00    -0.243 NA
ENDBRANCH  11  13
ENDBRANCH   7  11
BRANCH  10  23
HETATM   23  O2  UNL     1      19.702   1.277  50.904  1.00  0.00    -0.353 OA
HETATM   24  C19 UNL     1      20.131   1.330  49.580  1.00  0.00     0.210 C 
ENDBRANCH  10  23
BRANCH   1  25
HETATM   25  O1  UNL     1      18.046  -0.507  52.153  1.00  0.00    -0.353 OA
HETATM   26  C1  UNL     1      17.162  -1.210  53.004  1.00  0.00     0.210 C 
ENDBRANCH   1  25
TORSDOF 4
ENDMDL
MODEL 3
REMARK VINA RESULT:      -8.3      1.634      2.354
REMARK  4 active torsions:
REMARK  status: ('A' for Active; 'I' for Inactive)
REMARK    1  A    between atoms: O1_2  and  C2_3 
REMARK    2  A    between atoms: C6_9  and  N3_10 
REMARK    3  A    between atoms: N3_10  and  C7_11 
REMARK    4  A    between atoms: C18_23  and  O2_24 
ROOT
HETATM    1  C2  UNL     1      25.382   0.103  54.177  1.00  0.00     0.103 A 
HETATM    2  C3  UNL     1      24.187  -0.018  53.473  1.00  0.00     0.072 A 
HETATM    3  C4  UNL     1      23.883   0.922  52.508  1.00  0.00     0.075 A 
HETATM    4  N1  UNL     1      22.693   0.705  51.887  1.00  0.00    -0.241 NA
HETATM    5  C5  UNL     1      22.333   1.590  50.930  1.00  0.00     0.236 A 
HETATM    6  N2  UNL     1      23.071   2.673  50.548  1.00  0.00    -0.223 NA
HETATM    7  C6  UNL     1      24.230   2.828  51.198  1.00  0.00     0.143 A 
HETATM    8  C16 UNL     1      24.694   1.990  52.184  1.00  0.00     0.042 A 
HETATM    9  C17 UNL     1      25.872   2.090  52.889  1.00  0.00     0.057 A 
HETATM   10  C18 UNL     1      26.224   1.174  53.867  1.00  0.00     0.102 A 
ENDROOT
BRANCH   7  11
HETATM   11  N3  UNL     1      25.015   3.954  50.926  1.00  0.00    -0.325 N 
HETATM   12  H6  UNL     1      25.366   4.702  51.533  1.00  0.00     0.169 HD
BRANCH  11  13
HETATM   13  C7  UNL     1      25.597   4.434  49.695  1.00  0.00     0.128 C 
HETATM   14  C8  UNL     1      26.856   4.058  49.280  1.00  0.00     0.051 C 
HETATM   15  C9  UNL     1      27.849   4.782  48.599  1.00  0.00     0.016 C 
HETATM   16  C10 UNL     1      28.024   6.109  48.288  1.00  0.00    -0.026 A 
HETATM   17  C11 UNL     1      29.125   6.904  48.086  1.00  0.00     0.013 A 
HETATM   18  C13 UNL     1      27.076   7.195  48.057  1.00  0.00    -0.025 A 
HETATM   19  C12 UNL     1      28.218   7.947  47.864  1.00  0.00     0.013 A 
HETATM   20  C14 UNL     1      25.708   7.335  48.048  1.00  0.00     0.031 C 
HETATM   21  C15 UNL     1      24.726   6.426  48.437  1.00  0.00     0.120 C 
HETATM   22  N4  UNL     1      24.651   5.260  49.146  1.00  0.00    -0.243 NA
ENDBRANCH  11  13
ENDBRANCH   7  11
BRANCH  10  23
HETATM   23  O2  UNL     1      27.398   1.258  54.578  1.00  0.00    -0.353 OA
HETATM   24  C19 UNL     1      28.682   0.936  54.146  1.00  0.00     0.210 C 
ENDBRANCH  10  23
BRANCH   1  25
HETATM   25  O1  UNL     1      25.721  -0.823  55.161  1.00  0.00    -0.353 OA
HETATM   26  C1  UNL     1      24.693  -1.289  56.012  1.00  0.00     0.210 C 
ENDBRANCH   1  25
TORSDOF 4
ENDMDL
MODEL 4
REMARK VINA RESULT:      -8.2      2.939      7.230
REMARK  4 active torsions:
REMARK  status: ('A' for Active; 'I' for Inactive)
REMARK    1  A    between atoms: O1_2  and  C2_3 
REMARK    2  A    between atoms: C6_9  and  N3_10 
REMARK    3  A    between atoms: N3_10  and  C7_11 
REMARK    4  A    between atoms: C18_23  and  O2_24 
ROOT
HETATM    1  C2  UNL     1      27.037   6.624  48.348  1.00  0.00     0.103 A 
HETATM    2  C3  UNL     1      25.796   6.808  48.954  1.00  0.00     0.072 A 
HETATM    3  C4  UNL     1      25.266   5.783  49.713  1.00  0.00     0.075 A 
HETATM    4  N1  UNL     1      24.053   6.073  50.254  1.00  0.00    -0.241 NA
HETATM    5  C5  UNL     1      23.475   5.112  51.009  1.00  0.00     0.236 A 
HETATM    6  N2  UNL     1      24.018   3.885  51.264  1.00  0.00    -0.223 NA
HETATM    7  C6  UNL     1      25.212   3.665  50.703  1.00  0.00     0.143 A 
HETATM    8  C16 UNL     1      25.889   4.570  49.920  1.00  0.00     0.042 A 
HETATM    9  C17 UNL     1      27.115   4.409  49.315  1.00  0.00     0.057 A 
HETATM   10  C18 UNL     1      27.691   5.405  48.543  1.00  0.00     0.102 A 
ENDROOT
BRANCH   7  11
HETATM   11  N3  UNL     1      25.807   2.407  50.846  1.00  0.00    -0.325 N 
HETATM   12  H6  UNL     1      26.023   1.674  50.163  1.00  0.00     0.169 HD
BRANCH  11  13
HETATM   13  C7  UNL     1      26.323   1.725  52.010  1.00  0.00     0.128 C 
HETATM   14  C8  UNL     1      27.422   2.181  52.705  1.00  0.00     0.051 C 
HETATM   15  C9  UNL     1      28.451   1.478  53.353  1.00  0.00     0.016 C 
HETATM   16  C10 UNL     1      28.851   0.164  53.369  1.00  0.00    -0.026 A 
HETATM   17  C11 UNL     1      30.057  -0.464  53.559  1.00  0.00     0.013 A 
HETATM   18  C13 UNL     1      28.120  -1.086  53.178  1.00  0.00    -0.025 A 
HETATM   19  C12 UNL     1      29.358  -1.664  53.376  1.00  0.00     0.013 A 
HETATM   20  C14 UNL     1      26.817  -1.446  52.927  1.00  0.00     0.031 C 
HETATM   21  C15 UNL     1      25.725  -0.642  52.603  1.00  0.00     0.120 C 
HETATM   22  N4  UNL     1      25.504   0.640  52.186  1.00  0.00    -0.243 NA
ENDBRANCH  11  13
ENDBRANCH   7  11
BRANCH  10  23
HETATM   23  O2  UNL     1      28.916   5.261  47.936  1.00  0.00    -0.353 OA
HETATM   24  C19 UNL     1      30.147   5.743  48.374  1.00  0.00     0.210 C 
ENDBRANCH  10  23
BRANCH   1  25
HETATM   25  O1  UNL     1      27.601   7.633  47.571  1.00  0.00    -0.353 OA
HETATM   26  C1  UNL     1      26.798   8.225  46.569  1.00  0.00     0.210 C 
ENDBRANCH   1  25
TORSDOF 4
ENDMDL
MODEL 5
REMARK VINA RESULT:      -8.2      2.366      5.638
REMARK  4 active torsions:
REMARK  status: ('A' for Active; 'I' for Inactive)
REMARK    1  A    between atoms: O1_2  and  C2_3 
REMARK    2  A    between atoms: C6_9  and  N3_10 
REMARK    3  A    between atoms: N3_10  and  C7_11 
REMARK    4  A    between atoms: C18_23  and  O2_24 
ROOT
HETATM    1  C2  UNL     1      27.856   0.521  54.002  1.00  0.00     0.103 A 
HETATM    2  C3  UNL     1      28.015   1.343  52.890  1.00  0.00     0.072 A 
HETATM    3  C4  UNL     1      26.893   1.902  52.308  1.00  0.00     0.075 A 
HETATM    4  N1  UNL     1      27.167   2.684  51.230  1.00  0.00    -0.241 NA
HETATM    5  C5  UNL     1      26.113   3.262  50.610  1.00  0.00     0.236 A 
HETATM    6  N2  UNL     1      24.810   3.118  50.987  1.00  0.00    -0.223 NA
HETATM    7  C6  UNL     1      24.609   2.337  52.055  1.00  0.00     0.143 A 
HETATM    8  C16 UNL     1      25.605   1.703  52.759  1.00  0.00     0.042 A 
HETATM    9  C17 UNL     1      25.470   0.889  53.862  1.00  0.00     0.057 A 
HETATM   10  C18 UNL     1      26.562   0.304  54.483  1.00  0.00     0.102 A 
ENDROOT
BRANCH   7  11
HETATM   11  N3  UNL     1      23.299   2.071  52.465  1.00  0.00    -0.325 N 
HETATM   12  H6  UNL     1      22.687   2.541  53.140  1.00  0.00     0.169 HD
BRANCH  11  13
HETATM   13  C7  UNL     1      22.366   1.044  52.064  1.00  0.00     0.128 C 
HETATM   14  C8  UNL     1      21.827   0.991  50.797  1.00  0.00     0.051 C 
HETATM   15  C9  UNL     1      20.548   0.604  50.362  1.00  0.00     0.016 C 
HETATM   16  C10 UNL     1      19.358   0.346  50.998  1.00  0.00    -0.026 A 
HETATM   17  C11 UNL     1      18.039   0.450  50.630  1.00  0.00     0.013 A 
HETATM   18  C13 UNL     1      19.047  -0.141  52.339  1.00  0.00    -0.025 A 
HETATM   19  C12 UNL     1      17.738  -0.018  51.915  1.00  0.00     0.013 A 
HETATM   20  C14 UNL     1      19.765  -0.525  53.446  1.00  0.00     0.031 C 
HETATM   21  C15 UNL     1      21.132  -0.415  53.695  1.00  0.00     0.120 C 
HETATM   22  N4  UNL     1      22.203   0.252  53.171  1.00  0.00    -0.243 NA
ENDBRANCH  11  13
ENDBRANCH   7  11
BRANCH  10  23
HETATM   23  O2  UNL     1      26.444  -0.508  55.586  1.00  0.00    -0.353 OA
HETATM   24  C19 UNL     1      25.277  -0.894  56.240  1.00  0.00     0.210 C 
ENDBRANCH  10  23
BRANCH   1  25
HETATM   25  O1  UNL     1      28.962  -0.065  54.613  1.00  0.00    -0.353 OA
HETATM   26  C1  UNL     1      29.793  -0.893  53.823  1.00  0.00     0.210 C 
ENDBRANCH   1  25
TORSDOF 4
ENDMDL
MODEL 6
REMARK VINA RESULT:      -8.1      2.738      4.002
REMARK  4 active torsions:
REMARK  status: ('A' for Active; 'I' for Inactive)
REMARK    1  A    between atoms: O1_2  and  C2_3 
REMARK    2  A    between atoms: C6_9  and  N3_10 
REMARK    3  A    between atoms: N3_10  and  C7_11 
REMARK    4  A    between atoms: C18_23  and  O2_24 
ROOT
HETATM    1  C2  UNL     1      22.231   0.237  53.383  1.00  0.00     0.103 A 
HETATM    2  C3  UNL     1      23.523  -0.282  53.357  1.00  0.00     0.072 A 
HETATM    3  C4  UNL     1      24.542   0.495  52.840  1.00  0.00     0.075 A 
HETATM    4  N1  UNL     1      25.759  -0.113  52.863  1.00  0.00    -0.241 NA
HETATM    5  C5  UNL     1      26.803   0.592  52.371  1.00  0.00     0.236 A 
HETATM    6  N2  UNL     1      26.722   1.854  51.859  1.00  0.00    -0.223 NA
HETATM    7  C6  UNL     1      25.498   2.394  51.866  1.00  0.00     0.143 A 
HETATM    8  C16 UNL     1      24.369   1.769  52.342  1.00  0.00     0.042 A 
HETATM    9  C17 UNL     1      23.085   2.265  52.380  1.00  0.00     0.057 A 
HETATM   10  C18 UNL     1      22.027   1.527  52.887  1.00  0.00     0.102 A 
ENDROOT
BRANCH   7  11
HETATM   11  N3  UNL     1      25.308   3.654  51.289  1.00  0.00    -0.325 N 
HETATM   12  H6  UNL     1      24.880   4.512  51.652  1.00  0.00     0.169 HD
BRANCH  11  13
HETATM   13  C7  UNL     1      25.661   4.167  49.986  1.00  0.00     0.128 C 
HETATM   14  C8  UNL     1      26.887   3.924  49.405  1.00  0.00     0.051 C 
HETATM   15  C9  UNL     1      27.689   4.739  48.589  1.00  0.00     0.016 C 
HETATM   16  C10 UNL     1      27.669   6.069  48.248  1.00  0.00    -0.026 A 
HETATM   17  C11 UNL     1      28.636   6.977  47.891  1.00  0.00     0.013 A 
HETATM   18  C13 UNL     1      26.582   7.038  48.140  1.00  0.00    -0.025 A 
HETATM   19  C12 UNL     1      27.595   7.908  47.788  1.00  0.00     0.013 A 
HETATM   20  C14 UNL     1      25.219   7.024  48.318  1.00  0.00     0.031 C 
HETATM   21  C15 UNL     1      24.407   6.021  48.845  1.00  0.00     0.120 C 
HETATM   22  N4  UNL     1      24.562   4.870  49.565  1.00  0.00    -0.243 NA
ENDBRANCH  11  13
ENDBRANCH   7  11
BRANCH  10  23
HETATM   23  O2  UNL     1      20.740   2.008  52.935  1.00  0.00    -0.353 OA
HETATM   24  C19 UNL     1      20.174   3.010  52.151  1.00  0.00     0.210 C 
ENDBRANCH  10  23
BRANCH   1  25
HETATM   25  O1  UNL     1      21.176  -0.518  53.891  1.00  0.00    -0.353 OA
HETATM   26  C1  UNL     1      21.480  -1.762  54.491  1.00  0.00     0.210 C 
ENDBRANCH   1  25
TORSDOF 4
ENDMDL
MODEL 7
REMARK VINA RESULT:      -8.1      2.175      3.442
REMARK  4 active torsions:
REMARK  status: ('A' for Active; 'I' for Inactive)
REMARK    1  A    between atoms: O1_2  and  C2_3 
REMARK    2  A    between atoms: C6_9  and  N3_10 
REMARK    3  A    between atoms: N3_10  and  C7_11 
REMARK    4  A    between atoms: C18_23  and  O2_24 
ROOT
HETATM    1  C2  UNL     1      22.645   0.008  53.185  1.00  0.00     0.103 A 
HETATM    2  C3  UNL     1      21.591   0.905  53.029  1.00  0.00     0.072 A 
HETATM    3  C4  UNL     1      21.854   2.158  52.509  1.00  0.00     0.075 A 
HETATM    4  N1  UNL     1      20.752   2.948  52.403  1.00  0.00    -0.241 NA
HETATM    5  C5  UNL     1      20.938   4.191  51.902  1.00  0.00     0.236 A 
HETATM    6  N2  UNL     1      22.139   4.701  51.501  1.00  0.00    -0.223 NA
HETATM    7  C6  UNL     1      23.181   3.872  51.632  1.00  0.00     0.143 A 
HETATM    8  C16 UNL     1      23.106   2.591  52.127  1.00  0.00     0.042 A 
HETATM    9  C17 UNL     1      24.134   1.689  52.287  1.00  0.00     0.057 A 
HETATM   10  C18 UNL     1      23.924   0.420  52.803  1.00  0.00     0.102 A 
ENDROOT
BRANCH   7  11
HETATM   11  N3  UNL     1      24.462   4.338  51.319  1.00  0.00    -0.325 N 
HETATM   12  H6  UNL     1      25.242   4.640  51.913  1.00  0.00     0.169 HD
BRANCH  11  13
HETATM   13  C7  UNL     1      25.116   4.543  50.048  1.00  0.00     0.128 C 
HETATM   14  C8  UNL     1      26.246   3.845  49.679  1.00  0.00     0.051 C 
HETATM   15  C9  UNL     1      27.366   4.247  48.932  1.00  0.00     0.016 C 
HETATM   16  C10 UNL     1      27.838   5.459  48.489  1.00  0.00    -0.026 A 
HETATM   17  C11 UNL     1      29.089   5.951  48.212  1.00  0.00     0.013 A 
HETATM   18  C13 UNL     1      27.163   6.707  48.143  1.00  0.00    -0.025 A 
HETATM   19  C12 UNL     1      28.444   7.149  47.880  1.00  0.00     0.013 A 
HETATM   20  C14 UNL     1      25.865   7.158  48.114  1.00  0.00     0.031 C 
HETATM   21  C15 UNL     1      24.706   6.547  48.590  1.00  0.00     0.120 C 
HETATM   22  N4  UNL     1      24.377   5.507  49.413  1.00  0.00    -0.243 NA
ENDBRANCH  11  13
ENDBRANCH   7  11
BRANCH  10  23
HETATM   23  O2  UNL     1      24.938  -0.494  52.967  1.00  0.00    -0.353 OA
HETATM   24  C19 UNL     1      26.304  -0.294  52.784  1.00  0.00     0.210 C 
ENDBRANCH  10  23
BRANCH   1  25
HETATM   25  O1  UNL     1      22.420  -1.262  53.711  1.00  0.00    -0.353 OA
HETATM   26  C1  UNL     1      21.782  -1.355  54.969  1.00  0.00     0.210 C 
ENDBRANCH   1  25
TORSDOF 4
ENDMDL
MODEL 8
REMARK VINA RESULT:      -7.9      2.639      6.252
REMARK  4 active torsions:
REMARK  status: ('A' for Active; 'I' for Inactive)
REMARK    1  A    between atoms: O1_2  and  C2_3 
REMARK    2  A    between atoms: C6_9  and  N3_10 
REMARK    3  A    between atoms: N3_10  and  C7_11 
REMARK    4  A    between atoms: C18_23  and  O2_24 
ROOT
HETATM    1  C2  UNL     1      26.682   1.003  53.915  1.00  0.00     0.103 A 
HETATM    2  C3  UNL     1      26.687   2.013  52.957  1.00  0.00     0.072 A 
HETATM    3  C4  UNL     1      25.604   2.132  52.108  1.00  0.00     0.075 A 
HETATM    4  N1  UNL     1      25.717   3.150  51.214  1.00  0.00    -0.241 NA
HETATM    5  C5  UNL     1      24.691   3.323  50.351  1.00  0.00     0.236 A 
HETATM    6  N2  UNL     1      23.562   2.557  50.315  1.00  0.00    -0.223 NA
HETATM    7  C6  UNL     1      23.514   1.573  51.220  1.00  0.00     0.143 A 
HETATM    8  C16 UNL     1      24.497   1.309  52.144  1.00  0.00     0.042 A 
HETATM    9  C17 UNL     1      24.511   0.318  53.099  1.00  0.00     0.057 A 
HETATM   10  C18 UNL     1      25.573   0.155  53.975  1.00  0.00     0.102 A 
ENDROOT
BRANCH   7  11
HETATM   11  N3  UNL     1      22.429   0.689  51.205  1.00  0.00    -0.325 N 
HETATM   12  H6  UNL     1      22.290  -0.210  50.732  1.00  0.00     0.169 HD
BRANCH  11  13
HETATM   13  C7  UNL     1      21.142   0.749  51.857  1.00  0.00     0.128 C 
HETATM   14  C8  UNL     1      20.931   0.239  53.119  1.00  0.00     0.051 C 
HETATM   15  C9  UNL     1      19.810  -0.403  53.671  1.00  0.00     0.016 C 
HETATM   16  C10 UNL     1      18.650  -0.922  53.149  1.00  0.00    -0.026 A 
HETATM   17  C11 UNL     1      17.805  -1.936  53.525  1.00  0.00     0.013 A 
HETATM   18  C13 UNL     1      17.868  -0.578  51.964  1.00  0.00    -0.025 A 
HETATM   19  C12 UNL     1      17.054  -1.609  52.389  1.00  0.00     0.013 A 
HETATM   20  C14 UNL     1      17.956   0.346  50.950  1.00  0.00     0.031 C 
HETATM   21  C15 UNL     1      18.996   1.220  50.640  1.00  0.00     0.120 C 
HETATM   22  N4  UNL     1      20.314   1.378  50.964  1.00  0.00    -0.243 NA
ENDBRANCH  11  13
ENDBRANCH   7  11
BRANCH  10  23
HETATM   23  O2  UNL     1      25.600  -0.827  54.937  1.00  0.00    -0.353 OA
HETATM   24  C19 UNL     1      24.564  -1.229  55.774  1.00  0.00     0.210 C 
ENDBRANCH  10  23
BRANCH   1  25
HETATM   25  O1  UNL     1      27.759   0.847  54.785  1.00  0.00    -0.353 OA
HETATM   26  C1  UNL     1      29.042   0.652  54.223  1.00  0.00     0.210 C 
ENDBRANCH   1  25
TORSDOF 4
ENDMDL
MODEL 9
REMARK VINA RESULT:      -7.9      3.350      5.260
REMARK  4 active torsions:
REMARK  status: ('A' for Active; 'I' for Inactive)
REMARK    1  A    between atoms: O1_2  and  C2_3 
REMARK    2  A    between atoms: C6_9  and  N3_10 
REMARK    3  A    between atoms: N3_10  and  C7_11 
REMARK    4  A    between atoms: C18_23  and  O2_24 
ROOT
HETATM    1  C2  UNL     1      19.825  -0.816  53.400  1.00  0.00     0.103 A 
HETATM    2  C3  UNL     1      20.633  -1.302  54.424  1.00  0.00     0.072 A 
HETATM    3  C4  UNL     1      21.988  -1.036  54.388  1.00  0.00     0.075 A 
HETATM    4  N1  UNL     1      22.678  -1.560  55.436  1.00  0.00    -0.241 NA
HETATM    5  C5  UNL     1      24.012  -1.338  55.463  1.00  0.00     0.236 A 
HETATM    6  N2  UNL     1      24.706  -0.634  54.522  1.00  0.00    -0.223 NA
HETATM    7  C6  UNL     1      23.968  -0.146  53.518  1.00  0.00     0.143 A 
HETATM    8  C16 UNL     1      22.609  -0.310  53.393  1.00  0.00     0.042 A 
HETATM    9  C17 UNL     1      21.792   0.164  52.391  1.00  0.00     0.057 A 
HETATM   10  C18 UNL     1      20.427  -0.075  52.380  1.00  0.00     0.102 A 
ENDROOT
BRANCH   7  11
HETATM   11  N3  UNL     1      24.608   0.523  52.469  1.00  0.00    -0.325 N 
HETATM   12  H6  UNL     1      24.992   0.185  51.580  1.00  0.00     0.169 HD
BRANCH  11  13
HETATM   13  C7  UNL     1      24.935   1.917  52.287  1.00  0.00     0.128 C 
HETATM   14  C8  UNL     1      24.138   2.931  52.775  1.00  0.00     0.051 C 
HETATM   15  C9  UNL     1      23.840   4.196  52.243  1.00  0.00     0.016 C 
HETATM   16  C10 UNL     1      24.041   4.794  51.022  1.00  0.00    -0.026 A 
HETATM   17  C11 UNL     1      23.379   5.768  50.317  1.00  0.00     0.013 A 
HETATM   18  C13 UNL     1      25.058   4.603  49.992  1.00  0.00    -0.025 A 
HETATM   19  C12 UNL     1      24.353   5.587  49.328  1.00  0.00     0.013 A 
HETATM   20  C14 UNL     1      26.166   3.806  49.826  1.00  0.00     0.031 C 
HETATM   21  C15 UNL     1      26.609   2.737  50.603  1.00  0.00     0.120 C 
HETATM   22  N4  UNL     1      26.110   1.924  51.581  1.00  0.00    -0.243 NA
ENDBRANCH  11  13
ENDBRANCH   7  11
BRANCH  10  23
HETATM   23  O2  UNL     1      19.598   0.394  51.389  1.00  0.00    -0.353 OA
HETATM   24  C19 UNL     1      19.666   1.616  50.727  1.00  0.00     0.210 C 
ENDBRANCH  10  23
BRANCH   1  25
HETATM   25  O1  UNL     1      18.455  -1.069  53.399  1.00  0.00    -0.353 OA
HETATM   26  C1  UNL     1      18.026  -2.392  53.652  1.00  0.00     0.210 C 
ENDBRANCH   1  25
TORSDOF 4
ENDMDL
