MODEL 1
REMARK VINA RESULT:      -8.0      0.000      0.000
REMARK  5 active torsions:
REMARK  status: ('A' for Active; 'I' for Inactive)
REMARK    1  A    between atoms: O1_2  and  C2_3 
REMARK    2  A    between atoms: C6_7  and  C7_8 
REMARK    3  A    between atoms: C7_8  and  O3_10 
REMARK    4  A    between atoms: N1_12  and  C9_13 
REMARK    5  A    between atoms: C17_22  and  O4_23 
ROOT
HETATM    1  C2  UNL     1      27.517   2.036  52.713  1.00  0.00     0.101 A 
HETATM    2  C3  UNL     1      27.130   1.095  53.560  1.00  0.00     0.050 A 
HETATM    3  C4  UNL     1      25.869   0.459  53.200  1.00  0.00    -0.017 A 
HETATM    4  C5  UNL     1      25.412  -0.482  53.992  1.00  0.00    -0.001 C 
HETATM    5  C6  UNL     1      24.156  -0.694  54.096  1.00  0.00     0.045 C 
HETATM    6  C8  UNL     1      23.165  -0.345  53.040  1.00  0.00     0.170 C 
HETATM    7  N1  UNL     1      23.624   0.924  52.450  1.00  0.00    -0.364 N 
HETATM    8  C15 UNL     1      24.975   0.708  52.029  1.00  0.00     0.145 A 
HETATM    9  C16 UNL     1      25.585   1.774  51.235  1.00  0.00     0.042 A 
HETATM   10  C17 UNL     1      26.745   2.383  51.540  1.00  0.00     0.100 A 
ENDROOT
BRANCH   7  11
HETATM   11  C9  UNL     1      22.781   2.060  52.357  1.00  0.00     0.032 A 
HETATM   12  C10 UNL     1      23.158   3.377  52.432  1.00  0.00     0.029 A 
HETATM   13  C11 UNL     1      22.327   4.467  52.322  1.00  0.00     0.004 A 
HETATM   14  C12 UNL     1      20.987   4.229  52.117  1.00  0.00     0.024 A 
HETATM   15  C13 UNL     1      20.556   2.921  52.035  1.00  0.00     0.036 A 
HETATM   16 CL1  UNL     1      18.828   2.752  51.772  1.00  0.00    -0.084 Cl
HETATM   17  C14 UNL     1      21.434   1.863  52.153  1.00  0.00     0.053 A 
ENDBRANCH   7  11
BRANCH   5  18
HETATM   18  C7  UNL     1      23.725  -1.327  55.362  1.00  0.00     0.174 C 
HETATM   19  O2  UNL     1      22.663  -1.779  55.856  1.00  0.00    -0.646 OA
BRANCH  18  20
HETATM   20  O3  UNL     1      24.839  -1.425  56.204  1.00  0.00    -0.773 OA
HETATM   21  H5  UNL     1      24.738  -1.638  57.203  1.00  0.00     0.167 HD
ENDBRANCH  18  20
ENDBRANCH   5  18
BRANCH  10  22
HETATM   22  O4  UNL     1      27.273   3.394  50.737  1.00  0.00    -0.353 OA
HETATM   23  C18 UNL     1      26.563   3.874  49.621  1.00  0.00     0.210 C 
ENDBRANCH  10  22
BRANCH   1  24
HETATM   24  O1  UNL     1      28.708   2.667  53.013  1.00  0.00    -0.353 OA
HETATM   25  C1  UNL     1      29.375   2.164  54.182  1.00  0.00     0.210 C 
ENDBRANCH   1  24
TORSDOF 5
ENDMDL
MODEL 2
REMARK VINA RESULT:      -7.7      3.076      5.411
REMARK  5 active torsions:
REMARK  status: ('A' for Active; 'I' for Inactive)
REMARK    1  A    between atoms: O1_2  and  C2_3 
REMARK    2  A    between atoms: C6_7  and  C7_8 
REMARK    3  A    between atoms: C7_8  and  O3_10 
REMARK    4  A    between atoms: N1_12  and  C9_13 
REMARK    5  A    between atoms: C17_22  and  O4_23 
ROOT
HETATM    1  C2  UNL     1      22.919   2.042  49.974  1.00  0.00     0.101 A 
HETATM    2  C3  UNL     1      22.046   1.316  50.654  1.00  0.00     0.050 A 
HETATM    3  C4  UNL     1      22.394   1.138  52.058  1.00  0.00    -0.017 A 
HETATM    4  C5  UNL     1      21.582   0.424  52.802  1.00  0.00    -0.001 C 
HETATM    5  C6  UNL     1      22.024  -0.230  53.807  1.00  0.00     0.045 C 
HETATM    6  C8  UNL     1      23.268   0.123  54.547  1.00  0.00     0.170 C 
HETATM    7  N1  UNL     1      24.225   0.600  53.534  1.00  0.00    -0.364 N 
HETATM    8  C15 UNL     1      23.568   1.655  52.824  1.00  0.00     0.145 A 
HETATM    9  C16 UNL     1      24.394   2.420  51.889  1.00  0.00     0.042 A 
HETATM   10  C17 UNL     1      24.103   2.601  50.588  1.00  0.00     0.100 A 
ENDROOT
BRANCH   7  11
HETATM   11  C9  UNL     1      25.525   0.050  53.409  1.00  0.00     0.032 A 
HETATM   12  C10 UNL     1      25.874  -1.106  52.757  1.00  0.00     0.029 A 
HETATM   13  C11 UNL     1      27.145  -1.615  52.630  1.00  0.00     0.004 A 
HETATM   14  C12 UNL     1      28.175  -0.908  53.208  1.00  0.00     0.024 A 
HETATM   15  C13 UNL     1      27.878   0.261  53.876  1.00  0.00     0.036 A 
HETATM   16 CL1  UNL     1      29.277   1.067  54.566  1.00  0.00    -0.084 Cl
HETATM   17  C14 UNL     1      26.582   0.727  53.974  1.00  0.00     0.053 A 
ENDBRANCH   7  11
BRANCH   5  18
HETATM   18  C7  UNL     1      21.206  -1.395  54.211  1.00  0.00     0.174 C 
HETATM   19  O2  UNL     1      20.068  -1.860  53.954  1.00  0.00    -0.646 OA
BRANCH  18  20
HETATM   20  O3  UNL     1      21.943  -2.153  55.128  1.00  0.00    -0.773 OA
HETATM   21  H5  UNL     1      21.653  -2.237  56.108  1.00  0.00     0.167 HD
ENDBRANCH  18  20
ENDBRANCH   5  18
BRANCH  10  22
HETATM   22  O4  UNL     1      24.934   3.344  49.750  1.00  0.00    -0.353 OA
HETATM   23  C18 UNL     1      26.335   3.276  49.876  1.00  0.00     0.210 C 
ENDBRANCH  10  22
BRANCH   1  24
HETATM   24  O1  UNL     1      22.631   2.238  48.637  1.00  0.00    -0.353 OA
HETATM   25  C1  UNL     1      21.336   1.770  48.228  1.00  0.00     0.210 C 
ENDBRANCH   1  24
TORSDOF 5
ENDMDL
MODEL 3
REMARK VINA RESULT:      -7.6      2.077      4.895
REMARK  5 active torsions:
REMARK  status: ('A' for Active; 'I' for Inactive)
REMARK    1  A    between atoms: O1_2  and  C2_3 
REMARK    2  A    between atoms: C6_7  and  C7_8 
REMARK    3  A    between atoms: C7_8  and  O3_10 
REMARK    4  A    between atoms: N1_12  and  C9_13 
REMARK    5  A    between atoms: C17_22  and  O4_23 
ROOT
HETATM    1  C2  UNL     1      26.934  -0.448  53.231  1.00  0.00     0.101 A 
HETATM    2  C3  UNL     1      27.367   0.467  52.378  1.00  0.00     0.050 A 
HETATM    3  C4  UNL     1      26.488   1.623  52.256  1.00  0.00    -0.017 A 
HETATM    4  C5  UNL     1      26.843   2.576  51.426  1.00  0.00    -0.001 C 
HETATM    5  C6  UNL     1      25.962   3.300  50.848  1.00  0.00     0.045 C 
HETATM    6  C8  UNL     1      24.595   3.534  51.391  1.00  0.00     0.170 C 
HETATM    7  N1  UNL     1      24.176   2.266  52.011  1.00  0.00    -0.364 N 
HETATM    8  C15 UNL     1      25.198   1.919  52.950  1.00  0.00     0.145 A 
HETATM    9  C16 UNL     1      24.911   0.789  53.833  1.00  0.00     0.042 A 
HETATM   10  C17 UNL     1      25.699  -0.294  53.967  1.00  0.00     0.100 A 
ENDROOT
BRANCH   7  11
HETATM   11  C9  UNL     1      22.958   1.627  51.669  1.00  0.00     0.032 A 
HETATM   12  C10 UNL     1      22.458   1.421  50.408  1.00  0.00     0.029 A 
HETATM   13  C11 UNL     1      21.281   0.782  50.094  1.00  0.00     0.004 A 
HETATM   14  C12 UNL     1      20.521   0.299  51.136  1.00  0.00     0.024 A 
HETATM   15  C13 UNL     1      20.979   0.482  52.424  1.00  0.00     0.036 A 
HETATM   16 CL1  UNL     1      19.922  -0.179  53.660  1.00  0.00    -0.084 Cl
HETATM   17  C14 UNL     1      22.169   1.131  52.683  1.00  0.00     0.053 A 
ENDBRANCH   7  11
BRANCH   5  18
HETATM   18  C7  UNL     1      26.388   3.912  49.571  1.00  0.00     0.174 C 
HETATM   19  O2  UNL     1      27.448   4.030  48.909  1.00  0.00    -0.646 OA
BRANCH  18  20
HETATM   20  O3  UNL     1      25.270   4.510  48.977  1.00  0.00    -0.773 OA
HETATM   21  H5  UNL     1      25.369   5.211  48.234  1.00  0.00     0.167 HD
ENDBRANCH  18  20
ENDBRANCH   5  18
BRANCH  10  22
HETATM   22  O4  UNL     1      25.367  -1.337  54.830  1.00  0.00    -0.353 OA
HETATM   23  C18 UNL     1      24.171  -1.308  55.572  1.00  0.00     0.210 C 
ENDBRANCH  10  22
BRANCH   1  24
HETATM   24  O1  UNL     1      27.736  -1.563  53.379  1.00  0.00    -0.353 OA
HETATM   25  C1  UNL     1      29.145  -1.289  53.409  1.00  0.00     0.210 C 
ENDBRANCH   1  24
TORSDOF 5
ENDMDL
MODEL 4
REMARK VINA RESULT:      -7.4      3.185      6.926
REMARK  5 active torsions:
REMARK  status: ('A' for Active; 'I' for Inactive)
REMARK    1  A    between atoms: O1_2  and  C2_3 
REMARK    2  A    between atoms: C6_7  and  C7_8 
REMARK    3  A    between atoms: C7_8  and  O3_10 
REMARK    4  A    between atoms: N1_12  and  C9_13 
REMARK    5  A    between atoms: C17_22  and  O4_23 
ROOT
HETATM    1  C2  UNL     1      21.083   2.902  52.047  1.00  0.00     0.101 A 
HETATM    2  C3  UNL     1      21.723   3.912  51.480  1.00  0.00     0.050 A 
HETATM    3  C4  UNL     1      22.972   3.531  50.833  1.00  0.00    -0.017 A 
HETATM    4  C5  UNL     1      23.671   4.477  50.250  1.00  0.00    -0.001 C 
HETATM    5  C6  UNL     1      24.942   4.387  50.160  1.00  0.00     0.045 C 
HETATM    6  C8  UNL     1      25.687   3.097  50.180  1.00  0.00     0.170 C 
HETATM    7  N1  UNL     1      24.980   2.231  51.140  1.00  0.00    -0.364 N 
HETATM    8  C15 UNL     1      23.614   2.188  50.714  1.00  0.00     0.145 A 
HETATM    9  C16 UNL     1      22.750   1.230  51.404  1.00  0.00     0.042 A 
HETATM   10  C17 UNL     1      21.594   1.549  52.013  1.00  0.00     0.100 A 
ENDROOT
BRANCH   7  11
HETATM   11  C9  UNL     1      25.648   1.603  52.220  1.00  0.00     0.032 A 
HETATM   12  C10 UNL     1      25.762   2.070  53.505  1.00  0.00     0.029 A 
HETATM   13  C11 UNL     1      26.400   1.437  54.546  1.00  0.00     0.004 A 
HETATM   14  C12 UNL     1      26.984   0.217  54.289  1.00  0.00     0.024 A 
HETATM   15  C13 UNL     1      26.898  -0.297  53.012  1.00  0.00     0.036 A 
HETATM   16 CL1  UNL     1      27.680  -1.857  52.814  1.00  0.00    -0.084 Cl
HETATM   17  C14 UNL     1      26.245   0.381  52.002  1.00  0.00     0.053 A 
ENDBRANCH   7  11
BRANCH   5  18
HETATM   18  C7  UNL     1      25.658   5.675  50.028  1.00  0.00     0.174 C 
HETATM   19  O2  UNL     1      25.406   6.894  50.185  1.00  0.00    -0.646 OA
BRANCH  18  20
HETATM   20  O3  UNL     1      26.969   5.407  49.613  1.00  0.00    -0.773 OA
HETATM   21  H5  UNL     1      27.437   4.527  49.853  1.00  0.00     0.167 HD
ENDBRANCH  18  20
ENDBRANCH   5  18
BRANCH  10  22
HETATM   22  O4  UNL     1      20.815   0.585  52.653  1.00  0.00    -0.353 OA
HETATM   23  C18 UNL     1      21.089   0.197  53.978  1.00  0.00     0.210 C 
ENDBRANCH  10  22
BRANCH   1  24
HETATM   24  O1  UNL     1      19.892   3.215  52.674  1.00  0.00    -0.353 OA
HETATM   25  C1  UNL     1      18.808   3.520  51.783  1.00  0.00     0.210 C 
ENDBRANCH   1  24
TORSDOF 5
ENDMDL
MODEL 5
REMARK VINA RESULT:      -7.3      2.852      5.333
REMARK  5 active torsions:
REMARK  status: ('A' for Active; 'I' for Inactive)
REMARK    1  A    between atoms: O1_2  and  C2_3 
REMARK    2  A    between atoms: C6_7  and  C7_8 
REMARK    3  A    between atoms: C7_8  and  O3_10 
REMARK    4  A    between atoms: N1_12  and  C9_13 
REMARK    5  A    between atoms: C17_22  and  O4_23 
ROOT
HETATM    1  C2  UNL     1      21.132   0.865  51.637  1.00  0.00     0.101 A 
HETATM    2  C3  UNL     1      21.989   0.076  52.265  1.00  0.00     0.050 A 
HETATM    3  C4  UNL     1      23.104   0.787  52.879  1.00  0.00    -0.017 A 
HETATM    4  C5  UNL     1      24.004   0.076  53.518  1.00  0.00    -0.001 C 
HETATM    5  C6  UNL     1      25.216   0.475  53.595  1.00  0.00     0.045 C 
HETATM    6  C8  UNL     1      25.630   1.902  53.484  1.00  0.00     0.170 C 
HETATM    7  N1  UNL     1      24.746   2.508  52.474  1.00  0.00    -0.364 N 
HETATM    8  C15 UNL     1      23.405   2.250  52.904  1.00  0.00     0.145 A 
HETATM    9  C16 UNL     1      22.343   2.925  52.158  1.00  0.00     0.042 A 
HETATM   10  C17 UNL     1      21.303   2.299  51.578  1.00  0.00     0.100 A 
ENDROOT
BRANCH   7  11
HETATM   11  C9  UNL     1      25.254   3.205  51.350  1.00  0.00     0.032 A 
HETATM   12  C10 UNL     1      26.274   2.808  50.523  1.00  0.00     0.029 A 
HETATM   13  C11 UNL     1      26.743   3.491  49.425  1.00  0.00     0.004 A 
HETATM   14  C12 UNL     1      26.140   4.689  49.115  1.00  0.00     0.024 A 
HETATM   15  C13 UNL     1      25.110   5.134  49.916  1.00  0.00     0.036 A 
HETATM   16 CL1  UNL     1      24.426   6.672  49.415  1.00  0.00    -0.084 Cl
HETATM   17  C14 UNL     1      24.678   4.408  51.008  1.00  0.00     0.053 A 
ENDBRANCH   7  11
BRANCH   5  18
HETATM   18  C7  UNL     1      26.218  -0.592  53.807  1.00  0.00     0.174 C 
HETATM   19  O2  UNL     1      26.635  -1.606  53.194  1.00  0.00    -0.646 OA
BRANCH  18  20
HETATM   20  O3  UNL     1      26.844  -0.367  55.039  1.00  0.00    -0.773 OA
HETATM   21  H5  UNL     1      26.647   0.472  55.594  1.00  0.00     0.167 HD
ENDBRANCH  18  20
ENDBRANCH   5  18
BRANCH  10  22
HETATM   22  O4  UNL     1      20.323   3.004  50.881  1.00  0.00    -0.353 OA
HETATM   23  C18 UNL     1      19.291   3.675  51.565  1.00  0.00     0.210 C 
ENDBRANCH  10  22
BRANCH   1  24
HETATM   24  O1  UNL     1      20.057   0.235  51.040  1.00  0.00    -0.353 OA
HETATM   25  C1  UNL     1      18.973  -0.075  51.930  1.00  0.00     0.210 C 
ENDBRANCH   1  24
TORSDOF 5
ENDMDL
MODEL 6
REMARK VINA RESULT:      -7.2      2.432      5.039
REMARK  5 active torsions:
REMARK  status: ('A' for Active; 'I' for Inactive)
REMARK    1  A    between atoms: O1_2  and  C2_3 
REMARK    2  A    between atoms: C6_7  and  C7_8 
REMARK    3  A    between atoms: C7_8  and  O3_10 
REMARK    4  A    between atoms: N1_12  and  C9_13 
REMARK    5  A    between atoms: C17_22  and  O4_23 
ROOT
HETATM    1  C2  UNL     1      22.948   4.336  51.289  1.00  0.00     0.101 A 
HETATM    2  C3  UNL     1      24.241   4.300  51.569  1.00  0.00     0.050 A 
HETATM    3  C4  UNL     1      24.817   2.962  51.528  1.00  0.00    -0.017 A 
HETATM    4  C5  UNL     1      26.096   2.839  51.799  1.00  0.00    -0.001 C 
HETATM    5  C6  UNL     1      26.553   1.763  52.316  1.00  0.00     0.045 C 
HETATM    6  C8  UNL     1      25.896   0.433  52.179  1.00  0.00     0.170 C 
HETATM    7  N1  UNL     1      24.446   0.684  52.228  1.00  0.00    -0.364 N 
HETATM    8  C15 UNL     1      24.170   1.653  51.212  1.00  0.00     0.145 A 
HETATM    9  C16 UNL     1      22.758   1.922  50.939  1.00  0.00     0.042 A 
HETATM   10  C17 UNL     1      22.194   3.143  50.971  1.00  0.00     0.100 A 
ENDROOT
BRANCH   7  11
HETATM   11  C9  UNL     1      23.596   0.010  53.140  1.00  0.00     0.032 A 
HETATM   12  C10 UNL     1      23.962  -0.611  54.307  1.00  0.00     0.029 A 
HETATM   13  C11 UNL     1      23.119  -1.246  55.189  1.00  0.00     0.004 A 
HETATM   14  C12 UNL     1      21.777  -1.267  54.885  1.00  0.00     0.024 A 
HETATM   15  C13 UNL     1      21.356  -0.657  53.721  1.00  0.00     0.036 A 
HETATM   16 CL1  UNL     1      19.624  -0.753  53.448  1.00  0.00    -0.084 Cl
HETATM   17  C14 UNL     1      22.246  -0.034  52.870  1.00  0.00     0.053 A 
ENDBRANCH   7  11
BRANCH   5  18
HETATM   18  C7  UNL     1      27.809   1.915  53.081  1.00  0.00     0.174 C 
HETATM   19  O2  UNL     1      28.976   1.452  53.047  1.00  0.00    -0.646 OA
BRANCH  18  20
HETATM   20  O3  UNL     1      27.587   2.836  54.112  1.00  0.00    -0.773 OA
HETATM   21  H5  UNL     1      28.182   3.662  54.230  1.00  0.00     0.167 HD
ENDBRANCH  18  20
ENDBRANCH   5  18
BRANCH  10  22
HETATM   22  O4  UNL     1      20.840   3.330  50.698  1.00  0.00    -0.353 OA
HETATM   23  C18 UNL     1      19.885   2.374  51.092  1.00  0.00     0.210 C 
ENDBRANCH  10  22
BRANCH   1  24
HETATM   24  O1  UNL     1      22.358   5.584  51.316  1.00  0.00    -0.353 OA
HETATM   25  C1  UNL     1      23.149   6.634  50.738  1.00  0.00     0.210 C 
ENDBRANCH   1  24
TORSDOF 5
ENDMDL
MODEL 7
REMARK VINA RESULT:      -7.1      3.129      5.683
REMARK  5 active torsions:
REMARK  status: ('A' for Active; 'I' for Inactive)
REMARK    1  A    between atoms: O1_2  and  C2_3 
REMARK    2  A    between atoms: C6_7  and  C7_8 
REMARK    3  A    between atoms: C7_8  and  O3_10 
REMARK    4  A    between atoms: N1_12  and  C9_13 
REMARK    5  A    between atoms: C17_22  and  O4_23 
ROOT
HETATM    1  C2  UNL     1      21.262   0.322  52.934  1.00  0.00     0.101 A 
HETATM    2  C3  UNL     1      22.567   0.259  53.145  1.00  0.00     0.050 A 
HETATM    3  C4  UNL     1      23.284   1.472  52.773  1.00  0.00    -0.017 A 
HETATM    4  C5  UNL     1      24.586   1.489  52.946  1.00  0.00    -0.001 C 
HETATM    5  C6  UNL     1      25.334   2.202  52.194  1.00  0.00     0.045 C 
HETATM    6  C8  UNL     1      24.867   3.416  51.468  1.00  0.00     0.170 C 
HETATM    7  N1  UNL     1      23.491   3.128  51.031  1.00  0.00    -0.364 N 
HETATM    8  C15 UNL     1      22.765   2.752  52.206  1.00  0.00     0.145 A 
HETATM    9  C16 UNL     1      21.317   2.604  52.054  1.00  0.00     0.042 A 
HETATM   10  C17 UNL     1      20.625   1.499  52.384  1.00  0.00     0.100 A 
ENDROOT
BRANCH   7  11
HETATM   11  C9  UNL     1      23.087   3.260  49.679  1.00  0.00     0.032 A 
HETATM   12  C10 UNL     1      22.698   2.254  48.831  1.00  0.00     0.029 A 
HETATM   13  C11 UNL     1      22.293   2.403  47.525  1.00  0.00     0.004 A 
HETATM   14  C12 UNL     1      22.270   3.678  47.007  1.00  0.00     0.024 A 
HETATM   15  C13 UNL     1      22.653   4.725  47.818  1.00  0.00     0.036 A 
HETATM   16 CL1  UNL     1      22.579   6.298  47.041  1.00  0.00    -0.084 Cl
HETATM   17  C14 UNL     1      23.052   4.519  49.123  1.00  0.00     0.053 A 
ENDBRANCH   7  11
BRANCH   5  18
HETATM   18  C7  UNL     1      26.736   1.741  52.082  1.00  0.00     0.174 C 
HETATM   19  O2  UNL     1      27.359   0.652  52.131  1.00  0.00    -0.646 OA
BRANCH  18  20
HETATM   20  O3  UNL     1      27.548   2.860  51.861  1.00  0.00    -0.773 OA
HETATM   21  H5  UNL     1      27.147   3.789  51.697  1.00  0.00     0.167 HD
ENDBRANCH  18  20
ENDBRANCH   5  18
BRANCH  10  22
HETATM   22  O4  UNL     1      19.243   1.424  52.215  1.00  0.00    -0.353 OA
HETATM   23  C18 UNL     1      18.537   2.459  51.575  1.00  0.00     0.210 C 
ENDBRANCH  10  22
BRANCH   1  24
HETATM   24  O1  UNL     1      20.539  -0.805  53.272  1.00  0.00    -0.353 OA
HETATM   25  C1  UNL     1      21.016  -1.496  54.438  1.00  0.00     0.210 C 
ENDBRANCH   1  24
TORSDOF 5
ENDMDL
MODEL 8
REMARK VINA RESULT:      -7.0      3.039      5.542
REMARK  5 active torsions:
REMARK  status: ('A' for Active; 'I' for Inactive)
REMARK    1  A    between atoms: O1_2  and  C2_3 
REMARK    2  A    between atoms: C6_7  and  C7_8 
REMARK    3  A    between atoms: C7_8  and  O3_10 
REMARK    4  A    between atoms: N1_12  and  C9_13 
REMARK    5  A    between atoms: C17_22  and  O4_23 
ROOT
HETATM    1  C2  UNL     1      20.059   0.288  52.401  1.00  0.00     0.101 A 
HETATM    2  C3  UNL     1      21.165  -0.351  52.746  1.00  0.00     0.050 A 
HETATM    3  C4  UNL     1      22.292   0.529  53.029  1.00  0.00    -0.017 A 
HETATM    4  C5  UNL     1      23.429  -0.027  53.374  1.00  0.00    -0.001 C 
HETATM    5  C6  UNL     1      24.542   0.544  53.110  1.00  0.00     0.045 C 
HETATM    6  C8  UNL     1      24.694   2.012  52.909  1.00  0.00     0.170 C 
HETATM    7  N1  UNL     1      23.482   2.458  52.202  1.00  0.00    -0.364 N 
HETATM    8  C15 UNL     1      22.371   2.021  52.992  1.00  0.00     0.145 A 
HETATM    9  C16 UNL     1      21.054   2.515  52.589  1.00  0.00     0.042 A 
HETATM   10  C17 UNL     1      19.995   1.731  52.318  1.00  0.00     0.100 A 
ENDROOT
BRANCH   7  11
HETATM   11  C9  UNL     1      23.543   3.192  50.992  1.00  0.00     0.032 A 
HETATM   12  C10 UNL     1      24.096   4.435  50.806  1.00  0.00     0.029 A 
HETATM   13  C11 UNL     1      24.161   5.125  49.618  1.00  0.00     0.004 A 
HETATM   14  C12 UNL     1      23.626   4.524  48.501  1.00  0.00     0.024 A 
HETATM   15  C13 UNL     1      23.057   3.275  48.635  1.00  0.00     0.036 A 
HETATM   16 CL1  UNL     1      22.412   2.618  47.140  1.00  0.00    -0.084 Cl
HETATM   17  C14 UNL     1      23.017   2.626  49.853  1.00  0.00     0.053 A 
ENDBRANCH   7  11
BRANCH   5  18
HETATM   18  C7  UNL     1      25.708  -0.361  53.011  1.00  0.00     0.174 C 
HETATM   19  O2  UNL     1      26.197  -1.315  53.665  1.00  0.00    -0.646 OA
BRANCH  18  20
HETATM   20  O3  UNL     1      26.429  -0.022  51.860  1.00  0.00    -0.773 OA
HETATM   21  H5  UNL     1      26.721   0.944  51.676  1.00  0.00     0.167 HD
ENDBRANCH  18  20
ENDBRANCH   5  18
BRANCH  10  22
HETATM   22  O4  UNL     1      18.765   2.268  51.941  1.00  0.00    -0.353 OA
HETATM   23  C18 UNL     1      18.679   3.564  51.397  1.00  0.00     0.210 C 
ENDBRANCH  10  22
BRANCH   1  24
HETATM   24  O1  UNL     1      18.963  -0.505  52.123  1.00  0.00    -0.353 OA
HETATM   25  C1  UNL     1      18.367  -1.128  53.272  1.00  0.00     0.210 C 
ENDBRANCH   1  24
TORSDOF 5
ENDMDL
MODEL 9
REMARK VINA RESULT:      -6.8      2.563      4.548
REMARK  5 active torsions:
REMARK  status: ('A' for Active; 'I' for Inactive)
REMARK    1  A    between atoms: O1_2  and  C2_3 
REMARK    2  A    between atoms: C6_7  and  C7_8 
REMARK    3  A    between atoms: C7_8  and  O3_10 
REMARK    4  A    between atoms: N1_12  and  C9_13 
REMARK    5  A    between atoms: C17_22  and  O4_23 
ROOT
HETATM    1  C2  UNL     1      24.610   5.077  49.301  1.00  0.00     0.101 A 
HETATM    2  C3  UNL     1      25.655   4.760  50.049  1.00  0.00     0.050 A 
HETATM    3  C4  UNL     1      25.664   3.370  50.490  1.00  0.00    -0.017 A 
HETATM    4  C5  UNL     1      26.666   2.975  51.241  1.00  0.00    -0.001 C 
HETATM    5  C6  UNL     1      26.511   2.033  52.091  1.00  0.00     0.045 C 
HETATM    6  C8  UNL     1      25.466   0.978  51.981  1.00  0.00     0.170 C 
HETATM    7  N1  UNL     1      24.271   1.640  51.430  1.00  0.00    -0.364 N 
HETATM    8  C15 UNL     1      24.685   2.275  50.216  1.00  0.00     0.145 A 
HETATM    9  C16 UNL     1      23.623   2.841  49.385  1.00  0.00     0.042 A 
HETATM   10  C17 UNL     1      23.583   4.117  48.963  1.00  0.00     0.100 A 
ENDROOT
BRANCH   7  11
HETATM   11  C9  UNL     1      23.008   1.565  52.067  1.00  0.00     0.032 A 
HETATM   12  C10 UNL     1      22.032   2.529  52.084  1.00  0.00     0.029 A 
HETATM   13  C11 UNL     1      20.803   2.432  52.695  1.00  0.00     0.004 A 
HETATM   14  C12 UNL     1      20.511   1.259  53.354  1.00  0.00     0.024 A 
HETATM   15  C13 UNL     1      21.459   0.258  53.367  1.00  0.00     0.036 A 
HETATM   16 CL1  UNL     1      20.965  -1.184  54.240  1.00  0.00    -0.084 Cl
HETATM   17  C14 UNL     1      22.678   0.409  52.739  1.00  0.00     0.053 A 
ENDBRANCH   7  11
BRANCH   5  18
HETATM   18  C7  UNL     1      27.458   2.048  53.228  1.00  0.00     0.174 C 
HETATM   19  O2  UNL     1      27.542   1.533  54.370  1.00  0.00    -0.646 OA
BRANCH  18  20
HETATM   20  O3  UNL     1      28.536   2.875  52.889  1.00  0.00    -0.773 OA
HETATM   21  H5  UNL     1      29.488   2.672  53.213  1.00  0.00     0.167 HD
ENDBRANCH  18  20
ENDBRANCH   5  18
BRANCH  10  22
HETATM   22  O4  UNL     1      22.539   4.592  48.169  1.00  0.00    -0.353 OA
HETATM   23  C18 UNL     1      21.627   3.704  47.569  1.00  0.00     0.210 C 
ENDBRANCH  10  22
BRANCH   1  24
HETATM   24  O1  UNL     1      24.558   6.385  48.860  1.00  0.00    -0.353 OA
HETATM   25  C1  UNL     1      25.150   7.343  49.751  1.00  0.00     0.210 C 
ENDBRANCH   1  24
TORSDOF 5
ENDMDL
