MODEL 1
REMARK VINA RESULT:      -8.3      0.000      0.000
REMARK  7 active torsions:
REMARK  status: ('A' for Active; 'I' for Inactive)
REMARK    1  A    between atoms: O1_2  and  C2_3 
REMARK    2  A    between atoms: C6_7  and  C7_8 
REMARK    3  A    between atoms: C14_17  and  N1_18 
REMARK    4  A    between atoms: N1_18  and  C15_19 
REMARK    5  A    between atoms: C15_19  and  N2_20 
REMARK    6  A    between atoms: C15_19  and  C16_21 
REMARK    7  A    between atoms: C17_22  and  C18_23 
ROOT
HETATM    1  C2  UNL     1      20.148  -0.471  52.937  1.00  0.00     0.092 A 
HETATM    2  C3  UNL     1      20.433  -1.157  54.030  1.00  0.00     0.017 A 
HETATM    3  C4  UNL     1      21.758  -1.298  54.682  1.00  0.00     0.070 A 
HETATM    4  C5  UNL     1      22.787  -0.560  53.954  1.00  0.00    -0.029 A 
HETATM    5  C6  UNL     1      23.828   0.090  53.359  1.00  0.00    -0.005 A 
HETATM    6  C13 UNL     1      22.513   0.212  52.742  1.00  0.00     0.012 A 
HETATM    7  C14 UNL     1      21.268   0.230  52.297  1.00  0.00     0.075 A 
ENDROOT
BRANCH   7   8
HETATM    8  N1  UNL     1      21.064   0.999  51.124  1.00  0.00    -0.355 N 
HETATM    9  H10 UNL     1      20.367   1.763  51.379  1.00  0.00     0.162 HD
BRANCH   8  10
HETATM   10  C15 UNL     1      21.537   1.010  49.747  1.00  0.00     0.340 C 
BRANCH  10  11
HETATM   11  N2  UNL     1      20.337   1.264  48.934  1.00  0.00     0.104 N 
HETATM   12  H12 UNL     1      19.550   0.807  49.488  1.00  0.00     0.315 HD
HETATM   13  H13 UNL     1      20.391   0.689  48.048  1.00  0.00     0.315 HD
ENDBRANCH  10  11
BRANCH  10  14
HETATM   14  C16 UNL     1      22.457   2.155  49.512  1.00  0.00     0.026 C 
HETATM   15  C17 UNL     1      23.457   2.557  50.271  1.00  0.00    -0.019 C 
BRANCH  15  16
HETATM   16  C18 UNL     1      24.335   3.696  49.990  1.00  0.00    -0.034 C 
HETATM   17  C19 UNL     1      23.786   4.455  48.791  1.00  0.00     0.018 C 
HETATM   18  C20 UNL     1      24.372   4.698  51.129  1.00  0.00     0.018 C 
HETATM   19  C21 UNL     1      25.756   3.345  49.661  1.00  0.00     0.018 C 
ENDBRANCH  15  16
ENDBRANCH  10  14
ENDBRANCH   8  10
ENDBRANCH   7   8
BRANCH   1  20
HETATM   20  O1  UNL     1      18.887  -0.351  52.339  1.00  0.00    -0.354 OA
HETATM   21  C1  UNL     1      17.759  -1.028  52.878  1.00  0.00     0.210 C 
ENDBRANCH   1  20
BRANCH   5  22
HETATM   22  C7  UNL     1      25.228   0.475  53.282  1.00  0.00    -0.023 A 
HETATM   23  C8  UNL     1      25.651   1.807  53.203  1.00  0.00     0.015 A 
HETATM   24  C9  UNL     1      26.996   2.101  53.138  1.00  0.00     0.045 A 
HETATM   25  C10 UNL     1      27.911   1.090  53.151  1.00  0.00     0.138 A 
HETATM   26  F1  UNL     1      29.239   1.366  53.087  1.00  0.00    -0.204 F 
HETATM   27  C11 UNL     1      27.567  -0.236  53.226  1.00  0.00     0.073 A 
HETATM   28 CL1  UNL     1      28.763  -1.522  53.241  1.00  0.00    -0.081 Cl
HETATM   29  C12 UNL     1      26.219  -0.514  53.290  1.00  0.00     0.039 A 
ENDBRANCH   5  22
TORSDOF 7
ENDMDL
MODEL 2
REMARK VINA RESULT:      -8.1      3.993      6.320
REMARK  7 active torsions:
REMARK  status: ('A' for Active; 'I' for Inactive)
REMARK    1  A    between atoms: O1_2  and  C2_3 
REMARK    2  A    between atoms: C6_7  and  C7_8 
REMARK    3  A    between atoms: C14_17  and  N1_18 
REMARK    4  A    between atoms: N1_18  and  C15_19 
REMARK    5  A    between atoms: C15_19  and  N2_20 
REMARK    6  A    between atoms: C15_19  and  C16_21 
REMARK    7  A    between atoms: C17_22  and  C18_23 
ROOT
HETATM    1  C2  UNL     1      26.916   1.211  52.727  1.00  0.00     0.092 A 
HETATM    2  C3  UNL     1      27.117  -0.060  53.031  1.00  0.00     0.017 A 
HETATM    3  C4  UNL     1      26.087  -1.090  53.312  1.00  0.00     0.070 A 
HETATM    4  C5  UNL     1      24.741  -0.531  53.217  1.00  0.00    -0.029 A 
HETATM    5  C6  UNL     1      23.441  -0.123  53.156  1.00  0.00    -0.005 A 
HETATM    6  C13 UNL     1      24.476   0.868  52.884  1.00  0.00     0.012 A 
HETATM    7  C14 UNL     1      25.517   1.651  52.661  1.00  0.00     0.075 A 
ENDROOT
BRANCH   7   8
HETATM    8  N1  UNL     1      25.197   2.994  52.336  1.00  0.00    -0.355 N 
HETATM    9  H10 UNL     1      25.094   3.513  53.260  1.00  0.00     0.162 HD
BRANCH   8  10
HETATM   10  C15 UNL     1      24.990   3.792  51.137  1.00  0.00     0.340 C 
BRANCH  10  11
HETATM   11  N2  UNL     1      26.318   3.887  50.509  1.00  0.00     0.104 N 
HETATM   12  H12 UNL     1      26.283   3.168  49.724  1.00  0.00     0.315 HD
HETATM   13  H13 UNL     1      27.044   3.500  51.175  1.00  0.00     0.315 HD
ENDBRANCH  10  11
BRANCH  10  14
HETATM   14  C16 UNL     1      24.116   3.078  50.169  1.00  0.00     0.026 C 
HETATM   15  C17 UNL     1      22.801   3.126  50.079  1.00  0.00    -0.019 C 
BRANCH  15  16
HETATM   16  C18 UNL     1      21.987   2.399  49.102  1.00  0.00    -0.034 C 
HETATM   17  C19 UNL     1      20.612   3.045  49.031  1.00  0.00     0.018 C 
HETATM   18  C20 UNL     1      22.553   2.479  47.696  1.00  0.00     0.018 C 
HETATM   19  C21 UNL     1      21.763   0.947  49.408  1.00  0.00     0.018 C 
ENDBRANCH  15  16
ENDBRANCH  10  14
ENDBRANCH   8  10
ENDBRANCH   7   8
BRANCH   1  20
HETATM   20  O1  UNL     1      27.905   2.167  52.465  1.00  0.00    -0.354 OA
HETATM   21  C1  UNL     1      28.793   2.595  53.489  1.00  0.00     0.210 C 
ENDBRANCH   1  20
BRANCH   5  22
HETATM   22  C7  UNL     1      22.011  -0.366  53.252  1.00  0.00    -0.023 A 
HETATM   23  C8  UNL     1      21.463  -1.413  54.002  1.00  0.00     0.015 A 
HETATM   24  C9  UNL     1      20.095  -1.582  54.054  1.00  0.00     0.045 A 
HETATM   25  C10 UNL     1      19.281  -0.725  53.373  1.00  0.00     0.138 A 
HETATM   26  F1  UNL     1      17.933  -0.881  53.417  1.00  0.00    -0.204 F 
HETATM   27  C11 UNL     1      19.750   0.321  52.620  1.00  0.00     0.073 A 
HETATM   28 CL1  UNL     1      18.683   1.412  51.752  1.00  0.00    -0.081 Cl
HETATM   29  C12 UNL     1      21.119   0.477  52.577  1.00  0.00     0.039 A 
ENDBRANCH   5  22
TORSDOF 7
ENDMDL
MODEL 3
REMARK VINA RESULT:      -7.8      2.066      2.884
REMARK  7 active torsions:
REMARK  status: ('A' for Active; 'I' for Inactive)
REMARK    1  A    between atoms: O1_2  and  C2_3 
REMARK    2  A    between atoms: C6_7  and  C7_8 
REMARK    3  A    between atoms: C14_17  and  N1_18 
REMARK    4  A    between atoms: N1_18  and  C15_19 
REMARK    5  A    between atoms: C15_19  and  N2_20 
REMARK    6  A    between atoms: C15_19  and  C16_21 
REMARK    7  A    between atoms: C17_22  and  C18_23 
ROOT
HETATM    1  C2  UNL     1      21.732   1.259  52.097  1.00  0.00     0.092 A 
HETATM    2  C3  UNL     1      21.503   0.244  52.913  1.00  0.00     0.017 A 
HETATM    3  C4  UNL     1      22.511  -0.600  53.600  1.00  0.00     0.070 A 
HETATM    4  C5  UNL     1      23.869  -0.180  53.267  1.00  0.00    -0.029 A 
HETATM    5  C6  UNL     1      25.178   0.122  53.031  1.00  0.00    -0.005 A 
HETATM    6  C13 UNL     1      24.165   0.936  52.370  1.00  0.00     0.012 A 
HETATM    7  C14 UNL     1      23.141   1.585  51.843  1.00  0.00     0.075 A 
ENDROOT
BRANCH   7   8
HETATM    8  N1  UNL     1      23.491   2.660  50.987  1.00  0.00    -0.355 N 
HETATM    9  H10 UNL     1      23.567   3.526  51.603  1.00  0.00     0.162 HD
BRANCH   8  10
HETATM   10  C15 UNL     1      23.760   2.867  49.572  1.00  0.00     0.340 C 
BRANCH  10  11
HETATM   11  N2  UNL     1      22.462   2.669  48.905  1.00  0.00     0.104 N 
HETATM   12  H12 UNL     1      22.523   1.680  48.514  1.00  0.00     0.315 HD
HETATM   13  H13 UNL     1      22.419   3.281  48.044  1.00  0.00     0.315 HD
ENDBRANCH  10  11
BRANCH  10  14
HETATM   14  C16 UNL     1      24.160   4.274  49.308  1.00  0.00     0.026 C 
HETATM   15  C17 UNL     1      25.380   4.762  49.207  1.00  0.00    -0.019 C 
BRANCH  15  16
HETATM   16  C18 UNL     1      25.719   6.164  48.944  1.00  0.00    -0.034 C 
HETATM   17  C19 UNL     1      25.642   6.940  50.250  1.00  0.00     0.018 C 
HETATM   18  C20 UNL     1      27.141   6.337  48.445  1.00  0.00     0.018 C 
HETATM   19  C21 UNL     1      24.819   6.869  47.973  1.00  0.00     0.018 C 
ENDBRANCH  15  16
ENDBRANCH  10  14
ENDBRANCH   8  10
ENDBRANCH   7   8
BRANCH   1  20
HETATM   20  O1  UNL     1      20.764   2.044  51.459  1.00  0.00    -0.354 OA
HETATM   21  C1  UNL     1      20.072   3.063  52.168  1.00  0.00     0.210 C 
ENDBRANCH   1  20
BRANCH   5  22
HETATM   22  C7  UNL     1      26.602  -0.096  53.222  1.00  0.00    -0.023 A 
HETATM   23  C8  UNL     1      27.241  -1.300  52.902  1.00  0.00     0.015 A 
HETATM   24  C9  UNL     1      28.598  -1.436  53.103  1.00  0.00     0.045 A 
HETATM   25  C10 UNL     1      29.314  -0.394  53.615  1.00  0.00     0.138 A 
HETATM   26  F1  UNL     1      30.651  -0.516  53.818  1.00  0.00    -0.204 F 
HETATM   27  C11 UNL     1      28.753   0.812  53.951  1.00  0.00     0.073 A 
HETATM   28 CL1  UNL     1      29.695   2.140  54.609  1.00  0.00    -0.081 Cl
HETATM   29  C12 UNL     1      27.396   0.933  53.745  1.00  0.00     0.039 A 
ENDBRANCH   5  22
TORSDOF 7
ENDMDL
MODEL 4
REMARK VINA RESULT:      -7.7      3.951      6.544
REMARK  7 active torsions:
REMARK  status: ('A' for Active; 'I' for Inactive)
REMARK    1  A    between atoms: O1_2  and  C2_3 
REMARK    2  A    between atoms: C6_7  and  C7_8 
REMARK    3  A    between atoms: C14_17  and  N1_18 
REMARK    4  A    between atoms: N1_18  and  C15_19 
REMARK    5  A    between atoms: C15_19  and  N2_20 
REMARK    6  A    between atoms: C15_19  and  C16_21 
REMARK    7  A    between atoms: C17_22  and  C18_23 
ROOT
HETATM    1  C2  UNL     1      23.258   5.731  50.570  1.00  0.00     0.092 A 
HETATM    2  C3  UNL     1      21.954   5.943  50.626  1.00  0.00     0.017 A 
HETATM    3  C4  UNL     1      20.919   5.033  51.172  1.00  0.00     0.070 A 
HETATM    4  C5  UNL     1      21.512   3.797  51.673  1.00  0.00    -0.029 A 
HETATM    5  C6  UNL     1      21.952   2.606  52.173  1.00  0.00    -0.005 A 
HETATM    6  C13 UNL     1      22.948   3.522  51.630  1.00  0.00     0.012 A 
HETATM    7  C14 UNL     1      23.732   4.450  51.108  1.00  0.00     0.075 A 
ENDROOT
BRANCH   7   8
HETATM    8  N1  UNL     1      25.113   4.130  51.100  1.00  0.00    -0.355 N 
HETATM    9  H10 UNL     1      25.563   4.705  51.875  1.00  0.00     0.162 HD
BRANCH   8  10
HETATM   10  C15 UNL     1      26.014   3.266  50.351  1.00  0.00     0.340 C 
BRANCH  10  11
HETATM   11  N2  UNL     1      27.074   4.159  49.856  1.00  0.00     0.104 N 
HETATM   12  H12 UNL     1      27.917   3.919  50.462  1.00  0.00     0.315 HD
HETATM   13  H13 UNL     1      26.842   5.154  50.126  1.00  0.00     0.315 HD
ENDBRANCH  10  11
BRANCH  10  14
HETATM   14  C16 UNL     1      26.676   2.283  51.250  1.00  0.00     0.026 C 
HETATM   15  C17 UNL     1      26.104   1.451  52.098  1.00  0.00    -0.019 C 
BRANCH  15  16
HETATM   16  C18 UNL     1      26.807   0.500  52.963  1.00  0.00    -0.034 C 
HETATM   17  C19 UNL     1      26.222   0.584  54.364  1.00  0.00     0.018 C 
HETATM   18  C20 UNL     1      26.617  -0.940  52.523  1.00  0.00     0.018 C 
HETATM   19  C21 UNL     1      28.283   0.730  53.101  1.00  0.00     0.018 C 
ENDBRANCH  15  16
ENDBRANCH  10  14
ENDBRANCH   8  10
ENDBRANCH   7   8
BRANCH   1  20
HETATM   20  O1  UNL     1      24.219   6.606  50.049  1.00  0.00    -0.354 OA
HETATM   21  C1  UNL     1      24.454   6.679  48.649  1.00  0.00     0.210 C 
ENDBRANCH   1  20
BRANCH   5  22
HETATM   22  C7  UNL     1      21.730   1.316  52.804  1.00  0.00    -0.023 A 
HETATM   23  C8  UNL     1      22.750   0.578  53.416  1.00  0.00     0.015 A 
HETATM   24  C9  UNL     1      22.468  -0.637  54.002  1.00  0.00     0.045 A 
HETATM   25  C10 UNL     1      21.191  -1.117  53.982  1.00  0.00     0.138 A 
HETATM   26  F1  UNL     1      20.900  -2.313  54.555  1.00  0.00    -0.204 F 
HETATM   27  C11 UNL     1      20.144  -0.449  53.400  1.00  0.00     0.073 A 
HETATM   28 CL1  UNL     1      18.508  -1.087  53.386  1.00  0.00    -0.081 Cl
HETATM   29  C12 UNL     1      20.443   0.764  52.819  1.00  0.00     0.039 A 
ENDBRANCH   5  22
TORSDOF 7
ENDMDL
MODEL 5
REMARK VINA RESULT:      -7.6      2.153      2.887
REMARK  7 active torsions:
REMARK  status: ('A' for Active; 'I' for Inactive)
REMARK    1  A    between atoms: O1_2  and  C2_3 
REMARK    2  A    between atoms: C6_7  and  C7_8 
REMARK    3  A    between atoms: C14_17  and  N1_18 
REMARK    4  A    between atoms: N1_18  and  C15_19 
REMARK    5  A    between atoms: C15_19  and  N2_20 
REMARK    6  A    between atoms: C15_19  and  C16_21 
REMARK    7  A    between atoms: C17_22  and  C18_23 
ROOT
HETATM    1  C2  UNL     1      20.140   2.480  52.092  1.00  0.00     0.092 A 
HETATM    2  C3  UNL     1      19.981   1.181  51.903  1.00  0.00     0.017 A 
HETATM    3  C4  UNL     1      21.018   0.125  52.006  1.00  0.00     0.070 A 
HETATM    4  C5  UNL     1      22.317   0.692  52.356  1.00  0.00    -0.029 A 
HETATM    5  C6  UNL     1      23.575   1.106  52.680  1.00  0.00    -0.005 A 
HETATM    6  C13 UNL     1      22.535   2.122  52.573  1.00  0.00     0.012 A 
HETATM    7  C14 UNL     1      21.494   2.926  52.442  1.00  0.00     0.075 A 
ENDROOT
BRANCH   7   8
HETATM    8  N1  UNL     1      21.766   4.298  52.671  1.00  0.00    -0.355 N 
HETATM    9  H10 UNL     1      20.988   4.661  53.301  1.00  0.00     0.162 HD
BRANCH   8  10
HETATM   10  C15 UNL     1      22.777   5.274  52.290  1.00  0.00     0.340 C 
BRANCH  10  11
HETATM   11  N2  UNL     1      23.750   5.264  53.394  1.00  0.00     0.104 N 
HETATM   12  H12 UNL     1      23.375   4.522  54.060  1.00  0.00     0.315 HD
HETATM   13  H13 UNL     1      23.661   6.165  53.942  1.00  0.00     0.315 HD
ENDBRANCH  10  11
BRANCH  10  14
HETATM   14  C16 UNL     1      23.511   4.832  51.076  1.00  0.00     0.026 C 
HETATM   15  C17 UNL     1      24.746   4.375  50.999  1.00  0.00    -0.019 C 
BRANCH  15  16
HETATM   16  C18 UNL     1      25.423   3.951  49.771  1.00  0.00    -0.034 C 
HETATM   17  C19 UNL     1      26.506   2.946  50.129  1.00  0.00     0.018 C 
HETATM   18  C20 UNL     1      24.494   3.232  48.811  1.00  0.00     0.018 C 
HETATM   19  C21 UNL     1      26.095   5.048  48.999  1.00  0.00     0.018 C 
ENDBRANCH  15  16
ENDBRANCH  10  14
ENDBRANCH   8  10
ENDBRANCH   7   8
BRANCH   1  20
HETATM   20  O1  UNL     1      19.145   3.460  51.991  1.00  0.00    -0.354 OA
HETATM   21  C1  UNL     1      17.858   3.139  51.480  1.00  0.00     0.210 C 
ENDBRANCH   1  20
BRANCH   5  22
HETATM   22  C7  UNL     1      24.979   0.854  52.962  1.00  0.00    -0.023 A 
HETATM   23  C8  UNL     1      25.841   1.829  53.479  1.00  0.00     0.015 A 
HETATM   24  C9  UNL     1      27.161   1.519  53.730  1.00  0.00     0.045 A 
HETATM   25  C10 UNL     1      27.622   0.262  53.472  1.00  0.00     0.138 A 
HETATM   26  F1  UNL     1      28.920  -0.056  53.715  1.00  0.00    -0.204 F 
HETATM   27  C11 UNL     1      26.834  -0.741  52.966  1.00  0.00     0.073 A 
HETATM   28 CL1  UNL     1      27.449  -2.353  52.643  1.00  0.00    -0.081 Cl
HETATM   29  C12 UNL     1      25.517  -0.416  52.721  1.00  0.00     0.039 A 
ENDBRANCH   5  22
TORSDOF 7
ENDMDL
MODEL 6
REMARK VINA RESULT:      -7.6      8.360     10.913
REMARK  7 active torsions:
REMARK  status: ('A' for Active; 'I' for Inactive)
REMARK    1  A    between atoms: O1_2  and  C2_3 
REMARK    2  A    between atoms: C6_7  and  C7_8 
REMARK    3  A    between atoms: C14_17  and  N1_18 
REMARK    4  A    between atoms: N1_18  and  C15_19 
REMARK    5  A    between atoms: C15_19  and  N2_20 
REMARK    6  A    between atoms: C15_19  and  C16_21 
REMARK    7  A    between atoms: C17_22  and  C18_23 
ROOT
HETATM    1  C2  UNL     1      27.320   7.542  48.412  1.00  0.00     0.092 A 
HETATM    2  C3  UNL     1      26.851   6.332  48.662  1.00  0.00     0.017 A 
HETATM    3  C4  UNL     1      27.599   5.052  48.617  1.00  0.00     0.070 A 
HETATM    4  C5  UNL     1      28.994   5.267  48.244  1.00  0.00    -0.029 A 
HETATM    5  C6  UNL     1      30.312   5.346  47.906  1.00  0.00    -0.005 A 
HETATM    6  C13 UNL     1      29.553   6.588  47.959  1.00  0.00     0.012 A 
HETATM    7  C14 UNL     1      28.740   7.628  48.049  1.00  0.00     0.075 A 
ENDROOT
BRANCH   7   8
HETATM    8  N1  UNL     1      29.340   8.881  47.768  1.00  0.00    -0.355 N 
HETATM    9  H10 UNL     1      29.104   9.110  46.755  1.00  0.00     0.162 HD
BRANCH   8  10
HETATM   10  C15 UNL     1      30.142   9.873  48.470  1.00  0.00     0.340 C 
BRANCH  10  11
HETATM   11  N2  UNL     1      30.106   9.460  49.883  1.00  0.00     0.104 N 
HETATM   12  H12 UNL     1      29.071   9.304  50.079  1.00  0.00     0.315 HD
HETATM   13  H13 UNL     1      30.358  10.288  50.491  1.00  0.00     0.315 HD
ENDBRANCH  10  11
BRANCH  10  14
HETATM   14  C16 UNL     1      31.565   9.802  48.045  1.00  0.00     0.026 C 
HETATM   15  C17 UNL     1      32.171   8.817  47.413  1.00  0.00    -0.019 C 
BRANCH  15  16
HETATM   16  C18 UNL     1      33.582   8.800  47.017  1.00  0.00    -0.034 C 
HETATM   17  C19 UNL     1      33.782   7.727  45.958  1.00  0.00     0.018 C 
HETATM   18  C20 UNL     1      34.023  10.101  46.374  1.00  0.00     0.018 C 
HETATM   19  C21 UNL     1      34.554   8.498  48.120  1.00  0.00     0.018 C 
ENDBRANCH  15  16
ENDBRANCH  10  14
ENDBRANCH   8  10
ENDBRANCH   7   8
BRANCH   1  20
HETATM   20  O1  UNL     1      26.595   8.739  48.462  1.00  0.00    -0.354 OA
HETATM   21  C1  UNL     1      26.320   9.371  49.705  1.00  0.00     0.210 C 
ENDBRANCH   1  20
BRANCH   5  22
HETATM   22  C7  UNL     1      31.613   4.747  47.653  1.00  0.00    -0.023 A 
HETATM   23  C8  UNL     1      31.817   3.731  46.711  1.00  0.00     0.015 A 
HETATM   24  C9  UNL     1      33.079   3.213  46.517  1.00  0.00     0.045 A 
HETATM   25  C10 UNL     1      34.127   3.693  47.247  1.00  0.00     0.138 A 
HETATM   26  F1  UNL     1      35.376   3.190  47.065  1.00  0.00    -0.204 F 
HETATM   27  C11 UNL     1      34.000   4.685  48.185  1.00  0.00     0.073 A 
HETATM   28 CL1  UNL     1      35.363   5.288  49.112  1.00  0.00    -0.081 Cl
HETATM   29  C12 UNL     1      32.732   5.193  48.367  1.00  0.00     0.039 A 
ENDBRANCH   5  22
TORSDOF 7
ENDMDL
MODEL 7
REMARK VINA RESULT:      -7.6      4.215      6.358
REMARK  7 active torsions:
REMARK  status: ('A' for Active; 'I' for Inactive)
REMARK    1  A    between atoms: O1_2  and  C2_3 
REMARK    2  A    between atoms: C6_7  and  C7_8 
REMARK    3  A    between atoms: C14_17  and  N1_18 
REMARK    4  A    between atoms: N1_18  and  C15_19 
REMARK    5  A    between atoms: C15_19  and  N2_20 
REMARK    6  A    between atoms: C15_19  and  C16_21 
REMARK    7  A    between atoms: C17_22  and  C18_23 
ROOT
HETATM    1  C2  UNL     1      26.032   1.524  53.893  1.00  0.00     0.092 A 
HETATM    2  C3  UNL     1      25.922   0.285  54.339  1.00  0.00     0.017 A 
HETATM    3  C4  UNL     1      24.765  -0.628  54.176  1.00  0.00     0.070 A 
HETATM    4  C5  UNL     1      23.686   0.012  53.428  1.00  0.00    -0.029 A 
HETATM    5  C6  UNL     1      22.616   0.505  52.742  1.00  0.00    -0.005 A 
HETATM    6  C13 UNL     1      23.768   1.380  52.917  1.00  0.00     0.012 A 
HETATM    7  C14 UNL     1      24.880   2.055  53.154  1.00  0.00     0.075 A 
ENDROOT
BRANCH   7   8
HETATM    8  N1  UNL     1      24.903   3.372  52.629  1.00  0.00    -0.355 N 
HETATM    9  H10 UNL     1      25.832   3.801  52.925  1.00  0.00     0.162 HD
BRANCH   8  10
HETATM   10  C15 UNL     1      24.036   4.230  51.834  1.00  0.00     0.340 C 
BRANCH  10  11
HETATM   11  N2  UNL     1      23.692   5.351  52.723  1.00  0.00     0.104 N 
HETATM   12  H12 UNL     1      24.519   6.017  52.628  1.00  0.00     0.315 HD
HETATM   13  H13 UNL     1      23.744   5.025  53.728  1.00  0.00     0.315 HD
ENDBRANCH  10  11
BRANCH  10  14
HETATM   14  C16 UNL     1      24.777   4.814  50.685  1.00  0.00     0.026 C 
HETATM   15  C17 UNL     1      25.007   6.088  50.435  1.00  0.00    -0.019 C 
BRANCH  15  16
HETATM   16  C18 UNL     1      25.746   6.610  49.282  1.00  0.00    -0.034 C 
HETATM   17  C19 UNL     1      26.703   5.538  48.786  1.00  0.00     0.018 C 
HETATM   18  C20 UNL     1      24.841   6.931  48.106  1.00  0.00     0.018 C 
HETATM   19  C21 UNL     1      26.573   7.832  49.551  1.00  0.00     0.018 C 
ENDBRANCH  15  16
ENDBRANCH  10  14
ENDBRANCH   8  10
ENDBRANCH   7   8
BRANCH   1  20
HETATM   20  O1  UNL     1      27.136   2.370  54.059  1.00  0.00    -0.354 OA
HETATM   21  C1  UNL     1      28.329   2.163  53.313  1.00  0.00     0.210 C 
ENDBRANCH   1  20
BRANCH   5  22
HETATM   22  C7  UNL     1      21.282   0.379  52.177  1.00  0.00    -0.023 A 
HETATM   23  C8  UNL     1      20.943   0.858  50.906  1.00  0.00     0.015 A 
HETATM   24  C9  UNL     1      19.659   0.700  50.429  1.00  0.00     0.045 A 
HETATM   25  C10 UNL     1      18.723   0.076  51.200  1.00  0.00     0.138 A 
HETATM   26  F1  UNL     1      17.455  -0.087  50.742  1.00  0.00    -0.204 F 
HETATM   27  C11 UNL     1      18.986  -0.417  52.453  1.00  0.00     0.073 A 
HETATM   28 CL1  UNL     1      17.765  -1.218  53.428  1.00  0.00    -0.081 Cl
HETATM   29  C12 UNL     1      20.273  -0.251  52.916  1.00  0.00     0.039 A 
ENDBRANCH   5  22
TORSDOF 7
ENDMDL
MODEL 8
REMARK VINA RESULT:      -7.5      3.377      4.712
REMARK  7 active torsions:
REMARK  status: ('A' for Active; 'I' for Inactive)
REMARK    1  A    between atoms: O1_2  and  C2_3 
REMARK    2  A    between atoms: C6_7  and  C7_8 
REMARK    3  A    between atoms: C14_17  and  N1_18 
REMARK    4  A    between atoms: N1_18  and  C15_19 
REMARK    5  A    between atoms: C15_19  and  N2_20 
REMARK    6  A    between atoms: C15_19  and  C16_21 
REMARK    7  A    between atoms: C17_22  and  C18_23 
ROOT
HETATM    1  C2  UNL     1      23.113   3.155  50.474  1.00  0.00     0.092 A 
HETATM    2  C3  UNL     1      22.477   2.370  51.327  1.00  0.00     0.017 A 
HETATM    3  C4  UNL     1      23.079   1.413  52.286  1.00  0.00     0.070 A 
HETATM    4  C5  UNL     1      24.536   1.416  52.193  1.00  0.00    -0.029 A 
HETATM    5  C6  UNL     1      25.897   1.334  52.196  1.00  0.00    -0.005 A 
HETATM    6  C13 UNL     1      25.278   2.268  51.265  1.00  0.00     0.012 A 
HETATM    7  C14 UNL     1      24.579   3.068  50.477  1.00  0.00     0.075 A 
ENDROOT
BRANCH   7   8
HETATM    8  N1  UNL     1      25.353   3.873  49.604  1.00  0.00    -0.355 N 
HETATM    9  H10 UNL     1      25.945   3.207  49.022  1.00  0.00     0.162 HD
BRANCH   8  10
HETATM   10  C15 UNL     1      25.529   5.290  49.318  1.00  0.00     0.340 C 
BRANCH  10  11
HETATM   11  N2  UNL     1      25.407   5.960  50.623  1.00  0.00     0.104 N 
HETATM   12  H12 UNL     1      26.407   6.242  50.861  1.00  0.00     0.315 HD
HETATM   13  H13 UNL     1      25.164   5.241  51.360  1.00  0.00     0.315 HD
ENDBRANCH  10  11
BRANCH  10  14
HETATM   14  C16 UNL     1      26.905   5.565  48.829  1.00  0.00     0.026 C 
HETATM   15  C17 UNL     1      27.426   6.729  48.494  1.00  0.00    -0.019 C 
BRANCH  15  16
HETATM   16  C18 UNL     1      28.794   6.944  48.015  1.00  0.00    -0.034 C 
HETATM   17  C19 UNL     1      28.738   7.514  46.606  1.00  0.00     0.018 C 
HETATM   18  C20 UNL     1      29.548   7.969  48.843  1.00  0.00     0.018 C 
HETATM   19  C21 UNL     1      29.650   5.714  47.946  1.00  0.00     0.018 C 
ENDBRANCH  15  16
ENDBRANCH  10  14
ENDBRANCH   8  10
ENDBRANCH   7   8
BRANCH   1  20
HETATM   20  O1  UNL     1      22.524   4.054  49.576  1.00  0.00    -0.354 OA
HETATM   21  C1  UNL     1      21.925   3.592  48.373  1.00  0.00     0.210 C 
ENDBRANCH   1  20
BRANCH   5  22
HETATM   22  C7  UNL     1      27.152   0.791  52.692  1.00  0.00    -0.023 A 
HETATM   23  C8  UNL     1      28.193   1.593  53.176  1.00  0.00     0.015 A 
HETATM   24  C9  UNL     1      29.354   1.011  53.638  1.00  0.00     0.045 A 
HETATM   25  C10 UNL     1      29.484  -0.347  53.620  1.00  0.00     0.138 A 
HETATM   26  F1  UNL     1      30.624  -0.932  54.072  1.00  0.00    -0.204 F 
HETATM   27  C11 UNL     1      28.506  -1.191  53.160  1.00  0.00     0.073 A 
HETATM   28 CL1  UNL     1      28.696  -2.937  53.147  1.00  0.00    -0.081 Cl
HETATM   29  C12 UNL     1      27.351  -0.595  52.702  1.00  0.00     0.039 A 
ENDBRANCH   5  22
TORSDOF 7
ENDMDL
MODEL 9
REMARK VINA RESULT:      -7.5      4.030      6.279
REMARK  7 active torsions:
REMARK  status: ('A' for Active; 'I' for Inactive)
REMARK    1  A    between atoms: O1_2  and  C2_3 
REMARK    2  A    between atoms: C6_7  and  C7_8 
REMARK    3  A    between atoms: C14_17  and  N1_18 
REMARK    4  A    between atoms: N1_18  and  C15_19 
REMARK    5  A    between atoms: C15_19  and  N2_20 
REMARK    6  A    between atoms: C15_19  and  C16_21 
REMARK    7  A    between atoms: C17_22  and  C18_23 
ROOT
HETATM    1  C2  UNL     1      26.203   1.278  53.685  1.00  0.00     0.092 A 
HETATM    2  C3  UNL     1      26.142   0.109  54.300  1.00  0.00     0.017 A 
HETATM    3  C4  UNL     1      24.951  -0.759  54.463  1.00  0.00     0.070 A 
HETATM    4  C5  UNL     1      23.772  -0.161  53.843  1.00  0.00    -0.029 A 
HETATM    5  C6  UNL     1      22.608   0.297  53.301  1.00  0.00    -0.005 A 
HETATM    6  C13 UNL     1      23.796   1.129  53.154  1.00  0.00     0.012 A 
HETATM    7  C14 UNL     1      24.950   1.772  53.100  1.00  0.00     0.075 A 
ENDROOT
BRANCH   7   8
HETATM    8  N1  UNL     1      24.912   3.012  52.415  1.00  0.00    -0.355 N 
HETATM    9  H10 UNL     1      24.552   3.733  53.111  1.00  0.00     0.162 HD
BRANCH   8  10
HETATM   10  C15 UNL     1      25.224   3.519  51.086  1.00  0.00     0.340 C 
BRANCH  10  11
HETATM   11  N2  UNL     1      26.218   2.578  50.544  1.00  0.00     0.104 N 
HETATM   12  H12 UNL     1      25.938   1.639  50.963  1.00  0.00     0.315 HD
HETATM   13  H13 UNL     1      27.160   2.780  50.981  1.00  0.00     0.315 HD
ENDBRANCH  10  11
BRANCH  10  14
HETATM   14  C16 UNL     1      24.037   3.439  50.195  1.00  0.00     0.026 C 
HETATM   15  C17 UNL     1      23.300   2.379  49.924  1.00  0.00    -0.019 C 
BRANCH  15  16
HETATM   16  C18 UNL     1      22.136   2.357  49.034  1.00  0.00    -0.034 C 
HETATM   17  C19 UNL     1      22.588   2.707  47.625  1.00  0.00     0.018 C 
HETATM   18  C20 UNL     1      21.505   0.981  48.934  1.00  0.00     0.018 C 
HETATM   19  C21 UNL     1      21.042   3.322  49.385  1.00  0.00     0.018 C 
ENDBRANCH  15  16
ENDBRANCH  10  14
ENDBRANCH   8  10
ENDBRANCH   7   8
BRANCH   1  20
HETATM   20  O1  UNL     1      27.341   2.082  53.542  1.00  0.00    -0.354 OA
HETATM   21  C1  UNL     1      28.640   1.549  53.766  1.00  0.00     0.210 C 
ENDBRANCH   1  20
BRANCH   5  22
HETATM   22  C7  UNL     1      21.190   0.170  53.002  1.00  0.00    -0.023 A 
HETATM   23  C8  UNL     1      20.486   1.101  52.230  1.00  0.00     0.015 A 
HETATM   24  C9  UNL     1      19.142   0.915  51.980  1.00  0.00     0.045 A 
HETATM   25  C10 UNL     1      18.505  -0.177  52.490  1.00  0.00     0.138 A 
HETATM   26  F1  UNL     1      17.182  -0.372  52.251  1.00  0.00    -0.204 F 
HETATM   27  C11 UNL     1      19.132  -1.128  53.254  1.00  0.00     0.073 A 
HETATM   28 CL1  UNL     1      18.291  -2.527  53.900  1.00  0.00    -0.081 Cl
HETATM   29  C12 UNL     1      20.475  -0.928  53.495  1.00  0.00     0.039 A 
ENDBRANCH   5  22
TORSDOF 7
ENDMDL
