MODEL 1
REMARK VINA RESULT:      -8.6      0.000      0.000
REMARK  7 active torsions:
REMARK  status: ('A' for Active; 'I' for Inactive)
REMARK    1  A    between atoms: C2_2  and  C3_3 
REMARK    2  A    between atoms: C4_4  and  C5_5 
REMARK    3  A    between atoms: C5_5  and  C6_6 
REMARK    4  A    between atoms: C16_16  and  C17_17 
REMARK    5  A    between atoms: C17_17  and  C18_18 
REMARK    6  A    between atoms: C18_18  and  C19_19 
REMARK    7  A    between atoms: C19_19  and  O2_21 
ROOT
HETATM    1  C6  UNL     1      21.589  -0.011  52.380  1.00  0.00     0.062 C 
HETATM    2  C7  UNL     1      22.522  -0.852  53.246  1.00  0.00    -0.015 C 
HETATM    3  C8  UNL     1      23.628  -0.631  53.928  1.00  0.00     0.009 C 
HETATM    4  C9  UNL     1      24.461   0.439  53.367  1.00  0.00     0.000 C 
HETATM    5  C10 UNL     1      25.595   0.284  54.065  1.00  0.00     0.026 C 
HETATM    6  C11 UNL     1      26.430   1.595  54.322  1.00  0.00     0.101 C 
HETATM    7  C12 UNL     1      26.770   1.005  52.891  1.00  0.00     0.015 C 
HETATM    8  C13 UNL     1      26.165   1.495  51.812  1.00  0.00     0.026 C 
HETATM    9  C14 UNL     1      24.651   1.517  52.287  1.00  0.00     0.097 C 
HETATM   10  C15 UNL     1      24.210   2.840  52.503  1.00  0.00     0.021 C 
HETATM   11  C16 UNL     1      22.961   3.333  52.333  1.00  0.00    -0.051 C 
HETATM   12  C20 UNL     1      22.014   2.262  51.928  1.00  0.00    -0.033 C 
HETATM   13  C21 UNL     1      20.607   2.559  51.634  1.00  0.00     0.050 C 
HETATM   14  C22 UNL     1      22.514   1.037  51.805  1.00  0.00     0.021 C 
HETATM   15  N1  UNL     1      23.831   0.983  51.153  1.00  0.00    -0.372 N 
HETATM   16  C23 UNL     1      27.572  -0.212  53.438  1.00  0.00     0.252 C 
HETATM   17  O3  UNL     1      28.713  -0.518  53.082  1.00  0.00    -0.268 OA
HETATM   18  N2  UNL     1      26.504  -0.778  54.437  1.00  0.00    -0.326 N 
HETATM   19  H23 UNL     1      24.327   0.719  50.273  1.00  0.00     0.161 HD
HETATM   20  H24 UNL     1      26.178  -1.467  55.110  1.00  0.00     0.169 HD
ENDROOT
BRANCH  11  21
HETATM   21  C17 UNL     1      22.613   4.737  52.463  1.00  0.00     0.049 C 
BRANCH  21  22
HETATM   22  C18 UNL     1      22.455   5.569  51.250  1.00  0.00     0.114 C 
BRANCH  22  23
HETATM   23  C19 UNL     1      23.681   6.460  51.211  1.00  0.00     0.139 C 
HETATM   24  O1  UNL     1      24.707   5.934  50.644  1.00  0.00    -0.650 OA
BRANCH  23  25
HETATM   25  O2  UNL     1      24.168   7.732  51.583  1.00  0.00    -0.776 OA
HETATM   26  H19 UNL     1      24.870   7.770  52.344  1.00  0.00     0.167 HD
ENDBRANCH  23  25
ENDBRANCH  22  23
ENDBRANCH  21  22
ENDBRANCH  11  21
BRANCH   1  27
HETATM   27  C5  UNL     1      20.644   0.461  53.421  1.00  0.00     0.041 C 
BRANCH  27  28
HETATM   28  C4  UNL     1      19.444  -0.492  53.508  1.00  0.00    -0.026 C 
HETATM   29  C3  UNL     1      18.410  -0.656  52.679  1.00  0.00    -0.005 C 
BRANCH  29  30
HETATM   30  C2  UNL     1      17.436  -1.676  53.083  1.00  0.00    -0.011 C 
HETATM   31  C1  UNL     1      18.013  -2.607  53.826  1.00  0.00     0.011 C 
ENDBRANCH  29  30
ENDBRANCH  27  28
ENDBRANCH   1  27
TORSDOF 7
ENDMDL
MODEL 2
REMARK VINA RESULT:      -8.1      2.748      6.200
REMARK  7 active torsions:
REMARK  status: ('A' for Active; 'I' for Inactive)
REMARK    1  A    between atoms: C2_2  and  C3_3 
REMARK    2  A    between atoms: C4_4  and  C5_5 
REMARK    3  A    between atoms: C5_5  and  C6_6 
REMARK    4  A    between atoms: C16_16  and  C17_17 
REMARK    5  A    between atoms: C17_17  and  C18_18 
REMARK    6  A    between atoms: C18_18  and  C19_19 
REMARK    7  A    between atoms: C19_19  and  O2_21 
ROOT
HETATM    1  C6  UNL     1      24.999   0.875  53.133  1.00  0.00     0.062 C 
HETATM    2  C7  UNL     1      23.764  -0.021  53.118  1.00  0.00    -0.015 C 
HETATM    3  C8  UNL     1      22.700  -0.146  52.351  1.00  0.00     0.009 C 
HETATM    4  C9  UNL     1      22.293   1.106  51.701  1.00  0.00     0.000 C 
HETATM    5  C10 UNL     1      21.090   0.771  51.214  1.00  0.00     0.026 C 
HETATM    6  C11 UNL     1      20.655   1.502  49.889  1.00  0.00     0.101 C 
HETATM    7  C12 UNL     1      20.327   2.411  51.145  1.00  0.00     0.015 C 
HETATM    8  C13 UNL     1      21.173   3.374  51.505  1.00  0.00     0.026 C 
HETATM    9  C14 UNL     1      22.558   2.602  51.464  1.00  0.00     0.097 C 
HETATM   10  C15 UNL     1      23.342   3.030  50.372  1.00  0.00     0.021 C 
HETATM   11  C16 UNL     1      24.692   3.099  50.299  1.00  0.00    -0.051 C 
HETATM   12  C20 UNL     1      25.321   2.584  51.542  1.00  0.00    -0.033 C 
HETATM   13  C21 UNL     1      26.778   2.602  51.725  1.00  0.00     0.050 C 
HETATM   14  C22 UNL     1      24.500   2.150  52.493  1.00  0.00     0.021 C 
HETATM   15  N1  UNL     1      23.312   2.993  52.698  1.00  0.00    -0.372 N 
HETATM   16  C23 UNL     1      19.143   1.530  51.638  1.00  0.00     0.252 C 
HETATM   17  O3  UNL     1      18.013   1.952  51.896  1.00  0.00    -0.268 OA
HETATM   18  N2  UNL     1      19.871   0.141  51.672  1.00  0.00    -0.326 N 
HETATM   19  H23 UNL     1      22.867   3.682  53.344  1.00  0.00     0.161 HD
HETATM   20  H24 UNL     1      19.896  -0.856  51.869  1.00  0.00     0.169 HD
ENDROOT
BRANCH  11  21
HETATM   21  C17 UNL     1      25.422   3.665  49.179  1.00  0.00     0.049 C 
BRANCH  21  22
HETATM   22  C18 UNL     1      25.562   5.133  49.061  1.00  0.00     0.114 C 
BRANCH  22  23
HETATM   23  C19 UNL     1      27.052   5.385  48.932  1.00  0.00     0.139 C 
HETATM   24  O1  UNL     1      27.757   4.332  48.725  1.00  0.00    -0.650 OA
BRANCH  23  25
HETATM   25  O2  UNL     1      28.034   6.400  48.951  1.00  0.00    -0.776 OA
HETATM   26  H19 UNL     1      28.823   6.311  48.286  1.00  0.00     0.167 HD
ENDBRANCH  23  25
ENDBRANCH  22  23
ENDBRANCH  21  22
ENDBRANCH  11  21
BRANCH   1  27
HETATM   27  C5  UNL     1      25.911   0.050  52.304  1.00  0.00     0.041 C 
BRANCH  27  28
HETATM   28  C4  UNL     1      27.121  -0.389  53.139  1.00  0.00    -0.026 C 
HETATM   29  C3  UNL     1      28.081   0.338  53.719  1.00  0.00    -0.005 C 
BRANCH  29  30
HETATM   30  C2  UNL     1      29.095  -0.428  54.452  1.00  0.00    -0.011 C 
HETATM   31  C1  UNL     1      29.984  -0.946  53.618  1.00  0.00     0.011 C 
ENDBRANCH  29  30
ENDBRANCH  27  28
ENDBRANCH   1  27
TORSDOF 7
ENDMDL
MODEL 3
REMARK VINA RESULT:      -8.1      3.034      6.045
REMARK  7 active torsions:
REMARK  status: ('A' for Active; 'I' for Inactive)
REMARK    1  A    between atoms: C2_2  and  C3_3 
REMARK    2  A    between atoms: C4_4  and  C5_5 
REMARK    3  A    between atoms: C5_5  and  C6_6 
REMARK    4  A    between atoms: C16_16  and  C17_17 
REMARK    5  A    between atoms: C17_17  and  C18_18 
REMARK    6  A    between atoms: C18_18  and  C19_19 
REMARK    7  A    between atoms: C19_19  and  O2_21 
ROOT
HETATM    1  C6  UNL     1      24.783   3.775  50.993  1.00  0.00     0.062 C 
HETATM    2  C7  UNL     1      26.140   3.116  50.767  1.00  0.00    -0.015 C 
HETATM    3  C8  UNL     1      26.666   1.933  51.015  1.00  0.00     0.009 C 
HETATM    4  C9  UNL     1      26.091   1.269  52.192  1.00  0.00     0.000 C 
HETATM    5  C10 UNL     1      26.947   0.252  52.366  1.00  0.00     0.026 C 
HETATM    6  C11 UNL     1      26.340  -1.061  52.989  1.00  0.00     0.101 C 
HETATM    7  C12 UNL     1      26.715  -0.036  54.138  1.00  0.00     0.015 C 
HETATM    8  C13 UNL     1      25.775   0.752  54.656  1.00  0.00     0.026 C 
HETATM    9  C14 UNL     1      25.073   1.302  53.343  1.00  0.00     0.097 C 
HETATM   10  C15 UNL     1      23.788   0.739  53.185  1.00  0.00     0.021 C 
HETATM   11  C16 UNL     1      22.699   1.310  52.621  1.00  0.00    -0.051 C 
HETATM   12  C20 UNL     1      23.019   2.659  52.086  1.00  0.00    -0.033 C 
HETATM   13  C21 UNL     1      21.986   3.500  51.470  1.00  0.00     0.050 C 
HETATM   14  C22 UNL     1      24.271   3.078  52.233  1.00  0.00     0.021 C 
HETATM   15  N1  UNL     1      24.863   2.771  53.544  1.00  0.00    -0.372 N 
HETATM   16  C23 UNL     1      28.252  -0.222  53.984  1.00  0.00     0.252 C 
HETATM   17  O3  UNL     1      29.023  -0.490  54.909  1.00  0.00    -0.268 OA
HETATM   18  N2  UNL     1      28.376   0.037  52.442  1.00  0.00    -0.326 N 
HETATM   19  H23 UNL     1      25.160   3.187  54.455  1.00  0.00     0.161 HD
HETATM   20  H24 UNL     1      28.919   0.144  51.589  1.00  0.00     0.169 HD
ENDROOT
BRANCH  11  21
HETATM   21  C17 UNL     1      21.378   0.708  52.603  1.00  0.00     0.049 C 
BRANCH  21  22
HETATM   22  C18 UNL     1      20.619   0.568  53.865  1.00  0.00     0.114 C 
BRANCH  22  23
HETATM   23  C19 UNL     1      20.302  -0.910  53.982  1.00  0.00     0.139 C 
HETATM   24  O1  UNL     1      21.326  -1.665  54.160  1.00  0.00    -0.650 OA
BRANCH  23  25
HETATM   25  O2  UNL     1      19.243  -1.845  53.970  1.00  0.00    -0.776 OA
HETATM   26  H19 UNL     1      18.290  -1.482  53.789  1.00  0.00     0.167 HD
ENDBRANCH  23  25
ENDBRANCH  22  23
ENDBRANCH  21  22
ENDBRANCH  11  21
BRANCH   1  27
HETATM   27  C5  UNL     1      24.115   3.406  49.721  1.00  0.00     0.041 C 
BRANCH  27  28
HETATM   28  C4  UNL     1      24.030   4.631  48.802  1.00  0.00    -0.026 C 
HETATM   29  C3  UNL     1      24.396   5.898  49.015  1.00  0.00    -0.005 C 
BRANCH  29  30
HETATM   30  C2  UNL     1      24.166   6.816  47.894  1.00  0.00    -0.011 C 
HETATM   31  C1  UNL     1      25.264   7.502  47.617  1.00  0.00     0.011 C 
ENDBRANCH  29  30
ENDBRANCH  27  28
ENDBRANCH   1  27
TORSDOF 7
ENDMDL
MODEL 4
REMARK VINA RESULT:      -7.9      3.198      6.330
REMARK  7 active torsions:
REMARK  status: ('A' for Active; 'I' for Inactive)
REMARK    1  A    between atoms: C2_2  and  C3_3 
REMARK    2  A    between atoms: C4_4  and  C5_5 
REMARK    3  A    between atoms: C5_5  and  C6_6 
REMARK    4  A    between atoms: C16_16  and  C17_17 
REMARK    5  A    between atoms: C17_17  and  C18_18 
REMARK    6  A    between atoms: C18_18  and  C19_19 
REMARK    7  A    between atoms: C19_19  and  O2_21 
ROOT
HETATM    1  C6  UNL     1      25.681   3.770  50.821  1.00  0.00     0.062 C 
HETATM    2  C7  UNL     1      26.665   2.855  51.544  1.00  0.00    -0.015 C 
HETATM    3  C8  UNL     1      26.670   1.595  51.932  1.00  0.00     0.009 C 
HETATM    4  C9  UNL     1      25.334   1.071  52.243  1.00  0.00     0.000 C 
HETATM    5  C10 UNL     1      25.638  -0.092  52.838  1.00  0.00     0.026 C 
HETATM    6  C11 UNL     1      24.590  -1.252  52.659  1.00  0.00     0.101 C 
HETATM    7  C12 UNL     1      24.156  -0.307  53.854  1.00  0.00     0.015 C 
HETATM    8  C13 UNL     1      23.261   0.656  53.646  1.00  0.00     0.026 C 
HETATM    9  C14 UNL     1      23.818   1.317  52.315  1.00  0.00     0.097 C 
HETATM   10  C15 UNL     1      22.986   1.014  51.216  1.00  0.00     0.021 C 
HETATM   11  C16 UNL     1      22.744   1.780  50.127  1.00  0.00    -0.051 C 
HETATM   12  C20 UNL     1      23.540   3.033  50.167  1.00  0.00    -0.033 C 
HETATM   13  C21 UNL     1      23.412   4.053  49.119  1.00  0.00     0.050 C 
HETATM   14  C22 UNL     1      24.337   3.202  51.217  1.00  0.00     0.021 C 
HETATM   15  N1  UNL     1      23.742   2.801  52.501  1.00  0.00    -0.372 N 
HETATM   16  C23 UNL     1      25.277  -0.792  54.818  1.00  0.00     0.252 C 
HETATM   17  O3  UNL     1      25.087  -1.194  55.969  1.00  0.00    -0.268 OA
HETATM   18  N2  UNL     1      26.515  -0.581  53.879  1.00  0.00    -0.326 N 
HETATM   19  H23 UNL     1      23.341   3.162  53.394  1.00  0.00     0.161 HD
HETATM   20  H24 UNL     1      27.514  -0.593  53.693  1.00  0.00     0.169 HD
ENDROOT
BRANCH  11  21
HETATM   21  C17 UNL     1      21.780   1.448  49.093  1.00  0.00     0.049 C 
BRANCH  21  22
HETATM   22  C18 UNL     1      20.347   1.323  49.438  1.00  0.00     0.114 C 
BRANCH  22  23
HETATM   23  C19 UNL     1      19.648   2.420  48.659  1.00  0.00     0.139 C 
HETATM   24  O1  UNL     1      19.913   3.612  49.058  1.00  0.00    -0.650 OA
BRANCH  23  25
HETATM   25  O2  UNL     1      18.756   2.657  47.590  1.00  0.00    -0.776 OA
HETATM   26  H19 UNL     1      19.030   2.307  46.655  1.00  0.00     0.167 HD
ENDBRANCH  23  25
ENDBRANCH  22  23
ENDBRANCH  21  22
ENDBRANCH  11  21
BRANCH   1  27
HETATM   27  C5  UNL     1      26.100   3.523  49.420  1.00  0.00     0.041 C 
BRANCH  27  28
HETATM   28  C4  UNL     1      26.833   4.753  48.870  1.00  0.00    -0.026 C 
HETATM   29  C3  UNL     1      28.122   4.925  48.562  1.00  0.00    -0.005 C 
BRANCH  29  30
HETATM   30  C2  UNL     1      28.475   6.254  48.051  1.00  0.00    -0.011 C 
HETATM   31  C1  UNL     1      27.419   7.053  48.055  1.00  0.00     0.011 C 
ENDBRANCH  29  30
ENDBRANCH  27  28
ENDBRANCH   1  27
TORSDOF 7
ENDMDL
MODEL 5
REMARK VINA RESULT:      -7.8      3.508      5.633
REMARK  7 active torsions:
REMARK  status: ('A' for Active; 'I' for Inactive)
REMARK    1  A    between atoms: C2_2  and  C3_3 
REMARK    2  A    between atoms: C4_4  and  C5_5 
REMARK    3  A    between atoms: C5_5  and  C6_6 
REMARK    4  A    between atoms: C16_16  and  C17_17 
REMARK    5  A    between atoms: C17_17  and  C18_18 
REMARK    6  A    between atoms: C18_18  and  C19_19 
REMARK    7  A    between atoms: C19_19  and  O2_21 
ROOT
HETATM    1  C6  UNL     1      23.078   1.897  51.314  1.00  0.00     0.062 C 
HETATM    2  C7  UNL     1      23.450   3.056  52.233  1.00  0.00    -0.015 C 
HETATM    3  C8  UNL     1      23.420   4.371  52.150  1.00  0.00     0.009 C 
HETATM    4  C9  UNL     1      23.584   4.878  50.782  1.00  0.00     0.000 C 
HETATM    5  C10 UNL     1      23.772   6.187  51.006  1.00  0.00     0.026 C 
HETATM    6  C11 UNL     1      23.263   7.159  49.877  1.00  0.00     0.101 C 
HETATM    7  C12 UNL     1      24.707   6.615  49.516  1.00  0.00     0.015 C 
HETATM    8  C13 UNL     1      24.837   5.579  48.690  1.00  0.00     0.026 C 
HETATM    9  C14 UNL     1      23.769   4.569  49.287  1.00  0.00     0.097 C 
HETATM   10  C15 UNL     1      22.652   4.452  48.432  1.00  0.00     0.021 C 
HETATM   11  C16 UNL     1      21.868   3.366  48.241  1.00  0.00    -0.051 C 
HETATM   12  C20 UNL     1      22.281   2.245  49.124  1.00  0.00    -0.033 C 
HETATM   13  C21 UNL     1      21.613   0.940  49.064  1.00  0.00     0.050 C 
HETATM   14  C22 UNL     1      23.309   2.471  49.935  1.00  0.00     0.021 C 
HETATM   15  N1  UNL     1      24.415   3.218  49.317  1.00  0.00    -0.372 N 
HETATM   16  C23 UNL     1      25.439   7.454  50.603  1.00  0.00     0.252 C 
HETATM   17  O3  UNL     1      26.408   8.186  50.390  1.00  0.00    -0.268 OA
HETATM   18  N2  UNL     1      24.583   7.037  51.850  1.00  0.00    -0.326 N 
HETATM   19  H23 UNL     1      25.388   3.134  48.946  1.00  0.00     0.161 HD
HETATM   20  H24 UNL     1      24.377   7.055  52.845  1.00  0.00     0.169 HD
ENDROOT
BRANCH  11  21
HETATM   21  C17 UNL     1      20.807   3.289  47.252  1.00  0.00     0.049 C 
BRANCH  21  22
HETATM   22  C18 UNL     1      20.647   4.376  46.261  1.00  0.00     0.114 C 
BRANCH  22  23
HETATM   23  C19 UNL     1      21.150   3.802  44.950  1.00  0.00     0.139 C 
HETATM   24  O1  UNL     1      22.323   3.283  45.008  1.00  0.00    -0.650 OA
BRANCH  23  25
HETATM   25  O2  UNL     1      20.804   3.604  43.596  1.00  0.00    -0.776 OA
HETATM   26  H19 UNL     1      20.712   4.446  43.000  1.00  0.00     0.167 HD
ENDBRANCH  23  25
ENDBRANCH  22  23
ENDBRANCH  21  22
ENDBRANCH  11  21
BRANCH   1  27
HETATM   27  C5  UNL     1      21.661   1.714  51.709  1.00  0.00     0.041 C 
BRANCH  27  28
HETATM   28  C4  UNL     1      21.563   0.680  52.839  1.00  0.00    -0.026 C 
HETATM   29  C3  UNL     1      20.645  -0.263  53.070  1.00  0.00    -0.005 C 
BRANCH  29  30
HETATM   30  C2  UNL     1      20.875  -1.086  54.262  1.00  0.00    -0.011 C 
HETATM   31  C1  UNL     1      22.071  -0.841  54.777  1.00  0.00     0.011 C 
ENDBRANCH  29  30
ENDBRANCH  27  28
ENDBRANCH   1  27
TORSDOF 7
ENDMDL
MODEL 6
REMARK VINA RESULT:      -7.6      3.418      6.782
REMARK  7 active torsions:
REMARK  status: ('A' for Active; 'I' for Inactive)
REMARK    1  A    between atoms: C2_2  and  C3_3 
REMARK    2  A    between atoms: C4_4  and  C5_5 
REMARK    3  A    between atoms: C5_5  and  C6_6 
REMARK    4  A    between atoms: C16_16  and  C17_17 
REMARK    5  A    between atoms: C17_17  and  C18_18 
REMARK    6  A    between atoms: C18_18  and  C19_19 
REMARK    7  A    between atoms: C19_19  and  O2_21 
ROOT
HETATM    1  C6  UNL     1      21.886   0.611  53.460  1.00  0.00     0.062 C 
HETATM    2  C7  UNL     1      20.791  -0.287  54.030  1.00  0.00    -0.015 C 
HETATM    3  C8  UNL     1      19.692  -0.845  53.563  1.00  0.00     0.009 C 
HETATM    4  C9  UNL     1      19.060  -0.082  52.481  1.00  0.00     0.000 C 
HETATM    5  C10 UNL     1      17.876  -0.704  52.375  1.00  0.00     0.026 C 
HETATM    6  C11 UNL     1      17.230  -0.718  50.940  1.00  0.00     0.101 C 
HETATM    7  C12 UNL     1      16.889   0.643  51.677  1.00  0.00     0.015 C 
HETATM    8  C13 UNL     1      17.621   1.729  51.436  1.00  0.00     0.026 C 
HETATM    9  C14 UNL     1      19.092   1.145  51.555  1.00  0.00     0.097 C 
HETATM   10  C15 UNL     1      19.710   1.075  50.287  1.00  0.00     0.021 C 
HETATM   11  C16 UNL     1      21.025   1.214  50.001  1.00  0.00    -0.051 C 
HETATM   12  C20 UNL     1      21.826   1.395  51.239  1.00  0.00    -0.033 C 
HETATM   13  C21 UNL     1      23.276   1.618  51.184  1.00  0.00     0.050 C 
HETATM   14  C22 UNL     1      21.159   1.391  52.388  1.00  0.00     0.021 C 
HETATM   15  N1  UNL     1      19.888   2.130  52.355  1.00  0.00    -0.372 N 
HETATM   16  C23 UNL     1      15.888   0.001  52.680  1.00  0.00     0.252 C 
HETATM   17  O3  UNL     1      14.736   0.399  52.875  1.00  0.00    -0.268 OA
HETATM   18  N2  UNL     1      16.802  -1.145  53.238  1.00  0.00    -0.326 N 
HETATM   19  H23 UNL     1      19.410   3.002  52.672  1.00  0.00     0.161 HD
HETATM   20  H24 UNL     1      16.983  -1.928  53.861  1.00  0.00     0.169 HD
ENDROOT
BRANCH  11  21
HETATM   21  C17 UNL     1      21.568   1.247  48.655  1.00  0.00     0.049 C 
BRANCH  21  22
HETATM   22  C18 UNL     1      21.219   2.365  47.750  1.00  0.00     0.114 C 
BRANCH  22  23
HETATM   23  C19 UNL     1      21.987   3.562  48.275  1.00  0.00     0.139 C 
HETATM   24  O1  UNL     1      21.254   4.560  48.618  1.00  0.00    -0.650 OA
BRANCH  23  25
HETATM   25  O2  UNL     1      23.286   4.040  48.553  1.00  0.00    -0.776 OA
HETATM   26  H19 UNL     1      24.083   3.437  48.281  1.00  0.00     0.167 HD
ENDBRANCH  23  25
ENDBRANCH  22  23
ENDBRANCH  21  22
ENDBRANCH  11  21
BRANCH   1  27
HETATM   27  C5  UNL     1      22.828  -0.428  52.977  1.00  0.00     0.041 C 
BRANCH  27  28
HETATM   28  C4  UNL     1      24.040  -0.509  53.915  1.00  0.00    -0.026 C 
HETATM   29  C3  UNL     1      25.209   0.137  53.873  1.00  0.00    -0.005 C 
BRANCH  29  30
HETATM   30  C2  UNL     1      26.148  -0.192  54.951  1.00  0.00    -0.011 C 
HETATM   31  C1  UNL     1      27.360   0.262  54.671  1.00  0.00     0.011 C 
ENDBRANCH  29  30
ENDBRANCH  27  28
ENDBRANCH   1  27
TORSDOF 7
ENDMDL
MODEL 7
REMARK VINA RESULT:      -7.5      3.271      7.665
REMARK  7 active torsions:
REMARK  status: ('A' for Active; 'I' for Inactive)
REMARK    1  A    between atoms: C2_2  and  C3_3 
REMARK    2  A    between atoms: C4_4  and  C5_5 
REMARK    3  A    between atoms: C5_5  and  C6_6 
REMARK    4  A    between atoms: C16_16  and  C17_17 
REMARK    5  A    between atoms: C17_17  and  C18_18 
REMARK    6  A    between atoms: C18_18  and  C19_19 
REMARK    7  A    between atoms: C19_19  and  O2_21 
ROOT
HETATM    1  C6  UNL     1      23.984   4.400  49.638  1.00  0.00     0.062 C 
HETATM    2  C7  UNL     1      22.588   4.889  50.010  1.00  0.00    -0.015 C 
HETATM    3  C8  UNL     1      21.670   4.538  50.889  1.00  0.00     0.009 C 
HETATM    4  C9  UNL     1      21.697   3.110  51.229  1.00  0.00     0.000 C 
HETATM    5  C10 UNL     1      20.547   2.979  51.907  1.00  0.00     0.026 C 
HETATM    6  C11 UNL     1      20.533   1.879  53.034  1.00  0.00     0.101 C 
HETATM    7  C12 UNL     1      20.233   1.218  51.625  1.00  0.00     0.015 C 
HETATM    8  C13 UNL     1      21.216   0.635  50.943  1.00  0.00     0.026 C 
HETATM    9  C14 UNL     1      22.357   1.734  51.041  1.00  0.00     0.097 C 
HETATM   10  C15 UNL     1      23.393   1.309  51.900  1.00  0.00     0.021 C 
HETATM   11  C16 UNL     1      24.711   1.606  51.814  1.00  0.00    -0.051 C 
HETATM   12  C20 UNL     1      24.977   2.539  50.689  1.00  0.00    -0.033 C 
HETATM   13  C21 UNL     1      26.342   2.969  50.361  1.00  0.00     0.050 C 
HETATM   14  C22 UNL     1      23.927   2.927  49.973  1.00  0.00     0.021 C 
HETATM   15  N1  UNL     1      22.965   1.854  49.678  1.00  0.00    -0.372 N 
HETATM   16  C23 UNL     1      18.804   1.821  51.500  1.00  0.00     0.252 C 
HETATM   17  O3  UNL     1      17.785   1.169  51.259  1.00  0.00    -0.268 OA
HETATM   18  N2  UNL     1      19.152   3.329  51.755  1.00  0.00    -0.326 N 
HETATM   19  H23 UNL     1      22.601   1.230  48.924  1.00  0.00     0.161 HD
HETATM   20  H24 UNL     1      18.898   4.311  51.822  1.00  0.00     0.169 HD
ENDROOT
BRANCH  11  21
HETATM   21  C17 UNL     1      25.734   1.031  52.669  1.00  0.00     0.049 C 
BRANCH  21  22
HETATM   22  C18 UNL     1      26.477  -0.167  52.220  1.00  0.00     0.114 C 
BRANCH  22  23
HETATM   23  C19 UNL     1      27.218  -0.664  53.447  1.00  0.00     0.139 C 
HETATM   24  O1  UNL     1      27.818  -1.789  53.291  1.00  0.00    -0.650 OA
BRANCH  23  25
HETATM   25  O2  UNL     1      27.526  -0.348  54.788  1.00  0.00    -0.776 OA
HETATM   26  H19 UNL     1      27.293   0.607  55.117  1.00  0.00     0.167 HD
ENDBRANCH  23  25
ENDBRANCH  22  23
ENDBRANCH  21  22
ENDBRANCH  11  21
BRANCH   1  27
HETATM   27  C5  UNL     1      24.792   5.240  50.555  1.00  0.00     0.041 C 
BRANCH  27  28
HETATM   28  C4  UNL     1      25.687   6.186  49.744  1.00  0.00    -0.026 C 
HETATM   29  C3  UNL     1      26.398   5.963  48.635  1.00  0.00    -0.005 C 
BRANCH  29  30
HETATM   30  C2  UNL     1      27.147   7.117  48.125  1.00  0.00    -0.011 C 
HETATM   31  C1  UNL     1      28.399   6.781  47.857  1.00  0.00     0.011 C 
ENDBRANCH  29  30
ENDBRANCH  27  28
ENDBRANCH   1  27
TORSDOF 7
ENDMDL
MODEL 8
REMARK VINA RESULT:      -7.5      9.780     12.473
REMARK  7 active torsions:
REMARK  status: ('A' for Active; 'I' for Inactive)
REMARK    1  A    between atoms: C2_2  and  C3_3 
REMARK    2  A    between atoms: C4_4  and  C5_5 
REMARK    3  A    between atoms: C5_5  and  C6_6 
REMARK    4  A    between atoms: C16_16  and  C17_17 
REMARK    5  A    between atoms: C17_17  and  C18_18 
REMARK    6  A    between atoms: C18_18  and  C19_19 
REMARK    7  A    between atoms: C19_19  and  O2_21 
ROOT
HETATM    1  C6  UNL     1      31.978   5.569  48.529  1.00  0.00     0.062 C 
HETATM    2  C7  UNL     1      30.461   5.499  48.377  1.00  0.00    -0.015 C 
HETATM    3  C8  UNL     1      29.511   6.337  48.011  1.00  0.00     0.009 C 
HETATM    4  C9  UNL     1      29.819   7.741  48.310  1.00  0.00     0.000 C 
HETATM    5  C10 UNL     1      28.632   8.324  48.088  1.00  0.00     0.026 C 
HETATM    6  C11 UNL     1      28.680   9.813  47.579  1.00  0.00     0.101 C 
HETATM    7  C12 UNL     1      28.805   9.774  49.158  1.00  0.00     0.015 C 
HETATM    8  C13 UNL     1      30.006   9.836  49.730  1.00  0.00     0.026 C 
HETATM    9  C14 UNL     1      30.812   8.770  48.874  1.00  0.00     0.097 C 
HETATM   10  C15 UNL     1      31.749   9.405  48.031  1.00  0.00     0.021 C 
HETATM   11  C16 UNL     1      32.950   8.931  47.626  1.00  0.00    -0.051 C 
HETATM   12  C20 UNL     1      33.183   7.555  48.134  1.00  0.00    -0.033 C 
HETATM   13  C21 UNL     1      34.440   6.846  47.870  1.00  0.00     0.050 C 
HETATM   14  C22 UNL     1      32.217   7.021  48.874  1.00  0.00     0.021 C 
HETATM   15  N1  UNL     1      31.609   7.949  49.841  1.00  0.00    -0.372 N 
HETATM   16  C23 UNL     1      27.319   9.377  49.397  1.00  0.00     0.252 C 
HETATM   17  O3  UNL     1      26.547   9.970  50.155  1.00  0.00    -0.268 OA
HETATM   18  N2  UNL     1      27.244   8.131  48.448  1.00  0.00    -0.326 N 
HETATM   19  H23 UNL     1      31.548   8.191  50.854  1.00  0.00     0.161 HD
HETATM   20  H24 UNL     1      26.755   7.336  48.045  1.00  0.00     0.169 HD
ENDROOT
BRANCH  11  21
HETATM   21  C17 UNL     1      33.911   9.698  46.851  1.00  0.00     0.049 C 
BRANCH  21  22
HETATM   22  C18 UNL     1      33.772   9.776  45.381  1.00  0.00     0.114 C 
BRANCH  22  23
HETATM   23  C19 UNL     1      35.148   9.458  44.830  1.00  0.00     0.139 C 
HETATM   24  O1  UNL     1      35.145   8.890  43.677  1.00  0.00    -0.650 OA
BRANCH  23  25
HETATM   25  O2  UNL     1      36.529   9.549  45.111  1.00  0.00    -0.776 OA
HETATM   26  H19 UNL     1      37.138   8.789  44.757  1.00  0.00     0.167 HD
ENDBRANCH  23  25
ENDBRANCH  22  23
ENDBRANCH  21  22
ENDBRANCH  11  21
BRANCH   1  27
HETATM   27  C5  UNL     1      32.381   5.155  47.163  1.00  0.00     0.041 C 
BRANCH  27  28
HETATM   28  C4  UNL     1      31.793   3.774  46.841  1.00  0.00    -0.026 C 
HETATM   29  C3  UNL     1      32.398   2.594  46.678  1.00  0.00    -0.005 C 
BRANCH  29  30
HETATM   30  C2  UNL     1      31.509   1.468  46.377  1.00  0.00    -0.011 C 
HETATM   31  C1  UNL     1      32.068   0.321  46.731  1.00  0.00     0.011 C 
ENDBRANCH  29  30
ENDBRANCH  27  28
ENDBRANCH   1  27
TORSDOF 7
ENDMDL
MODEL 9
REMARK VINA RESULT:      -7.4      3.214      6.910
REMARK  7 active torsions:
REMARK  status: ('A' for Active; 'I' for Inactive)
REMARK    1  A    between atoms: C2_2  and  C3_3 
REMARK    2  A    between atoms: C4_4  and  C5_5 
REMARK    3  A    between atoms: C5_5  and  C6_6 
REMARK    4  A    between atoms: C16_16  and  C17_17 
REMARK    5  A    between atoms: C17_17  and  C18_18 
REMARK    6  A    between atoms: C18_18  and  C19_19 
REMARK    7  A    between atoms: C19_19  and  O2_21 
ROOT
HETATM    1  C6  UNL     1      24.722   0.793  52.447  1.00  0.00     0.062 C 
HETATM    2  C7  UNL     1      25.180   2.245  52.537  1.00  0.00    -0.015 C 
HETATM    3  C8  UNL     1      24.584   3.417  52.641  1.00  0.00     0.009 C 
HETATM    4  C9  UNL     1      23.252   3.455  52.025  1.00  0.00     0.000 C 
HETATM    5  C10 UNL     1      22.993   4.771  52.040  1.00  0.00     0.026 C 
HETATM    6  C11 UNL     1      21.476   5.172  52.174  1.00  0.00     0.101 C 
HETATM    7  C12 UNL     1      21.825   4.862  50.659  1.00  0.00     0.015 C 
HETATM    8  C13 UNL     1      21.556   3.662  50.150  1.00  0.00     0.026 C 
HETATM    9  C14 UNL     1      22.136   2.707  51.277  1.00  0.00     0.097 C 
HETATM   10  C15 UNL     1      21.094   2.072  51.986  1.00  0.00     0.021 C 
HETATM   11  C16 UNL     1      21.109   0.844  52.552  1.00  0.00    -0.051 C 
HETATM   12  C20 UNL     1      22.441   0.203  52.405  1.00  0.00    -0.033 C 
HETATM   13  C21 UNL     1      22.692  -1.158  52.895  1.00  0.00     0.050 C 
HETATM   14  C22 UNL     1      23.375   0.904  51.771  1.00  0.00     0.021 C 
HETATM   15  N1  UNL     1      22.892   1.619  50.580  1.00  0.00    -0.372 N 
HETATM   16  C23 UNL     1      22.666   6.154  50.451  1.00  0.00     0.252 C 
HETATM   17  O3  UNL     1      22.496   6.962  49.535  1.00  0.00    -0.268 OA
HETATM   18  N2  UNL     1      23.643   6.009  51.670  1.00  0.00    -0.326 N 
HETATM   19  H23 UNL     1      22.906   1.625  49.536  1.00  0.00     0.161 HD
HETATM   20  H24 UNL     1      24.433   6.316  52.230  1.00  0.00     0.169 HD
ENDROOT
BRANCH  11  21
HETATM   21  C17 UNL     1      19.953   0.212  53.163  1.00  0.00     0.049 C 
BRANCH  21  22
HETATM   22  C18 UNL     1      18.804  -0.187  52.321  1.00  0.00     0.114 C 
BRANCH  22  23
HETATM   23  C19 UNL     1      18.039  -1.207  53.142  1.00  0.00     0.139 C 
HETATM   24  O1  UNL     1      18.774  -2.076  53.737  1.00  0.00    -0.650 OA
BRANCH  23  25
HETATM   25  O2  UNL     1      16.740  -1.599  53.533  1.00  0.00    -0.776 OA
HETATM   26  H19 UNL     1      16.052  -1.786  52.781  1.00  0.00     0.167 HD
ENDBRANCH  23  25
ENDBRANCH  22  23
ENDBRANCH  21  22
ENDBRANCH  11  21
BRANCH   1  27
HETATM   27  C5  UNL     1      24.695   0.454  53.891  1.00  0.00     0.041 C 
BRANCH  27  28
HETATM   28  C4  UNL     1      26.123   0.451  54.453  1.00  0.00    -0.026 C 
HETATM   29  C3  UNL     1      27.217  -0.188  54.029  1.00  0.00    -0.005 C 
BRANCH  29  30
HETATM   30  C2  UNL     1      28.429   0.047  54.821  1.00  0.00    -0.011 C 
HETATM   31  C1  UNL     1      29.366   0.624  54.084  1.00  0.00     0.011 C 
ENDBRANCH  29  30
ENDBRANCH  27  28
ENDBRANCH   1  27
TORSDOF 7
ENDMDL
