MODEL 1
REMARK VINA RESULT:      -7.4      0.000      0.000
REMARK  8 active torsions:
REMARK  status: ('A' for Active; 'I' for Inactive)
REMARK    1  A    between atoms: O1_2  and  C2_3 
REMARK    2  A    between atoms: C6_8  and  C7_9 
REMARK    3  A    between atoms: C7_9  and  O3_11 
REMARK    4  A    between atoms: C8_12  and  N2_13 
REMARK    5  A    between atoms: N2_13  and  C9_14 
REMARK    6  A    between atoms: C10_15  and  C11_16 
REMARK    7  A    between atoms: C12_17  and  C13_18 
REMARK    8  A    between atoms: C16_22  and  O4_23 
ROOT
HETATM    1  C2  UNL     1      27.420   0.895  53.131  1.00  0.00     0.103 A 
HETATM    2  C3  UNL     1      26.974   0.013  54.124  1.00  0.00     0.072 A 
HETATM    3  C4  UNL     1      25.608  -0.231  54.289  1.00  0.00     0.071 A 
HETATM    4  N1  UNL     1      25.211  -1.087  55.256  1.00  0.00    -0.259 NA
HETATM    5  C5  UNL     1      23.893  -1.300  55.387  1.00  0.00     0.138 A 
HETATM    6  C6  UNL     1      22.985  -0.671  54.567  1.00  0.00     0.082 A 
HETATM    7  C8  UNL     1      23.326   0.212  53.563  1.00  0.00     0.063 A 
HETATM    8  C14 UNL     1      24.710   0.402  53.465  1.00  0.00     0.023 A 
HETATM    9  C15 UNL     1      25.187   1.253  52.512  1.00  0.00     0.055 A 
HETATM   10  C16 UNL     1      26.513   1.548  52.284  1.00  0.00     0.102 A 
ENDROOT
BRANCH   7  11
HETATM   11  N2  UNL     1      22.492   0.906  52.686  1.00  0.00    -0.364 N 
HETATM   12  H7  UNL     1      22.426   1.905  52.988  1.00  0.00     0.165 HD
BRANCH  11  13
HETATM   13  C9  UNL     1      21.783   0.496  51.545  1.00  0.00     0.088 C 
HETATM   14  C10 UNL     1      21.933   1.140  50.426  1.00  0.00     0.017 C 
BRANCH  14  15
HETATM   15  C11 UNL     1      21.510   1.181  49.045  1.00  0.00    -0.002 C 
HETATM   16  C12 UNL     1      21.255   2.037  48.076  1.00  0.00    -0.012 C 
BRANCH  16  17
HETATM   17  C13 UNL     1      21.389   3.500  48.265  1.00  0.00     0.141 C 
HETATM   18 CL1  UNL     1      23.096   3.944  48.471  1.00  0.00    -0.126 Cl
ENDBRANCH  16  17
ENDBRANCH  14  15
ENDBRANCH  11  13
ENDBRANCH   7  11
BRANCH   6  19
HETATM   19  C7  UNL     1      21.565  -0.942  54.735  1.00  0.00     0.179 C 
HETATM   20  O2  UNL     1      21.044  -2.083  54.769  1.00  0.00    -0.646 OA
BRANCH  19  21
HETATM   21  O3  UNL     1      20.570   0.013  54.886  1.00  0.00    -0.773 OA
HETATM   22  H6  UNL     1      19.707  -0.166  55.394  1.00  0.00     0.167 HD
ENDBRANCH  19  21
ENDBRANCH   6  19
BRANCH  10  23
HETATM   23  O4  UNL     1      27.105   2.380  51.361  1.00  0.00    -0.353 OA
HETATM   24  C17 UNL     1      26.384   3.091  50.393  1.00  0.00     0.210 C 
ENDBRANCH  10  23
BRANCH   1  25
HETATM   25  O1  UNL     1      28.778   1.106  53.007  1.00  0.00    -0.353 OA
HETATM   26  C1  UNL     1      29.748   0.255  53.564  1.00  0.00     0.210 C 
ENDBRANCH   1  25
TORSDOF 8
ENDMDL
MODEL 2
REMARK VINA RESULT:      -7.4      2.256      2.587
REMARK  8 active torsions:
REMARK  status: ('A' for Active; 'I' for Inactive)
REMARK    1  A    between atoms: O1_2  and  C2_3 
REMARK    2  A    between atoms: C6_8  and  C7_9 
REMARK    3  A    between atoms: C7_9  and  O3_11 
REMARK    4  A    between atoms: C8_12  and  N2_13 
REMARK    5  A    between atoms: N2_13  and  C9_14 
REMARK    6  A    between atoms: C10_15  and  C11_16 
REMARK    7  A    between atoms: C12_17  and  C13_18 
REMARK    8  A    between atoms: C16_22  and  O4_23 
ROOT
HETATM    1  C2  UNL     1      27.457   0.954  53.099  1.00  0.00     0.103 A 
HETATM    2  C3  UNL     1      27.018   0.061  54.086  1.00  0.00     0.072 A 
HETATM    3  C4  UNL     1      25.653  -0.183  54.259  1.00  0.00     0.071 A 
HETATM    4  N1  UNL     1      25.263  -1.048  55.221  1.00  0.00    -0.259 NA
HETATM    5  C5  UNL     1      23.946  -1.262  55.361  1.00  0.00     0.138 A 
HETATM    6  C6  UNL     1      23.032  -0.622  54.555  1.00  0.00     0.082 A 
HETATM    7  C8  UNL     1      23.365   0.271  53.559  1.00  0.00     0.063 A 
HETATM    8  C14 UNL     1      24.749   0.461  53.451  1.00  0.00     0.023 A 
HETATM    9  C15 UNL     1      25.219   1.321  52.503  1.00  0.00     0.055 A 
HETATM   10  C16 UNL     1      26.543   1.617  52.266  1.00  0.00     0.102 A 
ENDROOT
BRANCH   7  11
HETATM   11  N2  UNL     1      22.525   0.976  52.697  1.00  0.00    -0.364 N 
HETATM   12  H7  UNL     1      22.477   1.975  52.999  1.00  0.00     0.165 HD
BRANCH  11  13
HETATM   13  C9  UNL     1      21.791   0.574  51.568  1.00  0.00     0.088 C 
HETATM   14  C10 UNL     1      20.492   0.570  51.611  1.00  0.00     0.017 C 
BRANCH  14  15
HETATM   15  C11 UNL     1      19.306   0.285  50.836  1.00  0.00    -0.002 C 
HETATM   16  C12 UNL     1      18.035  -0.030  50.985  1.00  0.00    -0.012 C 
BRANCH  16  17
HETATM   17  C13 UNL     1      17.418  -0.192  52.322  1.00  0.00     0.141 C 
HETATM   18 CL1  UNL     1      18.011  -1.674  53.102  1.00  0.00    -0.126 Cl
ENDBRANCH  16  17
ENDBRANCH  14  15
ENDBRANCH  11  13
ENDBRANCH   7  11
BRANCH   6  19
HETATM   19  C7  UNL     1      21.613  -0.893  54.734  1.00  0.00     0.179 C 
HETATM   20  O2  UNL     1      21.081  -2.029  54.689  1.00  0.00    -0.646 OA
BRANCH  19  21
HETATM   21  O3  UNL     1      20.631   0.056  54.981  1.00  0.00    -0.773 OA
HETATM   22  H6  UNL     1      20.316   0.718  54.277  1.00  0.00     0.167 HD
ENDBRANCH  19  21
ENDBRANCH   6  19
BRANCH  10  23
HETATM   23  O4  UNL     1      27.128   2.458  51.347  1.00  0.00    -0.353 OA
HETATM   24  C17 UNL     1      26.432   3.026  50.273  1.00  0.00     0.210 C 
ENDBRANCH  10  23
BRANCH   1  25
HETATM   25  O1  UNL     1      28.813   1.164  52.964  1.00  0.00    -0.353 OA
HETATM   26  C1  UNL     1      29.787   0.339  53.555  1.00  0.00     0.210 C 
ENDBRANCH   1  25
TORSDOF 8
ENDMDL
MODEL 3
REMARK VINA RESULT:      -7.1      2.523      5.728
REMARK  8 active torsions:
REMARK  status: ('A' for Active; 'I' for Inactive)
REMARK    1  A    between atoms: O1_2  and  C2_3 
REMARK    2  A    between atoms: C6_8  and  C7_9 
REMARK    3  A    between atoms: C7_9  and  O3_11 
REMARK    4  A    between atoms: C8_12  and  N2_13 
REMARK    5  A    between atoms: N2_13  and  C9_14 
REMARK    6  A    between atoms: C10_15  and  C11_16 
REMARK    7  A    between atoms: C12_17  and  C13_18 
REMARK    8  A    between atoms: C16_22  and  O4_23 
ROOT
HETATM    1  C2  UNL     1      19.876  -0.659  53.267  1.00  0.00     0.103 A 
HETATM    2  C3  UNL     1      20.654  -1.154  54.322  1.00  0.00     0.072 A 
HETATM    3  C4  UNL     1      22.031  -0.914  54.355  1.00  0.00     0.071 A 
HETATM    4  N1  UNL     1      22.753  -1.406  55.386  1.00  0.00    -0.259 NA
HETATM    5  C5  UNL     1      24.071  -1.158  55.388  1.00  0.00     0.138 A 
HETATM    6  C6  UNL     1      24.661  -0.431  54.379  1.00  0.00     0.082 A 
HETATM    7  C8  UNL     1      23.980   0.097  53.302  1.00  0.00     0.063 A 
HETATM    8  C14 UNL     1      22.609  -0.188  53.343  1.00  0.00     0.023 A 
HETATM    9  C15 UNL     1      21.814   0.275  52.336  1.00  0.00     0.055 A 
HETATM   10  C16 UNL     1      20.455   0.084  52.228  1.00  0.00     0.102 A 
ENDROOT
BRANCH   7  11
HETATM   11  N2  UNL     1      24.477   0.835  52.228  1.00  0.00    -0.364 N 
HETATM   12  H7  UNL     1      24.688   0.192  51.432  1.00  0.00     0.165 HD
BRANCH  11  13
HETATM   13  C9  UNL     1      24.717   2.210  52.068  1.00  0.00     0.088 C 
HETATM   14  C10 UNL     1      24.639   2.746  50.886  1.00  0.00     0.017 C 
BRANCH  14  15
HETATM   15  C11 UNL     1      24.768   3.992  50.166  1.00  0.00    -0.002 C 
HETATM   16  C12 UNL     1      25.642   4.684  49.463  1.00  0.00    -0.012 C 
BRANCH  16  17
HETATM   17  C13 UNL     1      27.014   4.188  49.209  1.00  0.00     0.141 C 
HETATM   18 CL1  UNL     1      27.996   5.450  48.437  1.00  0.00    -0.126 Cl
ENDBRANCH  16  17
ENDBRANCH  14  15
ENDBRANCH  11  13
ENDBRANCH   7  11
BRANCH   6  19
HETATM   19  C7  UNL     1      26.092  -0.174  54.429  1.00  0.00     0.179 C 
HETATM   20  O2  UNL     1      26.626   0.876  54.863  1.00  0.00    -0.646 OA
BRANCH  19  21
HETATM   21  O3  UNL     1      27.087  -1.045  54.008  1.00  0.00    -0.773 OA
HETATM   22  H6  UNL     1      27.464  -1.778  54.602  1.00  0.00     0.167 HD
ENDBRANCH  19  21
ENDBRANCH   6  19
BRANCH  10  23
HETATM   23  O4  UNL     1      19.561   0.501  51.269  1.00  0.00    -0.353 OA
HETATM   24  C17 UNL     1      19.122   1.826  51.150  1.00  0.00     0.210 C 
ENDBRANCH  10  23
BRANCH   1  25
HETATM   25  O1  UNL     1      18.521  -0.920  53.276  1.00  0.00    -0.353 OA
HETATM   26  C1  UNL     1      17.979  -2.185  53.567  1.00  0.00     0.210 C 
ENDBRANCH   1  25
TORSDOF 8
ENDMDL
MODEL 4
REMARK VINA RESULT:      -7.1      1.797      5.438
REMARK  8 active torsions:
REMARK  status: ('A' for Active; 'I' for Inactive)
REMARK    1  A    between atoms: O1_2  and  C2_3 
REMARK    2  A    between atoms: C6_8  and  C7_9 
REMARK    3  A    between atoms: C7_9  and  O3_11 
REMARK    4  A    between atoms: C8_12  and  N2_13 
REMARK    5  A    between atoms: N2_13  and  C9_14 
REMARK    6  A    between atoms: C10_15  and  C11_16 
REMARK    7  A    between atoms: C12_17  and  C13_18 
REMARK    8  A    between atoms: C16_22  and  O4_23 
ROOT
HETATM    1  C2  UNL     1      22.746  -0.460  53.596  1.00  0.00     0.103 A 
HETATM    2  C3  UNL     1      23.767  -0.722  54.519  1.00  0.00     0.072 A 
HETATM    3  C4  UNL     1      25.074  -0.296  54.265  1.00  0.00     0.071 A 
HETATM    4  N1  UNL     1      26.035  -0.566  55.175  1.00  0.00    -0.259 NA
HETATM    5  C5  UNL     1      27.279  -0.143  54.902  1.00  0.00     0.138 A 
HETATM    6  C6  UNL     1      27.559   0.537  53.739  1.00  0.00     0.082 A 
HETATM    7  C8  UNL     1      26.625   0.842  52.772  1.00  0.00     0.063 A 
HETATM    8  C14 UNL     1      25.343   0.381  53.102  1.00  0.00     0.023 A 
HETATM    9  C15 UNL     1      24.320   0.615  52.231  1.00  0.00     0.055 A 
HETATM   10  C16 UNL     1      23.009   0.232  52.404  1.00  0.00     0.102 A 
ENDROOT
BRANCH   7  11
HETATM   11  N2  UNL     1      26.802   1.514  51.563  1.00  0.00    -0.364 N 
HETATM   12  H7  UNL     1      27.116   0.836  50.832  1.00  0.00     0.165 HD
BRANCH  11  13
HETATM   13  C9  UNL     1      26.634   2.863  51.207  1.00  0.00     0.088 C 
HETATM   14  C10 UNL     1      26.792   3.229  49.970  1.00  0.00     0.017 C 
BRANCH  14  15
HETATM   15  C11 UNL     1      26.754   4.370  49.084  1.00  0.00    -0.002 C 
HETATM   16  C12 UNL     1      26.183   5.550  48.957  1.00  0.00    -0.012 C 
BRANCH  16  17
HETATM   17  C13 UNL     1      25.224   6.070  49.959  1.00  0.00     0.141 C 
HETATM   18 CL1  UNL     1      23.795   5.020  50.051  1.00  0.00    -0.126 Cl
ENDBRANCH  16  17
ENDBRANCH  14  15
ENDBRANCH  11  13
ENDBRANCH   7  11
BRANCH   6  19
HETATM   19  C7  UNL     1      28.920   0.989  53.489  1.00  0.00     0.179 C 
HETATM   20  O2  UNL     1      29.936   0.252  53.468  1.00  0.00    -0.646 OA
BRANCH  19  21
HETATM   21  O3  UNL     1      29.306   2.297  53.234  1.00  0.00    -0.773 OA
HETATM   22  H6  UNL     1      29.527   2.960  53.972  1.00  0.00     0.167 HD
ENDBRANCH  19  21
ENDBRANCH   6  19
BRANCH  10  23
HETATM   23  O4  UNL     1      21.905   0.412  51.604  1.00  0.00    -0.353 OA
HETATM   24  C17 UNL     1      21.906   1.225  50.463  1.00  0.00     0.210 C 
ENDBRANCH  10  23
BRANCH   1  25
HETATM   25  O1  UNL     1      21.472  -0.899  53.889  1.00  0.00    -0.353 OA
HETATM   26  C1  UNL     1      20.525  -0.124  54.583  1.00  0.00     0.210 C 
ENDBRANCH   1  25
TORSDOF 8
ENDMDL
MODEL 5
REMARK VINA RESULT:      -6.8      3.171      4.954
REMARK  8 active torsions:
REMARK  status: ('A' for Active; 'I' for Inactive)
REMARK    1  A    between atoms: O1_2  and  C2_3 
REMARK    2  A    between atoms: C6_8  and  C7_9 
REMARK    3  A    between atoms: C7_9  and  O3_11 
REMARK    4  A    between atoms: C8_12  and  N2_13 
REMARK    5  A    between atoms: N2_13  and  C9_14 
REMARK    6  A    between atoms: C10_15  and  C11_16 
REMARK    7  A    between atoms: C12_17  and  C13_18 
REMARK    8  A    between atoms: C16_22  and  O4_23 
ROOT
HETATM    1  C2  UNL     1      27.143   0.174  53.790  1.00  0.00     0.103 A 
HETATM    2  C3  UNL     1      27.482   1.042  52.744  1.00  0.00     0.072 A 
HETATM    3  C4  UNL     1      26.481   1.666  51.994  1.00  0.00     0.071 A 
HETATM    4  N1  UNL     1      26.842   2.497  50.991  1.00  0.00    -0.259 NA
HETATM    5  C5  UNL     1      25.858   3.081  50.291  1.00  0.00     0.138 A 
HETATM    6  C6  UNL     1      24.535   2.840  50.586  1.00  0.00     0.082 A 
HETATM    7  C8  UNL     1      24.103   2.004  51.594  1.00  0.00     0.063 A 
HETATM    8  C14 UNL     1      25.165   1.419  52.296  1.00  0.00     0.023 A 
HETATM    9  C15 UNL     1      24.880   0.567  53.322  1.00  0.00     0.055 A 
HETATM   10  C16 UNL     1      25.802  -0.087  54.108  1.00  0.00     0.102 A 
ENDROOT
BRANCH   7  11
HETATM   11  N2  UNL     1      22.798   1.685  51.968  1.00  0.00    -0.364 N 
HETATM   12  H7  UNL     1      22.502   2.305  52.756  1.00  0.00     0.165 HD
BRANCH  11  13
HETATM   13  C9  UNL     1      21.890   0.731  51.480  1.00  0.00     0.088 C 
HETATM   14  C10 UNL     1      20.612   0.926  51.618  1.00  0.00     0.017 C 
BRANCH  14  15
HETATM   15  C11 UNL     1      19.315   0.352  51.343  1.00  0.00    -0.002 C 
HETATM   16  C12 UNL     1      18.400  -0.422  51.891  1.00  0.00    -0.012 C 
BRANCH  16  17
HETATM   17  C13 UNL     1      18.569  -1.001  53.244  1.00  0.00     0.141 C 
HETATM   18 CL1  UNL     1      17.556  -2.448  53.430  1.00  0.00    -0.126 Cl
ENDBRANCH  16  17
ENDBRANCH  14  15
ENDBRANCH  11  13
ENDBRANCH   7  11
BRANCH   6  19
HETATM   19  C7  UNL     1      23.500   3.505  49.808  1.00  0.00     0.179 C 
HETATM   20  O2  UNL     1      23.409   3.487  48.557  1.00  0.00    -0.646 OA
BRANCH  19  21
HETATM   21  O3  UNL     1      22.455   4.258  50.326  1.00  0.00    -0.773 OA
HETATM   22  H6  UNL     1      22.602   5.122  50.841  1.00  0.00     0.167 HD
ENDBRANCH  19  21
ENDBRANCH   6  19
BRANCH  10  23
HETATM   23  O4  UNL     1      25.632  -0.958  55.160  1.00  0.00    -0.353 OA
HETATM   24  C17 UNL     1      24.378  -1.306  55.676  1.00  0.00     0.210 C 
ENDBRANCH  10  23
BRANCH   1  25
HETATM   25  O1  UNL     1      28.164  -0.420  54.503  1.00  0.00    -0.353 OA
HETATM   26  C1  UNL     1      29.398  -0.782  53.933  1.00  0.00     0.210 C 
ENDBRANCH   1  25
TORSDOF 8
ENDMDL
MODEL 6
REMARK VINA RESULT:      -6.7      2.760      5.215
REMARK  8 active torsions:
REMARK  status: ('A' for Active; 'I' for Inactive)
REMARK    1  A    between atoms: O1_2  and  C2_3 
REMARK    2  A    between atoms: C6_8  and  C7_9 
REMARK    3  A    between atoms: C7_9  and  O3_11 
REMARK    4  A    between atoms: C8_12  and  N2_13 
REMARK    5  A    between atoms: N2_13  and  C9_14 
REMARK    6  A    between atoms: C10_15  and  C11_16 
REMARK    7  A    between atoms: C12_17  and  C13_18 
REMARK    8  A    between atoms: C16_22  and  O4_23 
ROOT
HETATM    1  C2  UNL     1      24.432   3.644  49.990  1.00  0.00     0.103 A 
HETATM    2  C3  UNL     1      25.738   3.630  50.497  1.00  0.00     0.072 A 
HETATM    3  C4  UNL     1      26.152   2.603  51.351  1.00  0.00     0.071 A 
HETATM    4  N1  UNL     1      27.417   2.620  51.823  1.00  0.00    -0.259 NA
HETATM    5  C5  UNL     1      27.784   1.620  52.639  1.00  0.00     0.138 A 
HETATM    6  C6  UNL     1      26.902   0.619  52.979  1.00  0.00     0.082 A 
HETATM    7  C8  UNL     1      25.599   0.546  52.531  1.00  0.00     0.063 A 
HETATM    8  C14 UNL     1      25.264   1.610  51.683  1.00  0.00     0.023 A 
HETATM    9  C15 UNL     1      24.003   1.662  51.167  1.00  0.00     0.055 A 
HETATM   10  C16 UNL     1      23.516   2.634  50.323  1.00  0.00     0.102 A 
ENDROOT
BRANCH   7  11
HETATM   11  N2  UNL     1      24.627  -0.412  52.818  1.00  0.00    -0.364 N 
HETATM   12  H7  UNL     1      24.744  -1.228  52.175  1.00  0.00     0.165 HD
BRANCH  11  13
HETATM   13  C9  UNL     1      23.594  -0.442  53.770  1.00  0.00     0.088 C 
HETATM   14  C10 UNL     1      22.383  -0.736  53.399  1.00  0.00     0.017 C 
BRANCH  14  15
HETATM   15  C11 UNL     1      21.032  -0.908  53.882  1.00  0.00    -0.002 C 
HETATM   16  C12 UNL     1      19.789  -0.587  53.584  1.00  0.00    -0.012 C 
BRANCH  16  17
HETATM   17  C13 UNL     1      19.451   0.221  52.390  1.00  0.00     0.141 C 
HETATM   18 CL1  UNL     1      20.129   1.856  52.535  1.00  0.00    -0.126 Cl
ENDBRANCH  16  17
ENDBRANCH  14  15
ENDBRANCH  11  13
ENDBRANCH   7  11
BRANCH   6  19
HETATM   19  C7  UNL     1      27.345  -0.454  53.857  1.00  0.00     0.179 C 
HETATM   20  O2  UNL     1      27.743  -0.306  55.038  1.00  0.00    -0.646 OA
BRANCH  19  21
HETATM   21  O3  UNL     1      27.396  -1.801  53.529  1.00  0.00    -0.773 OA
HETATM   22  H6  UNL     1      27.525  -2.532  54.223  1.00  0.00     0.167 HD
ENDBRANCH  19  21
ENDBRANCH   6  19
BRANCH  10  23
HETATM   23  O4  UNL     1      22.277   2.787  49.744  1.00  0.00    -0.353 OA
HETATM   24  C17 UNL     1      21.837   2.024  48.655  1.00  0.00     0.210 C 
ENDBRANCH  10  23
BRANCH   1  25
HETATM   25  O1  UNL     1      24.067   4.677  49.151  1.00  0.00    -0.353 OA
HETATM   26  C1  UNL     1      24.260   6.034  49.466  1.00  0.00     0.210 C 
ENDBRANCH   1  25
TORSDOF 8
ENDMDL
MODEL 7
REMARK VINA RESULT:      -6.6      2.720      3.994
REMARK  8 active torsions:
REMARK  status: ('A' for Active; 'I' for Inactive)
REMARK    1  A    between atoms: O1_2  and  C2_3 
REMARK    2  A    between atoms: C6_8  and  C7_9 
REMARK    3  A    between atoms: C7_9  and  O3_11 
REMARK    4  A    between atoms: C8_12  and  N2_13 
REMARK    5  A    between atoms: N2_13  and  C9_14 
REMARK    6  A    between atoms: C10_15  and  C11_16 
REMARK    7  A    between atoms: C12_17  and  C13_18 
REMARK    8  A    between atoms: C16_22  and  O4_23 
ROOT
HETATM    1  C2  UNL     1      27.138  -0.343  53.499  1.00  0.00     0.103 A 
HETATM    2  C3  UNL     1      25.812  -0.796  53.491  1.00  0.00     0.072 A 
HETATM    3  C4  UNL     1      24.776   0.061  53.108  1.00  0.00     0.071 A 
HETATM    4  N1  UNL     1      23.509  -0.407  53.112  1.00  0.00    -0.259 NA
HETATM    5  C5  UNL     1      22.538   0.440  52.738  1.00  0.00     0.138 A 
HETATM    6  C6  UNL     1      22.826   1.734  52.367  1.00  0.00     0.082 A 
HETATM    7  C8  UNL     1      24.096   2.271  52.342  1.00  0.00     0.063 A 
HETATM    8  C14 UNL     1      25.075   1.350  52.739  1.00  0.00     0.023 A 
HETATM    9  C15 UNL     1      26.378   1.749  52.762  1.00  0.00     0.055 A 
HETATM   10  C16 UNL     1      27.455   0.972  53.125  1.00  0.00     0.102 A 
ENDROOT
BRANCH   7  11
HETATM   11  N2  UNL     1      24.496   3.561  51.993  1.00  0.00    -0.364 N 
HETATM   12  H7  UNL     1      24.689   4.110  52.861  1.00  0.00     0.165 HD
BRANCH  11  13
HETATM   13  C9  UNL     1      24.666   4.183  50.745  1.00  0.00     0.088 C 
HETATM   14  C10 UNL     1      25.862   4.346  50.263  1.00  0.00     0.017 C 
BRANCH  14  15
HETATM   15  C11 UNL     1      26.596   4.869  49.133  1.00  0.00    -0.002 C 
HETATM   16  C12 UNL     1      26.703   5.955  48.395  1.00  0.00    -0.012 C 
BRANCH  16  17
HETATM   17  C13 UNL     1      25.879   7.160  48.646  1.00  0.00     0.141 C 
HETATM   18 CL1  UNL     1      26.297   7.881  50.215  1.00  0.00    -0.126 Cl
ENDBRANCH  16  17
ENDBRANCH  14  15
ENDBRANCH  11  13
ENDBRANCH   7  11
BRANCH   6  19
HETATM   19  C7  UNL     1      21.743   2.615  51.956  1.00  0.00     0.179 C 
HETATM   20  O2  UNL     1      21.508   3.748  52.441  1.00  0.00    -0.646 OA
BRANCH  19  21
HETATM   21  O3  UNL     1      20.808   2.344  50.968  1.00  0.00    -0.773 OA
HETATM   22  H6  UNL     1      19.811   2.500  51.096  1.00  0.00     0.167 HD
ENDBRANCH  19  21
ENDBRANCH   6  19
BRANCH  10  23
HETATM   23  O4  UNL     1      28.798   1.264  53.183  1.00  0.00    -0.353 OA
HETATM   24  C17 UNL     1      29.376   2.025  54.207  1.00  0.00     0.210 C 
ENDBRANCH  10  23
BRANCH   1  25
HETATM   25  O1  UNL     1      28.127  -1.224  53.885  1.00  0.00    -0.353 OA
HETATM   26  C1  UNL     1      28.583  -2.279  53.074  1.00  0.00     0.210 C 
ENDBRANCH   1  25
TORSDOF 8
ENDMDL
MODEL 8
REMARK VINA RESULT:      -6.6      3.264      4.292
REMARK  8 active torsions:
REMARK  status: ('A' for Active; 'I' for Inactive)
REMARK    1  A    between atoms: O1_2  and  C2_3 
REMARK    2  A    between atoms: C6_8  and  C7_9 
REMARK    3  A    between atoms: C7_9  and  O3_11 
REMARK    4  A    between atoms: C8_12  and  N2_13 
REMARK    5  A    between atoms: N2_13  and  C9_14 
REMARK    6  A    between atoms: C10_15  and  C11_16 
REMARK    7  A    between atoms: C12_17  and  C13_18 
REMARK    8  A    between atoms: C16_22  and  O4_23 
ROOT
HETATM    1  C2  UNL     1      24.551   3.132  50.919  1.00  0.00     0.103 A 
HETATM    2  C3  UNL     1      25.195   1.992  51.417  1.00  0.00     0.072 A 
HETATM    3  C4  UNL     1      24.529   1.135  52.298  1.00  0.00     0.071 A 
HETATM    4  N1  UNL     1      25.179   0.044  52.761  1.00  0.00    -0.259 NA
HETATM    5  C5  UNL     1      24.512  -0.759  53.604  1.00  0.00     0.138 A 
HETATM    6  C6  UNL     1      23.218  -0.478  53.980  1.00  0.00     0.082 A 
HETATM    7  C8  UNL     1      22.502   0.617  53.544  1.00  0.00     0.063 A 
HETATM    8  C14 UNL     1      23.239   1.424  52.668  1.00  0.00     0.023 A 
HETATM    9  C15 UNL     1      22.651   2.544  52.159  1.00  0.00     0.055 A 
HETATM   10  C16 UNL     1      23.233   3.438  51.289  1.00  0.00     0.102 A 
ENDROOT
BRANCH   7  11
HETATM   11  N2  UNL     1      21.200   0.997  53.867  1.00  0.00    -0.364 N 
HETATM   12  H7  UNL     1      21.128   1.150  54.899  1.00  0.00     0.165 HD
BRANCH  11  13
HETATM   13  C9  UNL     1      20.057   1.194  53.074  1.00  0.00     0.088 C 
HETATM   14  C10 UNL     1      19.577   0.206  52.378  1.00  0.00     0.017 C 
BRANCH  14  15
HETATM   15  C11 UNL     1      18.523  -0.163  51.460  1.00  0.00    -0.002 C 
HETATM   16  C12 UNL     1      17.318  -0.695  51.445  1.00  0.00    -0.012 C 
BRANCH  16  17
HETATM   17  C13 UNL     1      16.634  -1.128  52.685  1.00  0.00     0.141 C 
HETATM   18 CL1  UNL     1      17.489  -2.503  53.416  1.00  0.00    -0.126 Cl
ENDBRANCH  16  17
ENDBRANCH  14  15
ENDBRANCH  11  13
ENDBRANCH   7  11
BRANCH   6  19
HETATM   19  C7  UNL     1      22.528  -1.384  54.887  1.00  0.00     0.179 C 
HETATM   20  O2  UNL     1      21.332  -1.748  54.775  1.00  0.00    -0.646 OA
BRANCH  19  21
HETATM   21  O3  UNL     1      23.080  -1.984  56.009  1.00  0.00    -0.773 OA
HETATM   22  H6  UNL     1      22.968  -1.607  56.946  1.00  0.00     0.167 HD
ENDBRANCH  19  21
ENDBRANCH   6  19
BRANCH  10  23
HETATM   23  O4  UNL     1      22.742   4.588  50.716  1.00  0.00    -0.353 OA
HETATM   24  C17 UNL     1      21.615   5.267  51.198  1.00  0.00     0.210 C 
ENDBRANCH  10  23
BRANCH   1  25
HETATM   25  O1  UNL     1      25.248   3.950  50.053  1.00  0.00    -0.353 OA
HETATM   26  C1  UNL     1      26.592   3.737  49.700  1.00  0.00     0.210 C 
ENDBRANCH   1  25
TORSDOF 8
ENDMDL
MODEL 9
REMARK VINA RESULT:      -6.3      3.210      6.242
REMARK  8 active torsions:
REMARK  status: ('A' for Active; 'I' for Inactive)
REMARK    1  A    between atoms: O1_2  and  C2_3 
REMARK    2  A    between atoms: C6_8  and  C7_9 
REMARK    3  A    between atoms: C7_9  and  O3_11 
REMARK    4  A    between atoms: C8_12  and  N2_13 
REMARK    5  A    between atoms: N2_13  and  C9_14 
REMARK    6  A    between atoms: C10_15  and  C11_16 
REMARK    7  A    between atoms: C12_17  and  C13_18 
REMARK    8  A    between atoms: C16_22  and  O4_23 
ROOT
HETATM    1  C2  UNL     1      21.891   5.384  50.646  1.00  0.00     0.103 A 
HETATM    2  C3  UNL     1      20.874   4.700  51.325  1.00  0.00     0.072 A 
HETATM    3  C4  UNL     1      21.138   3.471  51.936  1.00  0.00     0.071 A 
HETATM    4  N1  UNL     1      20.135   2.837  52.583  1.00  0.00    -0.259 NA
HETATM    5  C5  UNL     1      20.421   1.660  53.160  1.00  0.00     0.138 A 
HETATM    6  C6  UNL     1      21.686   1.124  53.093  1.00  0.00     0.082 A 
HETATM    7  C8  UNL     1      22.750   1.720  52.449  1.00  0.00     0.063 A 
HETATM    8  C14 UNL     1      22.404   2.945  51.864  1.00  0.00     0.023 A 
HETATM    9  C15 UNL     1      23.363   3.644  51.192  1.00  0.00     0.055 A 
HETATM   10  C16 UNL     1      23.188   4.856  50.565  1.00  0.00     0.102 A 
ENDROOT
BRANCH   7  11
HETATM   11  N2  UNL     1      24.061   1.262  52.315  1.00  0.00    -0.364 N 
HETATM   12  H7  UNL     1      24.130   0.650  51.471  1.00  0.00     0.165 HD
BRANCH  11  13
HETATM   13  C9  UNL     1      25.215   1.486  53.085  1.00  0.00     0.088 C 
HETATM   14  C10 UNL     1      25.715   0.519  53.794  1.00  0.00     0.017 C 
BRANCH  14  15
HETATM   15  C11 UNL     1      26.787   0.180  54.702  1.00  0.00    -0.002 C 
HETATM   16  C12 UNL     1      28.099   0.238  54.805  1.00  0.00    -0.012 C 
BRANCH  16  17
HETATM   17  C13 UNL     1      28.947   0.810  53.733  1.00  0.00     0.141 C 
HETATM   18 CL1  UNL     1      28.721   2.569  53.638  1.00  0.00    -0.126 Cl
ENDBRANCH  16  17
ENDBRANCH  14  15
ENDBRANCH  11  13
ENDBRANCH   7  11
BRANCH   6  19
HETATM   19  C7  UNL     1      21.955  -0.150  53.744  1.00  0.00     0.179 C 
HETATM   20  O2  UNL     1      21.648  -0.438  54.926  1.00  0.00    -0.646 OA
BRANCH  19  21
HETATM   21  O3  UNL     1      22.588  -1.240  53.163  1.00  0.00    -0.773 OA
HETATM   22  H6  UNL     1      22.504  -1.462  52.175  1.00  0.00     0.167 HD
ENDBRANCH  19  21
ENDBRANCH   6  19
BRANCH  10  23
HETATM   23  O4  UNL     1      24.073   5.645  49.867  1.00  0.00    -0.353 OA
HETATM   24  C17 UNL     1      25.021   6.470  50.486  1.00  0.00     0.210 C 
ENDBRANCH  10  23
BRANCH   1  25
HETATM   25  O1  UNL     1      21.585   6.594  50.057  1.00  0.00    -0.353 OA
HETATM   26  C1  UNL     1      20.845   6.710  48.867  1.00  0.00     0.210 C 
ENDBRANCH   1  25
TORSDOF 8
ENDMDL
