MODEL 1
REMARK VINA RESULT:     -11.1      0.000      0.000
REMARK  1 active torsions:
REMARK  status: ('A' for Active; 'I' for Inactive)
REMARK    1  A    between atoms: C20_26  and  N5_27 
ROOT
HETATM    1  C1  UNL     1      18.580   0.884  50.349  1.00  0.00     0.036 C 
HETATM    2  C2  UNL     1      19.163   0.270  51.577  1.00  0.00    -0.023 C 
HETATM    3  C3  UNL     1      19.899   0.541  52.609  1.00  0.00    -0.050 C 
HETATM    4  C4  UNL     1      20.676   0.447  53.888  1.00  0.00     0.067 C 
HETATM    5  C5  UNL     1      20.754  -0.911  54.436  1.00  0.00    -0.003 C 
HETATM    6  C6  UNL     1      22.054  -1.307  54.589  1.00  0.00     0.112 C 
HETATM    7  N1  UNL     1      23.049  -0.378  54.214  1.00  0.00    -0.272 NA
HETATM    8  C7  UNL     1      24.089  -0.577  53.503  1.00  0.00     0.130 C 
HETATM    9  C8  UNL     1      25.224   0.211  53.001  1.00  0.00     0.013 A 
HETATM   10  C9  UNL     1      26.320  -0.220  53.714  1.00  0.00     0.039 A 
HETATM   11  C10 UNL     1      27.637   0.241  53.590  1.00  0.00     0.037 A 
HETATM   12 CL1  UNL     1      29.017  -0.321  54.508  1.00  0.00    -0.084 Cl
HETATM   13  C11 UNL     1      27.793   1.226  52.639  1.00  0.00     0.068 A 
HETATM   14  C12 UNL     1      26.706   1.667  51.916  1.00  0.00     0.145 A 
HETATM   15  F1  UNL     1      27.045   2.637  51.017  1.00  0.00    -0.204 F 
HETATM   16  C13 UNL     1      25.420   1.195  52.061  1.00  0.00     0.084 A 
HETATM   17  N2  UNL     1      24.596   1.926  51.119  1.00  0.00    -0.335 N 
HETATM   18  C14 UNL     1      23.513   2.825  51.448  1.00  0.00     0.176 A 
HETATM   19  C15 UNL     1      22.240   2.752  51.677  1.00  0.00     0.104 A 
HETATM   20  C16 UNL     1      21.550   1.482  51.629  1.00  0.00    -0.021 C 
HETATM   21  C17 UNL     1      22.041   0.218  51.080  1.00  0.00     0.051 C 
HETATM   22  C18 UNL     1      20.367   1.892  52.161  1.00  0.00    -0.024 C 
HETATM   23  C19 UNL     1      20.151   3.340  52.126  1.00  0.00     0.189 C 
HETATM   24  N3  UNL     1      21.526   3.873  52.150  1.00  0.00    -0.270 N 
HETATM   25  N4  UNL     1      22.176   5.085  52.386  1.00  0.00    -0.128 N 
HETATM   26  C20 UNL     1      23.572   5.132  52.123  1.00  0.00     0.714 A 
HETATM   27  N6  UNL     1      24.205   4.068  51.680  1.00  0.00    -0.043 NA
HETATM   28  H12 UNL     1      24.750   1.856  50.093  1.00  0.00     0.168 HD
HETATM   29  H18 UNL     1      21.533   5.821  52.736  1.00  0.00     0.206 HD
ENDROOT
BRANCH  26  30
HETATM   30  N5  UNL     1      24.150   6.416  52.390  1.00  0.00    -0.231 N 
HETATM   31  H19 UNL     1      24.900   6.876  51.843  1.00  0.00     0.174 HD
HETATM   32  H20 UNL     1      23.883   7.059  53.182  1.00  0.00     0.174 HD
ENDBRANCH  26  30
TORSDOF 1
ENDMDL
MODEL 2
REMARK VINA RESULT:      -8.9      3.342      5.997
REMARK  1 active torsions:
REMARK  status: ('A' for Active; 'I' for Inactive)
REMARK    1  A    between atoms: C20_26  and  N5_27 
ROOT
HETATM    1  C1  UNL     1      24.824   7.730  49.421  1.00  0.00     0.036 C 
HETATM    2  C2  UNL     1      25.481   6.421  49.706  1.00  0.00    -0.023 C 
HETATM    3  C3  UNL     1      25.351   5.145  49.513  1.00  0.00    -0.050 C 
HETATM    4  C4  UNL     1      25.563   3.661  49.510  1.00  0.00     0.067 C 
HETATM    5  C5  UNL     1      26.705   3.224  50.319  1.00  0.00    -0.003 C 
HETATM    6  C6  UNL     1      26.317   2.329  51.277  1.00  0.00     0.112 C 
HETATM    7  N1  UNL     1      24.945   1.994  51.316  1.00  0.00    -0.272 NA
HETATM    8  C7  UNL     1      24.174   1.938  52.329  1.00  0.00     0.130 C 
HETATM    9  C8  UNL     1      22.763   1.624  52.599  1.00  0.00     0.013 A 
HETATM   10  C9  UNL     1      22.769   0.408  53.245  1.00  0.00     0.039 A 
HETATM   11  C10 UNL     1      21.654  -0.305  53.704  1.00  0.00     0.037 A 
HETATM   12 CL1  UNL     1      21.684  -1.851  54.523  1.00  0.00    -0.084 Cl
HETATM   13  C11 UNL     1      20.453   0.324  53.457  1.00  0.00     0.068 A 
HETATM   14  C12 UNL     1      20.430   1.542  52.813  1.00  0.00     0.145 A 
HETATM   15  F1  UNL     1      19.161   2.020  52.660  1.00  0.00    -0.204 F 
HETATM   16  C13 UNL     1      21.545   2.221  52.371  1.00  0.00     0.084 A 
HETATM   17  N2  UNL     1      21.074   3.444  51.753  1.00  0.00    -0.335 N 
HETATM   18  C14 UNL     1      21.215   3.807  50.361  1.00  0.00     0.176 A 
HETATM   19  C15 UNL     1      22.085   4.397  49.605  1.00  0.00     0.104 A 
HETATM   20  C16 UNL     1      23.327   4.895  50.154  1.00  0.00    -0.021 C 
HETATM   21  C17 UNL     1      23.671   5.077  51.563  1.00  0.00     0.051 C 
HETATM   22  C18 UNL     1      23.951   5.174  48.979  1.00  0.00    -0.024 C 
HETATM   23  C19 UNL     1      23.059   5.283  47.823  1.00  0.00     0.189 C 
HETATM   24  N3  UNL     1      21.929   4.415  48.203  1.00  0.00    -0.270 N 
HETATM   25  N4  UNL     1      20.836   3.793  47.598  1.00  0.00    -0.128 N 
HETATM   26  C20 UNL     1      19.899   3.157  48.456  1.00  0.00     0.714 A 
HETATM   27  N6  UNL     1      20.074   3.162  49.759  1.00  0.00    -0.043 NA
HETATM   28  H12 UNL     1      20.567   4.170  52.299  1.00  0.00     0.168 HD
HETATM   29  H18 UNL     1      20.850   3.880  46.564  1.00  0.00     0.206 HD
ENDROOT
BRANCH  26  30
HETATM   30  N5  UNL     1      18.810   2.552  47.747  1.00  0.00    -0.231 N 
HETATM   31  H19 UNL     1      17.803   2.650  47.969  1.00  0.00     0.174 HD
HETATM   32  H20 UNL     1      18.897   1.925  46.903  1.00  0.00     0.174 HD
ENDBRANCH  26  30
TORSDOF 1
ENDMDL
MODEL 3
REMARK VINA RESULT:      -8.8      2.675      3.879
REMARK  1 active torsions:
REMARK  status: ('A' for Active; 'I' for Inactive)
REMARK    1  A    between atoms: C20_26  and  N5_27 
ROOT
HETATM    1  C1  UNL     1      20.298   3.898  45.869  1.00  0.00     0.036 C 
HETATM    2  C2  UNL     1      19.533   3.208  46.949  1.00  0.00    -0.023 C 
HETATM    3  C3  UNL     1      19.340   3.210  48.230  1.00  0.00    -0.050 C 
HETATM    4  C4  UNL     1      18.855   2.895  49.614  1.00  0.00     0.067 C 
HETATM    5  C5  UNL     1      17.987   1.715  49.683  1.00  0.00    -0.003 C 
HETATM    6  C6  UNL     1      18.491   0.782  50.546  1.00  0.00     0.112 C 
HETATM    7  N1  UNL     1      19.704   1.105  51.193  1.00  0.00    -0.272 NA
HETATM    8  C7  UNL     1      20.743   0.379  51.333  1.00  0.00     0.130 C 
HETATM    9  C8  UNL     1      22.073   0.501  51.947  1.00  0.00     0.013 A 
HETATM   10  C9  UNL     1      22.047  -0.314  53.056  1.00  0.00     0.039 A 
HETATM   11  C10 UNL     1      23.089  -0.528  53.967  1.00  0.00     0.037 A 
HETATM   12 CL1  UNL     1      23.035  -1.569  55.372  1.00  0.00    -0.084 Cl
HETATM   13  C11 UNL     1      24.237   0.175  53.671  1.00  0.00     0.068 A 
HETATM   14  C12 UNL     1      24.280   0.995  52.564  1.00  0.00     0.145 A 
HETATM   15  F1  UNL     1      25.493   1.605  52.421  1.00  0.00    -0.204 F 
HETATM   16  C13 UNL     1      23.237   1.186  51.685  1.00  0.00     0.084 A 
HETATM   17  N2  UNL     1      23.702   2.118  50.677  1.00  0.00    -0.335 N 
HETATM   18  C14 UNL     1      23.178   3.442  50.430  1.00  0.00     0.176 A 
HETATM   19  C15 UNL     1      22.238   3.988  49.726  1.00  0.00     0.104 A 
HETATM   20  C16 UNL     1      21.373   3.181  48.894  1.00  0.00    -0.021 C 
HETATM   21  C17 UNL     1      21.561   1.787  48.496  1.00  0.00     0.051 C 
HETATM   22  C18 UNL     1      20.458   4.141  48.591  1.00  0.00    -0.024 C 
HETATM   23  C19 UNL     1      20.916   5.514  48.813  1.00  0.00     0.189 C 
HETATM   24  N3  UNL     1      21.916   5.352  49.884  1.00  0.00    -0.270 N 
HETATM   25  N4  UNL     1      22.601   6.144  50.807  1.00  0.00    -0.128 N 
HETATM   26  C20 UNL     1      23.628   5.516  51.561  1.00  0.00     0.714 A 
HETATM   27  N6  UNL     1      23.903   4.242  51.386  1.00  0.00    -0.043 NA
HETATM   28  H12 UNL     1      24.493   1.884  50.044  1.00  0.00     0.168 HD
HETATM   29  H18 UNL     1      22.259   7.125  50.822  1.00  0.00     0.206 HD
ENDROOT
BRANCH  26  30
HETATM   30  N5  UNL     1      24.278   6.408  52.476  1.00  0.00    -0.231 N 
HETATM   31  H19 UNL     1      24.786   6.140  53.338  1.00  0.00     0.174 HD
HETATM   32  H20 UNL     1      24.321   7.458  52.386  1.00  0.00     0.174 HD
ENDBRANCH  26  30
TORSDOF 1
ENDMDL
MODEL 4
REMARK VINA RESULT:      -8.7      3.610      7.120
REMARK  1 active torsions:
REMARK  status: ('A' for Active; 'I' for Inactive)
REMARK    1  A    between atoms: C20_26  and  N5_27 
ROOT
HETATM    1  C1  UNL     1      26.574   3.063  49.333  1.00  0.00     0.036 C 
HETATM    2  C2  UNL     1      25.627   4.091  49.855  1.00  0.00    -0.023 C 
HETATM    3  C3  UNL     1      24.790   4.320  50.818  1.00  0.00    -0.050 C 
HETATM    4  C4  UNL     1      23.775   4.950  51.725  1.00  0.00     0.067 C 
HETATM    5  C5  UNL     1      23.263   6.235  51.239  1.00  0.00    -0.003 C 
HETATM    6  C6  UNL     1      21.902   6.206  51.108  1.00  0.00     0.112 C 
HETATM    7  N1  UNL     1      21.257   4.997  51.453  1.00  0.00    -0.272 NA
HETATM    8  C7  UNL     1      20.362   4.365  50.800  1.00  0.00     0.130 C 
HETATM    9  C8  UNL     1      19.575   3.133  50.959  1.00  0.00     0.013 A 
HETATM   10  C9  UNL     1      18.288   3.546  51.222  1.00  0.00     0.039 A 
HETATM   11  C10 UNL     1      17.174   2.728  51.450  1.00  0.00     0.037 A 
HETATM   12 CL1  UNL     1      15.545   3.273  51.784  1.00  0.00    -0.084 Cl
HETATM   13  C11 UNL     1      17.453   1.380  51.390  1.00  0.00     0.068 A 
HETATM   14  C12 UNL     1      18.736   0.951  51.126  1.00  0.00     0.145 A 
HETATM   15  F1  UNL     1      18.828  -0.411  51.097  1.00  0.00    -0.204 F 
HETATM   16  C13 UNL     1      19.815   1.780  50.907  1.00  0.00     0.084 A 
HETATM   17  N2  UNL     1      20.961   0.925  50.673  1.00  0.00    -0.335 N 
HETATM   18  C14 UNL     1      22.142   0.834  51.501  1.00  0.00     0.176 A 
HETATM   19  C15 UNL     1      23.288   1.428  51.609  1.00  0.00     0.104 A 
HETATM   20  C16 UNL     1      23.644   2.516  50.725  1.00  0.00    -0.021 C 
HETATM   21  C17 UNL     1      22.981   2.914  49.484  1.00  0.00     0.051 C 
HETATM   22  C18 UNL     1      24.762   2.931  51.380  1.00  0.00    -0.024 C 
HETATM   23  C19 UNL     1      25.325   1.949  52.309  1.00  0.00     0.189 C 
HETATM   24  N3  UNL     1      24.144   1.155  52.696  1.00  0.00    -0.270 N 
HETATM   25  N4  UNL     1      23.774   0.240  53.683  1.00  0.00    -0.128 N 
HETATM   26  C20 UNL     1      22.512  -0.396  53.534  1.00  0.00     0.714 A 
HETATM   27  N6  UNL     1      21.741  -0.119  52.506  1.00  0.00    -0.043 NA
HETATM   28  H12 UNL     1      21.001   0.279  49.859  1.00  0.00     0.168 HD
HETATM   29  H18 UNL     1      24.494   0.139  54.424  1.00  0.00     0.206 HD
ENDROOT
BRANCH  26  30
HETATM   30  N5  UNL     1      22.222  -1.321  54.590  1.00  0.00    -0.231 N 
HETATM   31  H19 UNL     1      21.678  -1.121  55.448  1.00  0.00     0.174 HD
HETATM   32  H20 UNL     1      22.529  -2.329  54.627  1.00  0.00     0.174 HD
ENDBRANCH  26  30
TORSDOF 1
ENDMDL
MODEL 5
REMARK VINA RESULT:      -8.7      2.530      5.168
REMARK  1 active torsions:
REMARK  status: ('A' for Active; 'I' for Inactive)
REMARK    1  A    between atoms: C20_26  and  N5_27 
ROOT
HETATM    1  C1  UNL     1      22.456   7.810  50.833  1.00  0.00     0.036 C 
HETATM    2  C2  UNL     1      23.590   7.067  50.209  1.00  0.00    -0.023 C 
HETATM    3  C3  UNL     1      23.893   5.936  49.653  1.00  0.00    -0.050 C 
HETATM    4  C4  UNL     1      24.623   4.812  48.982  1.00  0.00     0.067 C 
HETATM    5  C5  UNL     1      26.061   5.049  48.825  1.00  0.00    -0.003 C 
HETATM    6  C6  UNL     1      26.792   4.061  49.424  1.00  0.00     0.112 C 
HETATM    7  N1  UNL     1      26.066   3.028  50.057  1.00  0.00    -0.272 NA
HETATM    8  C7  UNL     1      26.249   2.528  51.216  1.00  0.00     0.130 C 
HETATM    9  C8  UNL     1      25.640   1.485  52.053  1.00  0.00     0.013 A 
HETATM   10  C9  UNL     1      26.551   0.454  52.084  1.00  0.00     0.039 A 
HETATM   11  C10 UNL     1      26.415  -0.767  52.758  1.00  0.00     0.037 A 
HETATM   12 CL1  UNL     1      27.587  -2.066  52.785  1.00  0.00    -0.084 Cl
HETATM   13  C11 UNL     1      25.228  -0.893  53.445  1.00  0.00     0.068 A 
HETATM   14  C12 UNL     1      24.305   0.131  53.424  1.00  0.00     0.145 A 
HETATM   15  F1  UNL     1      23.195  -0.161  54.163  1.00  0.00    -0.204 F 
HETATM   16  C13 UNL     1      24.466   1.323  52.751  1.00  0.00     0.084 A 
HETATM   17  N2  UNL     1      23.269   2.104  52.990  1.00  0.00    -0.335 N 
HETATM   18  C14 UNL     1      22.310   2.525  51.994  1.00  0.00     0.176 A 
HETATM   19  C15 UNL     1      22.143   3.517  51.179  1.00  0.00     0.104 A 
HETATM   20  C16 UNL     1      23.102   4.598  51.122  1.00  0.00    -0.021 C 
HETATM   21  C17 UNL     1      24.167   4.899  52.078  1.00  0.00     0.051 C 
HETATM   22  C18 UNL     1      22.630   5.207  50.002  1.00  0.00    -0.024 C 
HETATM   23  C19 UNL     1      21.259   4.843  49.640  1.00  0.00     0.189 C 
HETATM   24  N3  UNL     1      21.125   3.487  50.203  1.00  0.00    -0.270 N 
HETATM   25  N4  UNL     1      20.276   2.385  50.092  1.00  0.00    -0.128 N 
HETATM   26  C20 UNL     1      20.483   1.314  51.003  1.00  0.00     0.714 A 
HETATM   27  N6  UNL     1      21.441   1.377  51.902  1.00  0.00    -0.043 NA
HETATM   28  H12 UNL     1      23.006   2.417  53.947  1.00  0.00     0.168 HD
HETATM   29  H18 UNL     1      19.577   2.495  49.331  1.00  0.00     0.206 HD
ENDROOT
BRANCH  26  30
HETATM   30  N5  UNL     1      19.562   0.232  50.817  1.00  0.00    -0.231 N 
HETATM   31  H19 UNL     1      19.445  -0.588  51.438  1.00  0.00     0.174 HD
HETATM   32  H20 UNL     1      18.882   0.134  50.017  1.00  0.00     0.174 HD
ENDBRANCH  26  30
TORSDOF 1
ENDMDL
MODEL 6
REMARK VINA RESULT:      -8.4      3.801      6.223
REMARK  1 active torsions:
REMARK  status: ('A' for Active; 'I' for Inactive)
REMARK    1  A    between atoms: C20_26  and  N5_27 
ROOT
HETATM    1  C1  UNL     1      21.624  -0.193  54.442  1.00  0.00     0.036 C 
HETATM    2  C2  UNL     1      20.799   0.002  53.214  1.00  0.00    -0.023 C 
HETATM    3  C3  UNL     1      20.868   0.412  51.986  1.00  0.00    -0.050 C 
HETATM    4  C4  UNL     1      20.537   0.786  50.573  1.00  0.00     0.067 C 
HETATM    5  C5  UNL     1      19.110   0.682  50.251  1.00  0.00    -0.003 C 
HETATM    6  C6  UNL     1      18.617   1.876  49.802  1.00  0.00     0.112 C 
HETATM    7  N1  UNL     1      19.531   2.952  49.727  1.00  0.00    -0.272 NA
HETATM    8  C7  UNL     1      19.377   4.149  50.137  1.00  0.00     0.130 C 
HETATM    9  C8  UNL     1      20.161   5.392  50.164  1.00  0.00     0.013 A 
HETATM   10  C9  UNL     1      19.563   6.229  49.250  1.00  0.00     0.039 A 
HETATM   11  C10 UNL     1      19.956   7.533  48.921  1.00  0.00     0.037 A 
HETATM   12 CL1  UNL     1      19.181   8.581  47.753  1.00  0.00    -0.084 Cl
HETATM   13  C11 UNL     1      21.061   7.972  49.618  1.00  0.00     0.068 A 
HETATM   14  C12 UNL     1      21.671   7.146  50.537  1.00  0.00     0.145 A 
HETATM   15  F1  UNL     1      22.742   7.744  51.136  1.00  0.00    -0.204 F 
HETATM   16  C13 UNL     1      21.261   5.866  50.840  1.00  0.00     0.084 A 
HETATM   17  N2  UNL     1      22.173   5.360  51.846  1.00  0.00    -0.335 N 
HETATM   18  C14 UNL     1      23.076   4.241  51.696  1.00  0.00     0.176 A 
HETATM   19  C15 UNL     1      23.047   2.956  51.852  1.00  0.00     0.104 A 
HETATM   20  C16 UNL     1      21.843   2.290  52.296  1.00  0.00    -0.021 C 
HETATM   21  C17 UNL     1      20.648   2.899  52.879  1.00  0.00     0.051 C 
HETATM   22  C18 UNL     1      22.240   1.011  52.061  1.00  0.00    -0.024 C 
HETATM   23  C19 UNL     1      23.687   0.836  51.922  1.00  0.00     0.189 C 
HETATM   24  N3  UNL     1      24.126   2.153  51.426  1.00  0.00    -0.270 N 
HETATM   25  N4  UNL     1      25.248   2.725  50.824  1.00  0.00    -0.128 N 
HETATM   26  C20 UNL     1      25.249   4.138  50.671  1.00  0.00     0.714 A 
HETATM   27  N6  UNL     1      24.226   4.856  51.082  1.00  0.00    -0.043 NA
HETATM   28  H12 UNL     1      22.248   5.803  52.784  1.00  0.00     0.168 HD
HETATM   29  H18 UNL     1      25.961   2.019  50.557  1.00  0.00     0.206 HD
ENDROOT
BRANCH  26  30
HETATM   30  N5  UNL     1      26.441   4.634  50.049  1.00  0.00    -0.231 N 
HETATM   31  H19 UNL     1      26.490   5.230  49.203  1.00  0.00     0.174 HD
HETATM   32  H20 UNL     1      27.427   4.452  50.377  1.00  0.00     0.174 HD
ENDBRANCH  26  30
TORSDOF 1
ENDMDL
MODEL 7
REMARK VINA RESULT:      -8.4      2.856      3.790
REMARK  1 active torsions:
REMARK  status: ('A' for Active; 'I' for Inactive)
REMARK    1  A    between atoms: C20_26  and  N5_27 
ROOT
HETATM    1  C1  UNL     1      20.876   4.130  45.681  1.00  0.00     0.036 C 
HETATM    2  C2  UNL     1      20.401   3.569  46.979  1.00  0.00    -0.023 C 
HETATM    3  C3  UNL     1      20.487   3.737  48.262  1.00  0.00    -0.050 C 
HETATM    4  C4  UNL     1      20.329   3.597  49.746  1.00  0.00     0.067 C 
HETATM    5  C5  UNL     1      19.565   2.413  50.151  1.00  0.00    -0.003 C 
HETATM    6  C6  UNL     1      20.296   1.619  50.992  1.00  0.00     0.112 C 
HETATM    7  N1  UNL     1      21.599   2.061  51.311  1.00  0.00    -0.272 NA
HETATM    8  C7  UNL     1      22.684   1.392  51.308  1.00  0.00     0.130 C 
HETATM    9  C8  UNL     1      24.105   1.634  51.594  1.00  0.00     0.013 A 
HETATM   10  C9  UNL     1      24.364   0.975  52.775  1.00  0.00     0.039 A 
HETATM   11  C10 UNL     1      25.588   0.917  53.453  1.00  0.00     0.037 A 
HETATM   12 CL1  UNL     1      25.897   0.072  54.955  1.00  0.00    -0.084 Cl
HETATM   13  C11 UNL     1      26.604   1.607  52.827  1.00  0.00     0.068 A 
HETATM   14  C12 UNL     1      26.361   2.271  51.644  1.00  0.00     0.145 A 
HETATM   15  F1  UNL     1      27.477   2.892  51.163  1.00  0.00    -0.204 F 
HETATM   16  C13 UNL     1      25.144   2.312  50.999  1.00  0.00     0.084 A 
HETATM   17  N2  UNL     1      25.328   3.113  49.806  1.00  0.00    -0.335 N 
HETATM   18  C14 UNL     1      24.687   4.376  49.517  1.00  0.00     0.176 A 
HETATM   19  C15 UNL     1      23.588   4.794  48.974  1.00  0.00     0.104 A 
HETATM   20  C16 UNL     1      22.613   3.858  48.460  1.00  0.00    -0.021 C 
HETATM   21  C17 UNL     1      22.792   2.429  48.208  1.00  0.00     0.051 C 
HETATM   22  C18 UNL     1      21.601   4.741  48.249  1.00  0.00    -0.024 C 
HETATM   23  C19 UNL     1      22.015   6.144  48.191  1.00  0.00     0.189 C 
HETATM   24  N3  UNL     1      23.229   6.157  49.028  1.00  0.00    -0.270 N 
HETATM   25  N4  UNL     1      24.049   7.086  49.671  1.00  0.00    -0.128 N 
HETATM   26  C20 UNL     1      25.249   6.595  50.253  1.00  0.00     0.714 A 
HETATM   27  N6  UNL     1      25.553   5.318  50.182  1.00  0.00    -0.043 NA
HETATM   28  H12 UNL     1      25.977   2.819  49.048  1.00  0.00     0.168 HD
HETATM   29  H18 UNL     1      23.662   8.049  49.638  1.00  0.00     0.206 HD
ENDROOT
BRANCH  26  30
HETATM   30  N5  UNL     1      26.026   7.621  50.884  1.00  0.00    -0.231 N 
HETATM   31  H19 UNL     1      25.687   8.306  51.583  1.00  0.00     0.174 HD
HETATM   32  H20 UNL     1      27.050   7.809  50.714  1.00  0.00     0.174 HD
ENDBRANCH  26  30
TORSDOF 1
ENDMDL
MODEL 8
REMARK VINA RESULT:      -8.3      4.256      7.541
REMARK  1 active torsions:
REMARK  status: ('A' for Active; 'I' for Inactive)
REMARK    1  A    between atoms: C20_26  and  N5_27 
ROOT
HETATM    1  C1  UNL     1      25.354   0.474  51.987  1.00  0.00     0.036 C 
HETATM    2  C2  UNL     1      24.725   1.823  52.083  1.00  0.00    -0.023 C 
HETATM    3  C3  UNL     1      23.671   2.433  52.528  1.00  0.00    -0.050 C 
HETATM    4  C4  UNL     1      22.652   3.475  52.880  1.00  0.00     0.067 C 
HETATM    5  C5  UNL     1      22.957   4.807  52.348  1.00  0.00    -0.003 C 
HETATM    6  C6  UNL     1      21.938   5.269  51.562  1.00  0.00     0.112 C 
HETATM    7  N1  UNL     1      20.818   4.422  51.412  1.00  0.00    -0.272 NA
HETATM    8  C7  UNL     1      20.204   4.106  50.340  1.00  0.00     0.130 C 
HETATM    9  C8  UNL     1      19.055   3.272  49.956  1.00  0.00     0.013 A 
HETATM   10  C9  UNL     1      18.061   4.152  49.596  1.00  0.00     0.039 A 
HETATM   11  C10 UNL     1      16.771   3.828  49.155  1.00  0.00     0.037 A 
HETATM   12 CL1  UNL     1      15.519   4.964  48.702  1.00  0.00    -0.084 Cl
HETATM   13  C11 UNL     1      16.529   2.473  49.095  1.00  0.00     0.068 A 
HETATM   14  C12 UNL     1      17.515   1.578  49.452  1.00  0.00     0.145 A 
HETATM   15  F1  UNL     1      17.105   0.283  49.325  1.00  0.00    -0.204 F 
HETATM   16  C13 UNL     1      18.777   1.927  49.883  1.00  0.00     0.084 A 
HETATM   17  N2  UNL     1      19.484   0.692  50.153  1.00  0.00    -0.335 N 
HETATM   18  C14 UNL     1      19.974   0.250  51.439  1.00  0.00     0.176 A 
HETATM   19  C15 UNL     1      21.041   0.388  52.160  1.00  0.00     0.104 A 
HETATM   20  C16 UNL     1      22.156   1.179  51.689  1.00  0.00    -0.021 C 
HETATM   21  C17 UNL     1      22.391   1.674  50.333  1.00  0.00     0.051 C 
HETATM   22  C18 UNL     1      22.864   1.212  52.850  1.00  0.00    -0.024 C 
HETATM   23  C19 UNL     1      22.491   0.184  53.823  1.00  0.00     0.189 C 
HETATM   24  N3  UNL     1      21.078  -0.079  53.491  1.00  0.00    -0.270 N 
HETATM   25  N4  UNL     1      19.965  -0.695  54.062  1.00  0.00    -0.128 N 
HETATM   26  C20 UNL     1      18.811  -0.833  53.244  1.00  0.00     0.714 A 
HETATM   27  N6  UNL     1      18.812  -0.388  52.006  1.00  0.00    -0.043 NA
HETATM   28  H12 UNL     1      19.683   0.003  49.399  1.00  0.00     0.168 HD
HETATM   29  H18 UNL     1      20.129  -0.984  55.046  1.00  0.00     0.206 HD
ENDROOT
BRANCH  26  30
HETATM   30  N5  UNL     1      17.722  -1.481  53.913  1.00  0.00    -0.231 N 
HETATM   31  H19 UNL     1      16.904  -1.930  53.463  1.00  0.00     0.174 HD
HETATM   32  H20 UNL     1      17.615  -1.584  54.957  1.00  0.00     0.174 HD
ENDBRANCH  26  30
TORSDOF 1
ENDMDL
MODEL 9
REMARK VINA RESULT:      -8.1      8.691     12.201
REMARK  1 active torsions:
REMARK  status: ('A' for Active; 'I' for Inactive)
REMARK    1  A    between atoms: C20_26  and  N5_27 
ROOT
HETATM    1  C1  UNL     1      32.223  11.608  44.626  1.00  0.00     0.036 C 
HETATM    2  C2  UNL     1      31.388  12.115  45.754  1.00  0.00    -0.023 C 
HETATM    3  C3  UNL     1      31.078  11.874  46.989  1.00  0.00    -0.050 C 
HETATM    4  C4  UNL     1      30.480  11.940  48.362  1.00  0.00     0.067 C 
HETATM    5  C5  UNL     1      29.459  12.982  48.515  1.00  0.00    -0.003 C 
HETATM    6  C6  UNL     1      28.269  12.449  48.928  1.00  0.00     0.112 C 
HETATM    7  N1  UNL     1      28.235  11.052  49.130  1.00  0.00    -0.272 NA
HETATM    8  C7  UNL     1      27.359  10.217  48.729  1.00  0.00     0.130 C 
HETATM    9  C8  UNL     1      27.124   8.768  48.817  1.00  0.00     0.013 A 
HETATM   10  C9  UNL     1      26.057   8.615  49.674  1.00  0.00     0.039 A 
HETATM   11  C10 UNL     1      25.465   7.410  50.072  1.00  0.00     0.037 A 
HETATM   12 CL1  UNL     1      24.108   7.238  51.163  1.00  0.00    -0.084 Cl
HETATM   13  C11 UNL     1      26.052   6.294  49.516  1.00  0.00     0.068 A 
HETATM   14  C12 UNL     1      27.120   6.429  48.657  1.00  0.00     0.145 A 
HETATM   15  F1  UNL     1      27.568   5.225  48.198  1.00  0.00    -0.204 F 
HETATM   16  C13 UNL     1      27.683   7.630  48.283  1.00  0.00     0.084 A 
HETATM   17  N2  UNL     1      28.772   7.321  47.379  1.00  0.00    -0.335 N 
HETATM   18  C14 UNL     1      30.175   7.582  47.609  1.00  0.00     0.176 A 
HETATM   19  C15 UNL     1      31.014   8.551  47.426  1.00  0.00     0.104 A 
HETATM   20  C16 UNL     1      30.588   9.799  46.832  1.00  0.00    -0.021 C 
HETATM   21  C17 UNL     1      29.335  10.071  46.127  1.00  0.00     0.051 C 
HETATM   22  C18 UNL     1      31.712  10.520  47.085  1.00  0.00    -0.024 C 
HETATM   23  C19 UNL     1      32.899   9.716  47.387  1.00  0.00     0.189 C 
HETATM   24  N3  UNL     1      32.320   8.486  47.957  1.00  0.00    -0.270 N 
HETATM   25  N4  UNL     1      32.735   7.377  48.696  1.00  0.00    -0.128 N 
HETATM   26  C20 UNL     1      31.790   6.331  48.877  1.00  0.00     0.714 A 
HETATM   27  N6  UNL     1      30.583   6.424  48.365  1.00  0.00    -0.043 NA
HETATM   28  H12 UNL     1      28.604   6.853  46.465  1.00  0.00     0.168 HD
HETATM   29  H18 UNL     1      33.714   7.464  49.029  1.00  0.00     0.206 HD
ENDROOT
BRANCH  26  30
HETATM   30  N5  UNL     1      32.307   5.234  49.642  1.00  0.00    -0.231 N 
HETATM   31  H19 UNL     1      33.289   4.902  49.653  1.00  0.00     0.174 HD
HETATM   32  H20 UNL     1      31.750   4.622  50.295  1.00  0.00     0.174 HD
ENDBRANCH  26  30
TORSDOF 1
ENDMDL
