MODEL 1
REMARK VINA RESULT:      -8.0      0.000      0.000
REMARK  2 active torsions:
REMARK  status: ('A' for Active; 'I' for Inactive)
REMARK    1  A    between atoms: N1_2  and  C3_4 
REMARK    2  A    between atoms: N5_13  and  C9_14 
ROOT
HETATM    1  C3  UNL     1      22.337   2.803  48.868  1.00  0.00     0.030 C 
HETATM    2  C4  UNL     1      21.888   1.845  49.631  1.00  0.00     0.048 C 
HETATM    3  C5  UNL     1      22.392   1.342  50.880  1.00  0.00     0.114 C 
HETATM    4  N2  UNL     1      23.431   1.834  51.423  1.00  0.00    -0.284 NA
HETATM    5  C6  UNL     1      24.007   1.393  52.676  1.00  0.00     0.287 C 
HETATM    6  N3  UNL     1      25.081   2.305  53.032  1.00  0.00    -0.113 NA
HETATM    7  N4  UNL     1      24.793   3.559  52.430  1.00  0.00    -0.298 N 
HETATM    8  C7  UNL     1      25.065   3.403  51.041  1.00  0.00     0.062 C 
HETATM    9  C8  UNL     1      26.124   2.569  51.080  1.00  0.00     0.143 C 
HETATM   10  N5  UNL     1      26.267   1.934  52.344  1.00  0.00    -0.265 N 
HETATM   11  C15 UNL     1      24.491   3.904  49.776  1.00  0.00     0.034 C 
HETATM   12  C16 UNL     1      23.475   3.677  48.968  1.00  0.00     0.031 C 
HETATM   13  H11 UNL     1      24.479   4.153  53.243  1.00  0.00     0.183 HD
ENDROOT
BRANCH  10  14
HETATM   14  C9  UNL     1      27.315   1.128  52.821  1.00  0.00     0.054 A 
HETATM   15  C10 UNL     1      28.399   1.717  53.481  1.00  0.00     0.031 A 
HETATM   16  C11 UNL     1      29.406   0.899  53.933  1.00  0.00     0.004 A 
HETATM   17  C12 UNL     1      29.345  -0.481  53.737  1.00  0.00     0.024 A 
HETATM   18  C13 UNL     1      28.264  -1.053  53.080  1.00  0.00     0.036 A 
HETATM   19 CL1  UNL     1      28.189  -2.783  52.836  1.00  0.00    -0.084 Cl
HETATM   20  C14 UNL     1      27.239  -0.220  52.621  1.00  0.00     0.055 A 
ENDBRANCH  10  14
BRANCH   1  21
HETATM   21  N1  UNL     1      21.507   2.974  47.694  1.00  0.00    -0.390 N 
HETATM   22  C1  UNL     1      20.082   2.771  47.745  1.00  0.00     0.149 C 
HETATM   23  C2  UNL     1      22.020   3.358  46.395  1.00  0.00     0.149 C 
ENDBRANCH   1  21
TORSDOF 2
ENDMDL
MODEL 2
REMARK VINA RESULT:      -7.8      4.988      8.249
REMARK  2 active torsions:
REMARK  status: ('A' for Active; 'I' for Inactive)
REMARK    1  A    between atoms: N1_2  and  C3_4 
REMARK    2  A    between atoms: N5_13  and  C9_14 
ROOT
HETATM    1  C3  UNL     1      24.682   0.343  52.803  1.00  0.00     0.030 C 
HETATM    2  C4  UNL     1      24.012   1.165  52.044  1.00  0.00     0.048 C 
HETATM    3  C5  UNL     1      22.609   1.480  52.032  1.00  0.00     0.114 C 
HETATM    4  N2  UNL     1      21.799   0.935  52.846  1.00  0.00    -0.284 NA
HETATM    5  C6  UNL     1      20.376   1.192  52.906  1.00  0.00     0.287 C 
HETATM    6  N3  UNL     1      19.836   0.503  54.066  1.00  0.00    -0.113 NA
HETATM    7  N4  UNL     1      20.887   0.371  55.012  1.00  0.00    -0.298 N 
HETATM    8  C7  UNL     1      21.745  -0.647  54.510  1.00  0.00     0.062 C 
HETATM    9  C8  UNL     1      20.850  -1.478  53.937  1.00  0.00     0.143 C 
HETATM   10  N5  UNL     1      19.587  -0.856  53.738  1.00  0.00    -0.265 N 
HETATM   11  C15 UNL     1      23.198  -0.914  54.503  1.00  0.00     0.034 C 
HETATM   12  C16 UNL     1      24.290  -0.545  53.864  1.00  0.00     0.031 C 
HETATM   13  H11 UNL     1      20.643   1.085  55.749  1.00  0.00     0.183 HD
ENDROOT
BRANCH  10  14
HETATM   14  C9  UNL     1      18.372  -1.426  53.317  1.00  0.00     0.054 A 
HETATM   15  C10 UNL     1      17.513  -0.696  52.488  1.00  0.00     0.031 A 
HETATM   16  C11 UNL     1      16.334  -1.284  52.097  1.00  0.00     0.004 A 
HETATM   17  C12 UNL     1      16.008  -2.574  52.517  1.00  0.00     0.024 A 
HETATM   18  C13 UNL     1      16.869  -3.287  53.340  1.00  0.00     0.036 A 
HETATM   19 CL1  UNL     1      16.458  -4.903  53.865  1.00  0.00    -0.084 Cl
HETATM   20  C14 UNL     1      18.069  -2.688  53.737  1.00  0.00     0.055 A 
ENDBRANCH  10  14
BRANCH   1  21
HETATM   21  N1  UNL     1      26.091   0.343  52.464  1.00  0.00    -0.390 N 
HETATM   22  C1  UNL     1      26.719   1.492  51.864  1.00  0.00     0.149 C 
HETATM   23  C2  UNL     1      26.974  -0.782  52.695  1.00  0.00     0.149 C 
ENDBRANCH   1  21
TORSDOF 2
ENDMDL
MODEL 3
REMARK VINA RESULT:      -7.3      3.886      5.085
REMARK  2 active torsions:
REMARK  status: ('A' for Active; 'I' for Inactive)
REMARK    1  A    between atoms: N1_2  and  C3_4 
REMARK    2  A    between atoms: N5_13  and  C9_14 
ROOT
HETATM    1  C3  UNL     1      25.087   5.781  49.412  1.00  0.00     0.030 C 
HETATM    2  C4  UNL     1      24.262   6.287  50.286  1.00  0.00     0.048 C 
HETATM    3  C5  UNL     1      23.764   5.736  51.518  1.00  0.00     0.114 C 
HETATM    4  N2  UNL     1      24.117   4.583  51.920  1.00  0.00    -0.284 NA
HETATM    5  C6  UNL     1      23.668   3.951  53.143  1.00  0.00     0.287 C 
HETATM    6  N3  UNL     1      24.418   2.720  53.323  1.00  0.00    -0.113 NA
HETATM    7  N4  UNL     1      25.661   2.875  52.655  1.00  0.00    -0.298 N 
HETATM    8  C7  UNL     1      25.378   2.779  51.263  1.00  0.00     0.062 C 
HETATM    9  C8  UNL     1      24.390   1.861  51.266  1.00  0.00     0.143 C 
HETATM   10  N5  UNL     1      23.820   1.684  52.556  1.00  0.00    -0.265 N 
HETATM   11  C15 UNL     1      25.885   3.401  50.023  1.00  0.00     0.034 C 
HETATM   12  C16 UNL     1      25.773   4.519  49.335  1.00  0.00     0.031 C 
HETATM   13  H11 UNL     1      26.348   3.007  53.445  1.00  0.00     0.183 HD
ENDROOT
BRANCH  10  14
HETATM   14  C9  UNL     1      22.889   0.725  52.993  1.00  0.00     0.054 A 
HETATM   15  C10 UNL     1      23.287  -0.273  53.889  1.00  0.00     0.031 A 
HETATM   16  C11 UNL     1      22.351  -1.193  54.293  1.00  0.00     0.004 A 
HETATM   17  C12 UNL     1      21.039  -1.130  53.822  1.00  0.00     0.024 A 
HETATM   18  C13 UNL     1      20.657  -0.133  52.933  1.00  0.00     0.036 A 
HETATM   19 CL1  UNL     1      19.012  -0.055  52.344  1.00  0.00    -0.084 Cl
HETATM   20  C14 UNL     1      21.611   0.803  52.522  1.00  0.00     0.055 A 
ENDBRANCH  10  14
BRANCH   1  21
HETATM   21  N1  UNL     1      25.315   6.695  48.312  1.00  0.00    -0.390 N 
HETATM   22  C1  UNL     1      26.635   7.177  47.996  1.00  0.00     0.149 C 
HETATM   23  C2  UNL     1      24.263   7.193  47.449  1.00  0.00     0.149 C 
ENDBRANCH   1  21
TORSDOF 2
ENDMDL
MODEL 4
REMARK VINA RESULT:      -7.1      3.784      4.942
REMARK  2 active torsions:
REMARK  status: ('A' for Active; 'I' for Inactive)
REMARK    1  A    between atoms: N1_2  and  C3_4 
REMARK    2  A    between atoms: N5_13  and  C9_14 
ROOT
HETATM    1  C3  UNL     1      23.235   5.908  49.544  1.00  0.00     0.030 C 
HETATM    2  C4  UNL     1      23.301   6.240  50.803  1.00  0.00     0.048 C 
HETATM    3  C5  UNL     1      23.558   5.429  51.963  1.00  0.00     0.114 C 
HETATM    4  N2  UNL     1      23.770   4.180  51.865  1.00  0.00    -0.284 NA
HETATM    5  C6  UNL     1      24.037   3.288  52.975  1.00  0.00     0.287 C 
HETATM    6  N3  UNL     1      24.383   1.983  52.439  1.00  0.00    -0.113 NA
HETATM    7  N4  UNL     1      24.925   2.183  51.142  1.00  0.00    -0.298 N 
HETATM    8  C7  UNL     1      23.824   2.502  50.298  1.00  0.00     0.062 C 
HETATM    9  C8  UNL     1      22.859   1.727  50.833  1.00  0.00     0.143 C 
HETATM   10  N5  UNL     1      23.196   1.265  52.134  1.00  0.00    -0.265 N 
HETATM   11  C15 UNL     1      23.587   3.382  49.135  1.00  0.00     0.034 C 
HETATM   12  C16 UNL     1      23.366   4.651  48.858  1.00  0.00     0.031 C 
HETATM   13  H11 UNL     1      25.958   2.021  51.282  1.00  0.00     0.183 HD
ENDROOT
BRANCH  10  14
HETATM   14  C9  UNL     1      22.532   0.327  52.944  1.00  0.00     0.054 A 
HETATM   15  C10 UNL     1      23.249  -0.390  53.908  1.00  0.00     0.031 A 
HETATM   16  C11 UNL     1      22.568  -1.299  54.682  1.00  0.00     0.004 A 
HETATM   17  C12 UNL     1      21.198  -1.497  54.508  1.00  0.00     0.024 A 
HETATM   18  C13 UNL     1      20.498  -0.779  53.547  1.00  0.00     0.036 A 
HETATM   19 CL1  UNL     1      18.781  -1.029  53.331  1.00  0.00    -0.084 Cl
HETATM   20  C14 UNL     1      21.192   0.146  52.761  1.00  0.00     0.055 A 
ENDBRANCH  10  14
BRANCH   1  21
HETATM   21  N1  UNL     1      22.954   7.059  48.710  1.00  0.00    -0.390 N 
HETATM   22  C1  UNL     1      23.029   6.983  47.274  1.00  0.00     0.149 C 
HETATM   23  C2  UNL     1      22.580   8.358  49.232  1.00  0.00     0.149 C 
ENDBRANCH   1  21
TORSDOF 2
ENDMDL
MODEL 5
REMARK VINA RESULT:      -7.0      3.396      7.329
REMARK  2 active torsions:
REMARK  status: ('A' for Active; 'I' for Inactive)
REMARK    1  A    between atoms: N1_2  and  C3_4 
REMARK    2  A    between atoms: N5_13  and  C9_14 
ROOT
HETATM    1  C3  UNL     1      25.482   0.842  52.519  1.00  0.00     0.030 C 
HETATM    2  C4  UNL     1      26.497   1.193  51.780  1.00  0.00     0.048 C 
HETATM    3  C5  UNL     1      26.678   2.347  50.941  1.00  0.00     0.114 C 
HETATM    4  N2  UNL     1      25.772   3.231  50.826  1.00  0.00    -0.284 NA
HETATM    5  C6  UNL     1      25.868   4.422  50.007  1.00  0.00     0.287 C 
HETATM    6  N3  UNL     1      24.704   5.252  50.271  1.00  0.00    -0.113 NA
HETATM    7  N4  UNL     1      24.256   4.954  51.585  1.00  0.00    -0.298 N 
HETATM    8  C7  UNL     1      23.626   3.680  51.509  1.00  0.00     0.062 C 
HETATM    9  C8  UNL     1      23.060   3.747  50.287  1.00  0.00     0.143 C 
HETATM   10  N5  UNL     1      23.607   4.793  49.494  1.00  0.00    -0.265 N 
HETATM   11  C15 UNL     1      23.501   2.495  52.382  1.00  0.00     0.034 C 
HETATM   12  C16 UNL     1      24.195   1.438  52.755  1.00  0.00     0.031 C 
HETATM   13  H11 UNL     1      24.559   5.797  52.143  1.00  0.00     0.183 HD
ENDROOT
BRANCH  10  14
HETATM   14  C9  UNL     1      23.184   5.274  48.242  1.00  0.00     0.054 A 
HETATM   15  C10 UNL     1      23.538   6.566  47.840  1.00  0.00     0.031 A 
HETATM   16  C11 UNL     1      23.107   7.003  46.610  1.00  0.00     0.004 A 
HETATM   17  C12 UNL     1      22.339   6.177  45.790  1.00  0.00     0.024 A 
HETATM   18  C13 UNL     1      21.995   4.896  46.202  1.00  0.00     0.036 A 
HETATM   19 CL1  UNL     1      21.033   3.863  45.171  1.00  0.00    -0.084 Cl
HETATM   20  C14 UNL     1      22.435   4.452  47.452  1.00  0.00     0.055 A 
ENDBRANCH  10  14
BRANCH   1  21
HETATM   21  N1  UNL     1      25.738  -0.408  53.206  1.00  0.00    -0.390 N 
HETATM   22  C1  UNL     1      25.116  -0.712  54.469  1.00  0.00     0.149 C 
HETATM   23  C2  UNL     1      26.617  -1.440  52.697  1.00  0.00     0.149 C 
ENDBRANCH   1  21
TORSDOF 2
ENDMDL
MODEL 6
REMARK VINA RESULT:      -6.9      4.245      5.704
REMARK  2 active torsions:
REMARK  status: ('A' for Active; 'I' for Inactive)
REMARK    1  A    between atoms: N1_2  and  C3_4 
REMARK    2  A    between atoms: N5_13  and  C9_14 
ROOT
HETATM    1  C3  UNL     1      20.653   0.893  52.616  1.00  0.00     0.030 C 
HETATM    2  C4  UNL     1      21.795   0.464  53.077  1.00  0.00     0.048 C 
HETATM    3  C5  UNL     1      23.068   1.127  53.165  1.00  0.00     0.114 C 
HETATM    4  N2  UNL     1      23.222   2.323  52.761  1.00  0.00    -0.284 NA
HETATM    5  C6  UNL     1      24.463   3.068  52.811  1.00  0.00     0.287 C 
HETATM    6  N3  UNL     1      24.189   4.438  52.411  1.00  0.00    -0.113 NA
HETATM    7  N4  UNL     1      22.828   4.707  52.713  1.00  0.00    -0.298 N 
HETATM    8  C7  UNL     1      22.061   4.017  51.732  1.00  0.00     0.062 C 
HETATM    9  C8  UNL     1      22.855   4.144  50.650  1.00  0.00     0.143 C 
HETATM   10  N5  UNL     1      24.181   4.526  50.993  1.00  0.00    -0.265 N 
HETATM   11  C15 UNL     1      20.768   3.303  51.693  1.00  0.00     0.034 C 
HETATM   12  C16 UNL     1      20.247   2.138  52.022  1.00  0.00     0.031 C 
HETATM   13  H11 UNL     1      22.885   5.328  53.564  1.00  0.00     0.183 HD
ENDROOT
BRANCH  10  14
HETATM   14  C9  UNL     1      25.244   4.902  50.153  1.00  0.00     0.054 A 
HETATM   15  C10 UNL     1      26.205   3.955  49.783  1.00  0.00     0.031 A 
HETATM   16  C11 UNL     1      27.230   4.358  48.962  1.00  0.00     0.004 A 
HETATM   17  C12 UNL     1      27.306   5.676  48.512  1.00  0.00     0.024 A 
HETATM   18  C13 UNL     1      26.345   6.606  48.886  1.00  0.00     0.036 A 
HETATM   19 CL1  UNL     1      26.442   8.257  48.320  1.00  0.00    -0.084 Cl
HETATM   20  C14 UNL     1      25.302   6.195  49.722  1.00  0.00     0.055 A 
ENDBRANCH  10  14
BRANCH   1  21
HETATM   21  N1  UNL     1      19.625  -0.121  52.728  1.00  0.00    -0.390 N 
HETATM   22  C1  UNL     1      19.677  -1.134  53.751  1.00  0.00     0.149 C 
HETATM   23  C2  UNL     1      18.479  -0.205  51.847  1.00  0.00     0.149 C 
ENDBRANCH   1  21
TORSDOF 2
ENDMDL
MODEL 7
REMARK VINA RESULT:      -6.8      2.824      3.878
REMARK  2 active torsions:
REMARK  status: ('A' for Active; 'I' for Inactive)
REMARK    1  A    between atoms: N1_2  and  C3_4 
REMARK    2  A    between atoms: N5_13  and  C9_14 
ROOT
HETATM    1  C3  UNL     1      18.935   2.766  50.947  1.00  0.00     0.030 C 
HETATM    2  C4  UNL     1      19.444   3.833  51.497  1.00  0.00     0.048 C 
HETATM    3  C5  UNL     1      20.816   4.178  51.757  1.00  0.00     0.114 C 
HETATM    4  N2  UNL     1      21.767   3.396  51.441  1.00  0.00    -0.284 NA
HETATM    5  C6  UNL     1      23.174   3.661  51.662  1.00  0.00     0.287 C 
HETATM    6  N3  UNL     1      23.943   2.609  51.019  1.00  0.00    -0.113 NA
HETATM    7  N4  UNL     1      23.160   2.099  49.950  1.00  0.00    -0.298 N 
HETATM    8  C7  UNL     1      22.136   1.312  50.549  1.00  0.00     0.062 C 
HETATM    9  C8  UNL     1      22.800   0.785  51.598  1.00  0.00     0.143 C 
HETATM   10  N5  UNL     1      24.010   1.478  51.876  1.00  0.00    -0.265 N 
HETATM   11  C15 UNL     1      20.715   1.018  50.276  1.00  0.00     0.034 C 
HETATM   12  C16 UNL     1      19.524   1.562  50.427  1.00  0.00     0.031 C 
HETATM   13  H11 UNL     1      23.629   2.496  49.093  1.00  0.00     0.183 HD
ENDROOT
BRANCH  10  14
HETATM   14  C9  UNL     1      25.038   1.146  52.777  1.00  0.00     0.054 A 
HETATM   15  C10 UNL     1      24.869   0.074  53.659  1.00  0.00     0.031 A 
HETATM   16  C11 UNL     1      25.894  -0.221  54.526  1.00  0.00     0.004 A 
HETATM   17  C12 UNL     1      27.069   0.530  54.521  1.00  0.00     0.024 A 
HETATM   18  C13 UNL     1      27.224   1.592  53.639  1.00  0.00     0.036 A 
HETATM   19 CL1  UNL     1      28.698   2.533  53.635  1.00  0.00    -0.084 Cl
HETATM   20  C14 UNL     1      26.180   1.891  52.758  1.00  0.00     0.055 A 
ENDBRANCH  10  14
BRANCH   1  21
HETATM   21  N1  UNL     1      17.490   2.845  50.884  1.00  0.00    -0.390 N 
HETATM   22  C1  UNL     1      16.720   1.910  50.104  1.00  0.00     0.149 C 
HETATM   23  C2  UNL     1      16.707   3.843  51.582  1.00  0.00     0.149 C 
ENDBRANCH   1  21
TORSDOF 2
ENDMDL
MODEL 8
REMARK VINA RESULT:      -6.7      4.023      6.416
REMARK  2 active torsions:
REMARK  status: ('A' for Active; 'I' for Inactive)
REMARK    1  A    between atoms: N1_2  and  C3_4 
REMARK    2  A    between atoms: N5_13  and  C9_14 
ROOT
HETATM    1  C3  UNL     1      21.637   0.317  52.550  1.00  0.00     0.030 C 
HETATM    2  C4  UNL     1      21.210   0.450  51.325  1.00  0.00     0.048 C 
HETATM    3  C5  UNL     1      21.735   1.236  50.241  1.00  0.00     0.114 C 
HETATM    4  N2  UNL     1      22.777   1.950  50.383  1.00  0.00    -0.284 NA
HETATM    5  C6  UNL     1      23.376   2.770  49.350  1.00  0.00     0.287 C 
HETATM    6  N3  UNL     1      24.632   3.296  49.855  1.00  0.00    -0.113 NA
HETATM    7  N4  UNL     1      25.110   2.391  50.839  1.00  0.00    -0.298 N 
HETATM    8  C7  UNL     1      24.292   2.588  51.987  1.00  0.00     0.062 C 
HETATM    9  C8  UNL     1      24.072   3.917  51.921  1.00  0.00     0.143 C 
HETATM   10  N5  UNL     1      24.381   4.452  50.641  1.00  0.00    -0.265 N 
HETATM   11  C15 UNL     1      23.732   1.740  53.060  1.00  0.00     0.034 C 
HETATM   12  C16 UNL     1      22.741   0.896  53.266  1.00  0.00     0.031 C 
HETATM   13  H11 UNL     1      25.905   1.898  50.352  1.00  0.00     0.183 HD
ENDROOT
BRANCH  10  14
HETATM   14  C9  UNL     1      24.431   5.795  50.227  1.00  0.00     0.054 A 
HETATM   15  C10 UNL     1      23.852   6.789  51.024  1.00  0.00     0.031 A 
HETATM   16  C11 UNL     1      23.919   8.091  50.588  1.00  0.00     0.004 A 
HETATM   17  C12 UNL     1      24.548   8.407  49.384  1.00  0.00     0.024 A 
HETATM   18  C13 UNL     1      25.118   7.411  48.603  1.00  0.00     0.036 A 
HETATM   19 CL1  UNL     1      25.907   7.810  47.094  1.00  0.00    -0.084 Cl
HETATM   20  C14 UNL     1      25.050   6.087  49.048  1.00  0.00     0.055 A 
ENDBRANCH  10  14
BRANCH   1  21
HETATM   21  N1  UNL     1      20.794  -0.587  53.305  1.00  0.00    -0.390 N 
HETATM   22  C1  UNL     1      19.359  -0.555  53.185  1.00  0.00     0.149 C 
HETATM   23  C2  UNL     1      21.305  -1.583  54.225  1.00  0.00     0.149 C 
ENDBRANCH   1  21
TORSDOF 2
ENDMDL
MODEL 9
REMARK VINA RESULT:      -6.6      3.311      4.765
REMARK  2 active torsions:
REMARK  status: ('A' for Active; 'I' for Inactive)
REMARK    1  A    between atoms: N1_2  and  C3_4 
REMARK    2  A    between atoms: N5_13  and  C9_14 
ROOT
HETATM    1  C3  UNL     1      24.318   6.957  49.127  1.00  0.00     0.030 C 
HETATM    2  C4  UNL     1      23.944   6.015  48.307  1.00  0.00     0.048 C 
HETATM    3  C5  UNL     1      23.278   4.767  48.572  1.00  0.00     0.114 C 
HETATM    4  N2  UNL     1      22.952   4.426  49.752  1.00  0.00    -0.284 NA
HETATM    5  C6  UNL     1      22.280   3.194  50.110  1.00  0.00     0.287 C 
HETATM    6  N3  UNL     1      21.942   3.253  51.522  1.00  0.00    -0.113 NA
HETATM    7  N4  UNL     1      21.811   4.622  51.874  1.00  0.00    -0.298 N 
HETATM    8  C7  UNL     1      23.134   5.145  51.926  1.00  0.00     0.062 C 
HETATM    9  C8  UNL     1      23.811   4.083  52.408  1.00  0.00     0.143 C 
HETATM   10  N5  UNL     1      23.071   2.874  52.297  1.00  0.00    -0.265 N 
HETATM   11  C15 UNL     1      23.791   6.427  51.599  1.00  0.00     0.034 C 
HETATM   12  C16 UNL     1      24.232   7.099  50.555  1.00  0.00     0.031 C 
HETATM   13  H11 UNL     1      20.769   4.751  51.969  1.00  0.00     0.183 HD
ENDROOT
BRANCH  10  14
HETATM   14  C9  UNL     1      23.364   1.601  52.816  1.00  0.00     0.054 A 
HETATM   15  C10 UNL     1      24.684   1.137  52.814  1.00  0.00     0.031 A 
HETATM   16  C11 UNL     1      24.934  -0.112  53.329  1.00  0.00     0.004 A 
HETATM   17  C12 UNL     1      23.896  -0.893  53.839  1.00  0.00     0.024 A 
HETATM   18  C13 UNL     1      22.590  -0.420  53.835  1.00  0.00     0.036 A 
HETATM   19 CL1  UNL     1      21.291  -1.400  54.476  1.00  0.00    -0.084 Cl
HETATM   20  C14 UNL     1      22.338   0.851  53.312  1.00  0.00     0.055 A 
ENDBRANCH  10  14
BRANCH   1  21
HETATM   21  N1  UNL     1      24.957   8.047  48.418  1.00  0.00    -0.390 N 
HETATM   22  C1  UNL     1      25.137   8.012  46.989  1.00  0.00     0.149 C 
HETATM   23  C2  UNL     1      25.459   9.242  49.065  1.00  0.00     0.149 C 
ENDBRANCH   1  21
TORSDOF 2
ENDMDL
