MODEL 1
REMARK VINA RESULT:      -8.6      0.000      0.000
REMARK  6 active torsions:
REMARK  status: ('A' for Active; 'I' for Inactive)
REMARK    1  A    between atoms: C2_2  and  C3_3 
REMARK       I    between atoms: C3_3  and  N1_5 
REMARK    2  A    between atoms: N1_5  and  C4_6 
REMARK    3  A    between atoms: C5_7  and  C6_8 
REMARK    4  A    between atoms: C6_8  and  N2_9 
REMARK    5  A    between atoms: N2_9  and  C7_10 
REMARK    6  A    between atoms: C10_14  and  C11_15 
ROOT
HETATM    1  C7  UNL     1      23.196   1.921  52.122  1.00  0.00     0.101 C 
HETATM    2  N3  UNL     1      22.820   1.620  50.904  1.00  0.00    -0.248 NA
HETATM    3  C8  UNL     1      23.119   2.237  49.635  1.00  0.00     0.121 C 
HETATM    4  C9  UNL     1      23.668   3.422  49.326  1.00  0.00     0.051 C 
HETATM    5  C10 UNL     1      24.179   4.550  50.094  1.00  0.00     0.065 C 
HETATM    6  N5  UNL     1      24.087   4.823  51.351  1.00  0.00    -0.288 NA
HETATM    7  C20 UNL     1      23.543   4.325  52.588  1.00  0.00     0.157 C 
HETATM    8  C21 UNL     1      24.027   2.922  52.846  1.00  0.00     0.100 C 
ENDROOT
BRANCH   1   9
HETATM    9  N2  UNL     1      22.564   0.933  52.949  1.00  0.00    -0.375 N 
HETATM   10  H9  UNL     1      21.689   1.248  53.479  1.00  0.00     0.161 HD
BRANCH   9  11
HETATM   11  C6  UNL     1      23.140  -0.396  53.020  1.00  0.00     0.149 C 
BRANCH  11  12
HETATM   12  C5  UNL     1      24.049  -0.540  54.177  1.00  0.00     0.010 C 
HETATM   13  C4  UNL     1      25.297  -0.694  54.552  1.00  0.00     0.089 C 
BRANCH  13  14
HETATM   14  N1  UNL     1      26.634  -0.828  54.110  1.00  0.00    -0.334 N 
HETATM   15  C3  UNL     1      27.760   0.006  54.289  1.00  0.00     0.244 C 
HETATM   16  O1  UNL     1      27.620   1.066  54.947  1.00  0.00    -0.268 OA
HETATM   17  H4  UNL     1      26.952  -1.659  53.541  1.00  0.00     0.168 HD
BRANCH  15  18
HETATM   18  C2  UNL     1      29.089  -0.254  53.774  1.00  0.00     0.064 C 
HETATM   19  C1  UNL     1      29.416  -1.433  53.326  1.00  0.00     0.017 C 
ENDBRANCH  15  18
ENDBRANCH  13  14
ENDBRANCH  11  12
ENDBRANCH   9  11
ENDBRANCH   1   9
BRANCH   5  20
HETATM   20  C11 UNL     1      24.919   5.574  49.388  1.00  0.00     0.020 A 
HETATM   21  C12 UNL     1      24.297   6.783  49.052  1.00  0.00     0.105 A 
HETATM   22  N4  UNL     1      25.171   7.585  48.402  1.00  0.00    -0.360 N 
HETATM   23  C13 UNL     1      24.847   8.924  47.910  1.00  0.00     0.156 C 
HETATM   24  C14 UNL     1      26.345   6.964  48.293  1.00  0.00     0.045 A 
HETATM   25  C15 UNL     1      27.573   7.298  47.737  1.00  0.00     0.030 A 
HETATM   26  C19 UNL     1      26.200   5.727  48.896  1.00  0.00     0.005 A 
HETATM   27  C16 UNL     1      28.601   6.375  47.812  1.00  0.00     0.002 A 
HETATM   28  C17 UNL     1      28.428   5.131  48.427  1.00  0.00     0.001 A 
HETATM   29  C18 UNL     1      27.201   4.786  48.988  1.00  0.00     0.014 A 
ENDBRANCH   5  20
TORSDOF 6
ENDMDL
MODEL 2
REMARK VINA RESULT:      -8.3      2.632      7.917
REMARK  6 active torsions:
REMARK  status: ('A' for Active; 'I' for Inactive)
REMARK    1  A    between atoms: C2_2  and  C3_3 
REMARK       I    between atoms: C3_3  and  N1_5 
REMARK    2  A    between atoms: N1_5  and  C4_6 
REMARK    3  A    between atoms: C5_7  and  C6_8 
REMARK    4  A    between atoms: C6_8  and  N2_9 
REMARK    5  A    between atoms: N2_9  and  C7_10 
REMARK    6  A    between atoms: C10_14  and  C11_15 
ROOT
HETATM    1  C7  UNL     1      22.669   5.390  49.861  1.00  0.00     0.101 C 
HETATM    2  N3  UNL     1      23.524   4.660  49.187  1.00  0.00    -0.248 NA
HETATM    3  C8  UNL     1      24.031   3.330  49.418  1.00  0.00     0.121 C 
HETATM    4  C9  UNL     1      23.973   2.526  50.491  1.00  0.00     0.051 C 
HETATM    5  C10 UNL     1      23.404   2.635  51.828  1.00  0.00     0.065 C 
HETATM    6  N5  UNL     1      22.919   3.653  52.455  1.00  0.00    -0.288 NA
HETATM    7  C20 UNL     1      22.660   5.061  52.313  1.00  0.00     0.157 C 
HETATM    8  C21 UNL     1      21.825   5.319  51.085  1.00  0.00     0.100 C 
ENDROOT
BRANCH   1   9
HETATM    9  N2  UNL     1      22.582   6.618  49.124  1.00  0.00    -0.375 N 
HETATM   10  H9  UNL     1      22.474   6.526  48.063  1.00  0.00     0.161 HD
BRANCH   9  11
HETATM   11  C6  UNL     1      22.651   7.875  49.843  1.00  0.00     0.149 C 
BRANCH  11  12
HETATM   12  C5  UNL     1      23.982   8.090  50.448  1.00  0.00     0.010 C 
HETATM   13  C4  UNL     1      25.206   7.628  50.548  1.00  0.00     0.089 C 
BRANCH  13  14
HETATM   14  N1  UNL     1      26.096   6.604  50.149  1.00  0.00    -0.334 N 
HETATM   15  C3  UNL     1      26.585   6.244  48.872  1.00  0.00     0.244 C 
HETATM   16  O1  UNL     1      26.205   6.907  47.878  1.00  0.00    -0.268 OA
HETATM   17  H4  UNL     1      26.529   5.938  50.844  1.00  0.00     0.168 HD
BRANCH  15  18
HETATM   18  C2  UNL     1      27.504   5.157  48.602  1.00  0.00     0.064 C 
HETATM   19  C1  UNL     1      28.754   5.390  48.319  1.00  0.00     0.017 C 
ENDBRANCH  15  18
ENDBRANCH  13  14
ENDBRANCH  11  12
ENDBRANCH   9  11
ENDBRANCH   1   9
BRANCH   5  20
HETATM   20  C11 UNL     1      23.348   1.441  52.643  1.00  0.00     0.020 A 
HETATM   21  C12 UNL     1      24.517   0.929  53.219  1.00  0.00     0.105 A 
HETATM   22  N4  UNL     1      24.230  -0.182  53.934  1.00  0.00    -0.360 N 
HETATM   23  C13 UNL     1      25.224  -0.968  54.666  1.00  0.00     0.156 C 
HETATM   24  C14 UNL     1      22.922  -0.430  53.860  1.00  0.00     0.045 A 
HETATM   25  C15 UNL     1      22.089  -1.410  54.381  1.00  0.00     0.030 A 
HETATM   26  C19 UNL     1      22.372   0.562  53.068  1.00  0.00     0.005 A 
HETATM   27  C16 UNL     1      20.738  -1.350  54.086  1.00  0.00     0.002 A 
HETATM   28  C17 UNL     1      20.207  -0.336  53.283  1.00  0.00     0.001 A 
HETATM   29  C18 UNL     1      21.034   0.652  52.755  1.00  0.00     0.014 A 
ENDBRANCH   5  20
TORSDOF 6
ENDMDL
MODEL 3
REMARK VINA RESULT:      -8.3      4.331      7.672
REMARK  6 active torsions:
REMARK  status: ('A' for Active; 'I' for Inactive)
REMARK    1  A    between atoms: C2_2  and  C3_3 
REMARK       I    between atoms: C3_3  and  N1_5 
REMARK    2  A    between atoms: N1_5  and  C4_6 
REMARK    3  A    between atoms: C5_7  and  C6_8 
REMARK    4  A    between atoms: C6_8  and  N2_9 
REMARK    5  A    between atoms: N2_9  and  C7_10 
REMARK    6  A    between atoms: C10_14  and  C11_15 
ROOT
HETATM    1  C7  UNL     1      21.743   2.300  52.337  1.00  0.00     0.101 C 
HETATM    2  N3  UNL     1      21.582   1.112  52.864  1.00  0.00    -0.248 NA
HETATM    3  C8  UNL     1      22.534   0.175  53.409  1.00  0.00     0.121 C 
HETATM    4  C9  UNL     1      23.872   0.119  53.339  1.00  0.00     0.051 C 
HETATM    5  C10 UNL     1      24.904   0.936  52.714  1.00  0.00     0.065 C 
HETATM    6  N5  UNL     1      24.813   1.899  51.860  1.00  0.00    -0.288 NA
HETATM    7  C20 UNL     1      23.857   2.662  51.102  1.00  0.00     0.157 C 
HETATM    8  C21 UNL     1      22.827   3.270  52.019  1.00  0.00     0.100 C 
ENDROOT
BRANCH   1   9
HETATM    9  N2  UNL     1      20.418   2.721  51.982  1.00  0.00    -0.375 N 
HETATM   10  H9  UNL     1      19.881   3.270  52.727  1.00  0.00     0.161 HD
BRANCH   9  11
HETATM   11  C6  UNL     1      19.900   2.378  50.672  1.00  0.00     0.149 C 
BRANCH  11  12
HETATM   12  C5  UNL     1      18.660   1.578  50.763  1.00  0.00     0.010 C 
HETATM   13  C4  UNL     1      18.119   0.483  51.243  1.00  0.00     0.089 C 
BRANCH  13  14
HETATM   14  N1  UNL     1      18.347  -0.687  52.003  1.00  0.00    -0.334 N 
HETATM   15  C3  UNL     1      17.584  -1.293  53.028  1.00  0.00     0.244 C 
HETATM   16  O1  UNL     1      16.506  -0.750  53.370  1.00  0.00    -0.268 OA
HETATM   17  H4  UNL     1      19.204  -1.287  51.862  1.00  0.00     0.168 HD
BRANCH  15  18
HETATM   18  C2  UNL     1      17.941  -2.507  53.734  1.00  0.00     0.064 C 
HETATM   19  C1  UNL     1      17.248  -3.599  53.581  1.00  0.00     0.017 C 
ENDBRANCH  15  18
ENDBRANCH  13  14
ENDBRANCH  11  12
ENDBRANCH   9  11
ENDBRANCH   1   9
BRANCH   5  20
HETATM   20  C11 UNL     1      26.284   0.673  53.061  1.00  0.00     0.020 A 
HETATM   21  C12 UNL     1      27.093   1.705  53.553  1.00  0.00     0.105 A 
HETATM   22  N4  UNL     1      28.335   1.234  53.810  1.00  0.00    -0.360 N 
HETATM   23  C13 UNL     1      29.430   2.049  54.335  1.00  0.00     0.156 C 
HETATM   24  C14 UNL     1      28.386  -0.065  53.512  1.00  0.00     0.045 A 
HETATM   25  C15 UNL     1      29.375  -1.037  53.573  1.00  0.00     0.030 A 
HETATM   26  C19 UNL     1      27.130  -0.418  53.052  1.00  0.00     0.005 A 
HETATM   27  C16 UNL     1      29.059  -2.322  53.170  1.00  0.00     0.002 A 
HETATM   28  C17 UNL     1      27.781  -2.654  52.708  1.00  0.00     0.001 A 
HETATM   29  C18 UNL     1      26.782  -1.687  52.642  1.00  0.00     0.014 A 
ENDBRANCH   5  20
TORSDOF 6
ENDMDL
MODEL 4
REMARK VINA RESULT:      -8.0      2.622      8.182
REMARK  6 active torsions:
REMARK  status: ('A' for Active; 'I' for Inactive)
REMARK    1  A    between atoms: C2_2  and  C3_3 
REMARK       I    between atoms: C3_3  and  N1_5 
REMARK    2  A    between atoms: N1_5  and  C4_6 
REMARK    3  A    between atoms: C5_7  and  C6_8 
REMARK    4  A    between atoms: C6_8  and  N2_9 
REMARK    5  A    between atoms: N2_9  and  C7_10 
REMARK    6  A    between atoms: C10_14  and  C11_15 
ROOT
HETATM    1  C7  UNL     1      23.716   5.750  49.965  1.00  0.00     0.101 C 
HETATM    2  N3  UNL     1      22.809   5.982  50.882  1.00  0.00    -0.248 NA
HETATM    3  C8  UNL     1      22.366   5.191  52.004  1.00  0.00     0.121 C 
HETATM    4  C9  UNL     1      22.565   3.903  52.323  1.00  0.00     0.051 C 
HETATM    5  C10 UNL     1      23.279   2.790  51.710  1.00  0.00     0.065 C 
HETATM    6  N5  UNL     1      23.806   2.672  50.538  1.00  0.00    -0.288 NA
HETATM    7  C20 UNL     1      24.011   3.384  49.304  1.00  0.00     0.157 C 
HETATM    8  C21 UNL     1      24.694   4.701  49.567  1.00  0.00     0.100 C 
ENDROOT
BRANCH   1   9
HETATM    9  N2  UNL     1      23.688   6.915  49.127  1.00  0.00    -0.375 N 
HETATM   10  H9  UNL     1      23.641   6.738  48.073  1.00  0.00     0.161 HD
BRANCH   9  11
HETATM   11  C6  UNL     1      23.732   8.225  49.745  1.00  0.00     0.149 C 
BRANCH  11  12
HETATM   12  C5  UNL     1      25.115   8.637  50.064  1.00  0.00     0.010 C 
HETATM   13  C4  UNL     1      26.385   8.330  49.941  1.00  0.00     0.089 C 
BRANCH  13  14
HETATM   14  N1  UNL     1      27.306   7.392  49.420  1.00  0.00    -0.334 N 
HETATM   15  C3  UNL     1      28.364   7.544  48.494  1.00  0.00     0.244 C 
HETATM   16  O1  UNL     1      28.578   8.684  48.014  1.00  0.00    -0.268 OA
HETATM   17  H4  UNL     1      27.290   6.376  49.706  1.00  0.00     0.168 HD
BRANCH  15  18
HETATM   18  C2  UNL     1      29.242   6.485  48.041  1.00  0.00     0.064 C 
HETATM   19  C1  UNL     1      28.939   5.233  48.237  1.00  0.00     0.017 C 
ENDBRANCH  15  18
ENDBRANCH  13  14
ENDBRANCH  11  12
ENDBRANCH   9  11
ENDBRANCH   1   9
BRANCH   5  20
HETATM   20  C11 UNL     1      23.457   1.584  52.489  1.00  0.00     0.020 A 
HETATM   21  C12 UNL     1      24.740   1.058  52.683  1.00  0.00     0.105 A 
HETATM   22  N4  UNL     1      24.668  -0.063  53.437  1.00  0.00    -0.360 N 
HETATM   23  C13 UNL     1      25.827  -0.865  53.830  1.00  0.00     0.156 C 
HETATM   24  C14 UNL     1      23.396  -0.304  53.753  1.00  0.00     0.045 A 
HETATM   25  C15 UNL     1      22.746  -1.287  54.486  1.00  0.00     0.030 A 
HETATM   26  C19 UNL     1      22.644   0.704  53.174  1.00  0.00     0.005 A 
HETATM   27  C16 UNL     1      21.369  -1.215  54.607  1.00  0.00     0.002 A 
HETATM   28  C17 UNL     1      20.633  -0.186  54.013  1.00  0.00     0.001 A 
HETATM   29  C18 UNL     1      21.274   0.805  53.275  1.00  0.00     0.014 A 
ENDBRANCH   5  20
TORSDOF 6
ENDMDL
MODEL 5
REMARK VINA RESULT:      -8.0      2.451      7.567
REMARK  6 active torsions:
REMARK  status: ('A' for Active; 'I' for Inactive)
REMARK    1  A    between atoms: C2_2  and  C3_3 
REMARK       I    between atoms: C3_3  and  N1_5 
REMARK    2  A    between atoms: N1_5  and  C4_6 
REMARK    3  A    between atoms: C5_7  and  C6_8 
REMARK    4  A    between atoms: C6_8  and  N2_9 
REMARK    5  A    between atoms: N2_9  and  C7_10 
REMARK    6  A    between atoms: C10_14  and  C11_15 
ROOT
HETATM    1  C7  UNL     1      23.762   5.926  49.830  1.00  0.00     0.101 C 
HETATM    2  N3  UNL     1      23.242   6.216  50.997  1.00  0.00    -0.248 NA
HETATM    3  C8  UNL     1      23.105   5.432  52.201  1.00  0.00     0.121 C 
HETATM    4  C9  UNL     1      23.248   4.118  52.431  1.00  0.00     0.051 C 
HETATM    5  C10 UNL     1      23.587   2.961  51.612  1.00  0.00     0.065 C 
HETATM    6  N5  UNL     1      23.681   2.835  50.332  1.00  0.00    -0.288 NA
HETATM    7  C20 UNL     1      23.549   3.571  49.102  1.00  0.00     0.157 C 
HETATM    8  C21 UNL     1      24.428   4.795  49.127  1.00  0.00     0.100 C 
ENDROOT
BRANCH   1   9
HETATM    9  N2  UNL     1      23.594   7.120  49.053  1.00  0.00    -0.375 N 
HETATM   10  H9  UNL     1      23.369   6.982  48.016  1.00  0.00     0.161 HD
BRANCH   9  11
HETATM   11  C6  UNL     1      23.744   8.407  49.702  1.00  0.00     0.149 C 
BRANCH  11  12
HETATM   12  C5  UNL     1      25.165   8.761  49.901  1.00  0.00     0.010 C 
HETATM   13  C4  UNL     1      26.400   8.316  49.868  1.00  0.00     0.089 C 
BRANCH  13  14
HETATM   14  N1  UNL     1      27.222   7.193  49.622  1.00  0.00    -0.334 N 
HETATM   15  C3  UNL     1      27.752   6.675  48.418  1.00  0.00     0.244 C 
HETATM   16  O1  UNL     1      27.485   7.267  47.344  1.00  0.00    -0.268 OA
HETATM   17  H4  UNL     1      27.557   6.564  50.402  1.00  0.00     0.168 HD
BRANCH  15  18
HETATM   18  C2  UNL     1      28.590   5.498  48.307  1.00  0.00     0.064 C 
HETATM   19  C1  UNL     1      29.854   5.601  48.010  1.00  0.00     0.017 C 
ENDBRANCH  15  18
ENDBRANCH  13  14
ENDBRANCH  11  12
ENDBRANCH   9  11
ENDBRANCH   1   9
BRANCH   5  20
HETATM   20  C11 UNL     1      23.872   1.712  52.285  1.00  0.00     0.020 A 
HETATM   21  C12 UNL     1      22.858   1.044  52.982  1.00  0.00     0.105 A 
HETATM   22  N4  UNL     1      23.347  -0.094  53.527  1.00  0.00    -0.360 N 
HETATM   23  C13 UNL     1      22.553  -1.031  54.322  1.00  0.00     0.156 C 
HETATM   24  C14 UNL     1      24.639  -0.212  53.221  1.00  0.00     0.045 A 
HETATM   25  C15 UNL     1      25.622  -1.151  53.501  1.00  0.00     0.030 A 
HETATM   26  C19 UNL     1      24.970   0.894  52.457  1.00  0.00     0.005 A 
HETATM   27  C16 UNL     1      26.895  -0.939  53.001  1.00  0.00     0.002 A 
HETATM   28  C17 UNL     1      27.204   0.187  52.232  1.00  0.00     0.001 A 
HETATM   29  C18 UNL     1      26.226   1.135  51.945  1.00  0.00     0.014 A 
ENDBRANCH   5  20
TORSDOF 6
ENDMDL
MODEL 6
REMARK VINA RESULT:      -8.0      3.511      8.797
REMARK  6 active torsions:
REMARK  status: ('A' for Active; 'I' for Inactive)
REMARK    1  A    between atoms: C2_2  and  C3_3 
REMARK       I    between atoms: C3_3  and  N1_5 
REMARK    2  A    between atoms: N1_5  and  C4_6 
REMARK    3  A    between atoms: C5_7  and  C6_8 
REMARK    4  A    between atoms: C6_8  and  N2_9 
REMARK    5  A    between atoms: N2_9  and  C7_10 
REMARK    6  A    between atoms: C10_14  and  C11_15 
ROOT
HETATM    1  C7  UNL     1      26.310   3.608  49.938  1.00  0.00     0.101 C 
HETATM    2  N3  UNL     1      26.902   2.757  50.740  1.00  0.00    -0.248 NA
HETATM    3  C8  UNL     1      26.375   1.678  51.540  1.00  0.00     0.121 C 
HETATM    4  C9  UNL     1      25.121   1.359  51.893  1.00  0.00     0.051 C 
HETATM    5  C10 UNL     1      23.804   1.930  51.640  1.00  0.00     0.065 C 
HETATM    6  N5  UNL     1      23.463   3.060  51.122  1.00  0.00    -0.288 NA
HETATM    7  C20 UNL     1      24.010   4.269  50.563  1.00  0.00     0.157 C 
HETATM    8  C21 UNL     1      24.952   3.944  49.432  1.00  0.00     0.100 C 
ENDROOT
BRANCH   1   9
HETATM    9  N2  UNL     1      27.373   4.434  49.441  1.00  0.00    -0.375 N 
HETATM   10  H9  UNL     1      28.369   4.099  49.647  1.00  0.00     0.161 HD
BRANCH   9  11
HETATM   11  C6  UNL     1      27.041   5.643  48.714  1.00  0.00     0.149 C 
BRANCH  11  12
HETATM   12  C5  UNL     1      28.236   6.265  48.106  1.00  0.00     0.010 C 
HETATM   13  C4  UNL     1      29.122   7.228  48.216  1.00  0.00     0.089 C 
BRANCH  13  14
HETATM   14  N1  UNL     1      29.544   8.333  48.989  1.00  0.00    -0.334 N 
HETATM   15  C3  UNL     1      30.218   9.521  48.623  1.00  0.00     0.244 C 
HETATM   16  O1  UNL     1      30.522   9.687  47.417  1.00  0.00    -0.268 OA
HETATM   17  H4  UNL     1      29.378   8.382  50.031  1.00  0.00     0.168 HD
BRANCH  15  18
HETATM   18  C2  UNL     1      30.598  10.585  49.530  1.00  0.00     0.064 C 
HETATM   19  C1  UNL     1      30.761  11.804  49.103  1.00  0.00     0.017 C 
ENDBRANCH  15  18
ENDBRANCH  13  14
ENDBRANCH  11  12
ENDBRANCH   9  11
ENDBRANCH   1   9
BRANCH   5  20
HETATM   20  C11 UNL     1      22.643   1.152  52.012  1.00  0.00     0.020 A 
HETATM   21  C12 UNL     1      21.453   1.273  51.283  1.00  0.00     0.105 A 
HETATM   22  N4  UNL     1      20.508   0.458  51.804  1.00  0.00    -0.360 N 
HETATM   23  C13 UNL     1      19.147   0.338  51.281  1.00  0.00     0.156 C 
HETATM   24  C14 UNL     1      21.016  -0.200  52.846  1.00  0.00     0.045 A 
HETATM   25  C15 UNL     1      20.519  -1.140  53.738  1.00  0.00     0.030 A 
HETATM   26  C19 UNL     1      22.328   0.220  52.982  1.00  0.00     0.005 A 
HETATM   27  C16 UNL     1      21.361  -1.618  54.727  1.00  0.00     0.002 A 
HETATM   28  C17 UNL     1      22.683  -1.178  54.842  1.00  0.00     0.001 A 
HETATM   29  C18 UNL     1      23.192  -0.235  53.953  1.00  0.00     0.014 A 
ENDBRANCH   5  20
TORSDOF 6
ENDMDL
MODEL 7
REMARK VINA RESULT:      -7.9      2.235      7.282
REMARK  6 active torsions:
REMARK  status: ('A' for Active; 'I' for Inactive)
REMARK    1  A    between atoms: C2_2  and  C3_3 
REMARK       I    between atoms: C3_3  and  N1_5 
REMARK    2  A    between atoms: N1_5  and  C4_6 
REMARK    3  A    between atoms: C5_7  and  C6_8 
REMARK    4  A    between atoms: C6_8  and  N2_9 
REMARK    5  A    between atoms: N2_9  and  C7_10 
REMARK    6  A    between atoms: C10_14  and  C11_15 
ROOT
HETATM    1  C7  UNL     1      22.058   5.670  49.721  1.00  0.00     0.101 C 
HETATM    2  N3  UNL     1      22.555   4.908  48.778  1.00  0.00    -0.248 NA
HETATM    3  C8  UNL     1      23.098   3.572  48.820  1.00  0.00     0.121 C 
HETATM    4  C9  UNL     1      23.474   2.794  49.846  1.00  0.00     0.051 C 
HETATM    5  C10 UNL     1      23.501   2.944  51.295  1.00  0.00     0.065 C 
HETATM    6  N5  UNL     1      23.324   3.984  52.037  1.00  0.00    -0.288 NA
HETATM    7  C20 UNL     1      23.045   5.395  51.972  1.00  0.00     0.157 C 
HETATM    8  C21 UNL     1      21.785   5.644  51.184  1.00  0.00     0.100 C 
ENDROOT
BRANCH   1   9
HETATM    9  N2  UNL     1      21.690   6.883  49.048  1.00  0.00    -0.375 N 
HETATM   10  H9  UNL     1      21.025   6.780  48.216  1.00  0.00     0.161 HD
BRANCH   9  11
HETATM   11  C6  UNL     1      22.235   8.141  49.522  1.00  0.00     0.149 C 
BRANCH  11  12
HETATM   12  C5  UNL     1      23.418   8.556  48.740  1.00  0.00     0.010 C 
HETATM   13  C4  UNL     1      24.564   8.167  48.232  1.00  0.00     0.089 C 
BRANCH  13  14
HETATM   14  N1  UNL     1      25.457   7.081  48.082  1.00  0.00    -0.334 N 
HETATM   15  C3  UNL     1      26.042   6.220  49.038  1.00  0.00     0.244 C 
HETATM   16  O1  UNL     1      25.760   6.393  50.249  1.00  0.00    -0.268 OA
HETATM   17  H4  UNL     1      25.812   6.777  47.135  1.00  0.00     0.168 HD
BRANCH  15  18
HETATM   18  C2  UNL     1      26.956   5.135  48.744  1.00  0.00     0.064 C 
HETATM   19  C1  UNL     1      26.821   3.972  49.314  1.00  0.00     0.017 C 
ENDBRANCH  15  18
ENDBRANCH  13  14
ENDBRANCH  11  12
ENDBRANCH   9  11
ENDBRANCH   1   9
BRANCH   5  20
HETATM   20  C11 UNL     1      23.769   1.769  52.096  1.00  0.00     0.020 A 
HETATM   21  C12 UNL     1      22.744   1.184  52.849  1.00  0.00     0.105 A 
HETATM   22  N4  UNL     1      23.219   0.105  53.514  1.00  0.00    -0.360 N 
HETATM   23  C13 UNL     1      22.410  -0.738  54.394  1.00  0.00     0.156 C 
HETATM   24  C14 UNL     1      24.512  -0.053  53.234  1.00  0.00     0.045 A 
HETATM   25  C15 UNL     1      25.485  -0.965  53.619  1.00  0.00     0.030 A 
HETATM   26  C19 UNL     1      24.859   0.965  52.363  1.00  0.00     0.005 A 
HETATM   27  C16 UNL     1      26.764  -0.816  53.113  1.00  0.00     0.002 A 
HETATM   28  C17 UNL     1      27.089   0.222  52.234  1.00  0.00     0.001 A 
HETATM   29  C18 UNL     1      26.122   1.142  51.841  1.00  0.00     0.014 A 
ENDBRANCH   5  20
TORSDOF 6
ENDMDL
MODEL 8
REMARK VINA RESULT:      -7.9      2.877      8.036
REMARK  6 active torsions:
REMARK  status: ('A' for Active; 'I' for Inactive)
REMARK    1  A    between atoms: C2_2  and  C3_3 
REMARK       I    between atoms: C3_3  and  N1_5 
REMARK    2  A    between atoms: N1_5  and  C4_6 
REMARK    3  A    between atoms: C5_7  and  C6_8 
REMARK    4  A    between atoms: C6_8  and  N2_9 
REMARK    5  A    between atoms: N2_9  and  C7_10 
REMARK    6  A    between atoms: C10_14  and  C11_15 
ROOT
HETATM    1  C7  UNL     1      26.090   4.297  49.683  1.00  0.00     0.101 C 
HETATM    2  N3  UNL     1      26.839   3.424  50.311  1.00  0.00    -0.248 NA
HETATM    3  C8  UNL     1      26.498   2.239  51.058  1.00  0.00     0.121 C 
HETATM    4  C9  UNL     1      25.326   1.791  51.536  1.00  0.00     0.051 C 
HETATM    5  C10 UNL     1      23.953   2.278  51.514  1.00  0.00     0.065 C 
HETATM    6  N5  UNL     1      23.472   3.422  51.163  1.00  0.00    -0.288 NA
HETATM    7  C20 UNL     1      23.858   4.716  50.664  1.00  0.00     0.157 C 
HETATM    8  C21 UNL     1      24.656   4.571  49.394  1.00  0.00     0.100 C 
ENDROOT
BRANCH   1   9
HETATM    9  N2  UNL     1      27.019   5.246  49.139  1.00  0.00    -0.375 N 
HETATM   10  H9  UNL     1      28.031   4.912  49.038  1.00  0.00     0.161 HD
BRANCH   9  11
HETATM   11  C6  UNL     1      26.543   6.566  48.777  1.00  0.00     0.149 C 
BRANCH  11  12
HETATM   12  C5  UNL     1      27.448   7.233  47.818  1.00  0.00     0.010 C 
HETATM   13  C4  UNL     1      28.683   7.314  47.381  1.00  0.00     0.089 C 
BRANCH  13  14
HETATM   14  N1  UNL     1      29.999   6.819  47.526  1.00  0.00    -0.334 N 
HETATM   15  C3  UNL     1      30.478   5.527  47.844  1.00  0.00     0.244 C 
HETATM   16  O1  UNL     1      29.641   4.613  48.042  1.00  0.00    -0.268 OA
HETATM   17  H4  UNL     1      30.846   7.438  47.396  1.00  0.00     0.168 HD
BRANCH  15  18
HETATM   18  C2  UNL     1      31.872   5.154  47.963  1.00  0.00     0.064 C 
HETATM   19  C1  UNL     1      32.316   4.043  47.449  1.00  0.00     0.017 C 
ENDBRANCH  15  18
ENDBRANCH  13  14
ENDBRANCH  11  12
ENDBRANCH   9  11
ENDBRANCH   1   9
BRANCH   5  20
HETATM   20  C11 UNL     1      22.906   1.381  51.953  1.00  0.00     0.020 A 
HETATM   21  C12 UNL     1      21.660   1.390  51.313  1.00  0.00     0.105 A 
HETATM   22  N4  UNL     1      20.843   0.476  51.884  1.00  0.00    -0.360 N 
HETATM   23  C13 UNL     1      19.466   0.226  51.457  1.00  0.00     0.156 C 
HETATM   24  C14 UNL     1      21.490  -0.141  52.872  1.00  0.00     0.045 A 
HETATM   25  C15 UNL     1      21.157  -1.140  53.777  1.00  0.00     0.030 A 
HETATM   26  C19 UNL     1      22.759   0.408  52.922  1.00  0.00     0.005 A 
HETATM   27  C16 UNL     1      22.113  -1.544  54.692  1.00  0.00     0.002 A 
HETATM   28  C17 UNL     1      23.389  -0.972  54.721  1.00  0.00     0.001 A 
HETATM   29  C18 UNL     1      23.734   0.030  53.819  1.00  0.00     0.014 A 
ENDBRANCH   5  20
TORSDOF 6
ENDMDL
MODEL 9
REMARK VINA RESULT:      -7.8      4.842      8.437
REMARK  6 active torsions:
REMARK  status: ('A' for Active; 'I' for Inactive)
REMARK    1  A    between atoms: C2_2  and  C3_3 
REMARK       I    between atoms: C3_3  and  N1_5 
REMARK    2  A    between atoms: N1_5  and  C4_6 
REMARK    3  A    between atoms: C5_7  and  C6_8 
REMARK    4  A    between atoms: C6_8  and  N2_9 
REMARK    5  A    between atoms: N2_9  and  C7_10 
REMARK    6  A    between atoms: C10_14  and  C11_15 
ROOT
HETATM    1  C7  UNL     1      21.346   1.315  52.728  1.00  0.00     0.101 C 
HETATM    2  N3  UNL     1      21.419   0.163  53.349  1.00  0.00    -0.248 NA
HETATM    3  C8  UNL     1      22.550  -0.575  53.855  1.00  0.00     0.121 C 
HETATM    4  C9  UNL     1      23.869  -0.439  53.651  1.00  0.00     0.051 C 
HETATM    5  C10 UNL     1      24.701   0.466  52.869  1.00  0.00     0.065 C 
HETATM    6  N5  UNL     1      24.384   1.331  51.966  1.00  0.00    -0.288 NA
HETATM    7  C20 UNL     1      23.256   1.880  51.260  1.00  0.00     0.157 C 
HETATM    8  C21 UNL     1      22.233   2.404  52.235  1.00  0.00     0.100 C 
ENDROOT
BRANCH   1   9
HETATM    9  N2  UNL     1      19.945   1.505  52.484  1.00  0.00    -0.375 N 
HETATM   10  H9  UNL     1      19.386   1.967  53.271  1.00  0.00     0.161 HD
BRANCH   9  11
HETATM   11  C6  UNL     1      19.386   1.065  51.221  1.00  0.00     0.149 C 
BRANCH  11  12
HETATM   12  C5  UNL     1      18.519  -0.120  51.386  1.00  0.00     0.010 C 
HETATM   13  C4  UNL     1      17.361  -0.553  51.827  1.00  0.00     0.089 C 
BRANCH  13  14
HETATM   14  N1  UNL     1      16.146  -0.187  52.449  1.00  0.00    -0.334 N 
HETATM   15  C3  UNL     1      15.372   0.992  52.356  1.00  0.00     0.244 C 
HETATM   16  O1  UNL     1      15.777   1.914  51.607  1.00  0.00    -0.268 OA
HETATM   17  H4  UNL     1      15.644  -0.833  53.118  1.00  0.00     0.168 HD
BRANCH  15  18
HETATM   18  C2  UNL     1      14.130   1.240  53.060  1.00  0.00     0.064 C 
HETATM   19  C1  UNL     1      13.317   2.182  52.675  1.00  0.00     0.017 C 
ENDBRANCH  15  18
ENDBRANCH  13  14
ENDBRANCH  11  12
ENDBRANCH   9  11
ENDBRANCH   1   9
BRANCH   5  20
HETATM   20  C11 UNL     1      26.130   0.438  53.089  1.00  0.00     0.020 A 
HETATM   21  C12 UNL     1      26.814   1.618  53.411  1.00  0.00     0.105 A 
HETATM   22  N4  UNL     1      28.132   1.357  53.572  1.00  0.00    -0.360 N 
HETATM   23  C13 UNL     1      29.133   2.367  53.914  1.00  0.00     0.156 C 
HETATM   24  C14 UNL     1      28.353   0.057  53.374  1.00  0.00     0.045 A 
HETATM   25  C15 UNL     1      29.480  -0.752  53.407  1.00  0.00     0.030 A 
HETATM   26  C19 UNL     1      27.129  -0.515  53.077  1.00  0.00     0.005 A 
HETATM   27  C16 UNL     1      29.328  -2.102  53.141  1.00  0.00     0.002 A 
HETATM   28  C17 UNL     1      28.080  -2.655  52.843  1.00  0.00     0.001 A 
HETATM   29  C18 UNL     1      26.943  -1.853  52.807  1.00  0.00     0.014 A 
ENDBRANCH   5  20
TORSDOF 6
ENDMDL
