MODEL 1
REMARK VINA RESULT:      -8.2      0.000      0.000
REMARK  4 active torsions:
REMARK  status: ('A' for Active; 'I' for Inactive)
REMARK    1  A    between atoms: C3_3  and  C4_4 
REMARK       I    between atoms: C4_4  and  N1_6 
REMARK    2  A    between atoms: N1_6  and  C5_7 
REMARK    3  A    between atoms: C18_23  and  N4_24 
REMARK    4  A    between atoms: C18_23  and  O2_25 
ROOT
HETATM    1  C1  UNL     1      30.446  -1.471  54.122  1.00  0.00     0.112 C 
HETATM    2  C2  UNL     1      29.467  -0.470  53.660  1.00  0.00    -0.101 C 
HETATM    3  C3  UNL     1      28.643   0.351  53.262  1.00  0.00    -0.006 C 
ENDROOT
BRANCH   3   4
HETATM    4  C4  UNL     1      27.673   1.302  52.771  1.00  0.00     0.300 C 
HETATM    5  O1  UNL     1      28.139   2.491  52.720  1.00  0.00    -0.258 OA
HETATM    6  N1  UNL     1      26.367   0.796  52.423  1.00  0.00    -0.315 N 
HETATM    7  H4  UNL     1      26.240  -0.255  52.605  1.00  0.00     0.169 HD
BRANCH   6   8
HETATM    8  C5  UNL     1      25.168   1.428  51.894  1.00  0.00     0.079 C 
HETATM    9  C6  UNL     1      24.266   0.650  52.563  1.00  0.00     0.015 C 
HETATM   10  C7  UNL     1      23.114   0.055  53.077  1.00  0.00     0.061 C 
HETATM   11  C8  UNL     1      21.800  -0.336  53.411  1.00  0.00     0.070 C 
HETATM   12  N2  UNL     1      20.416   0.029  53.090  1.00  0.00    -0.369 N 
HETATM   13  C9  UNL     1      20.679   0.953  52.006  1.00  0.00     0.033 A 
HETATM   14  H8  UNL     1      19.994  -0.577  53.821  1.00  0.00     0.165 HD
HETATM   15  C10 UNL     1      20.969   0.339  50.817  1.00  0.00     0.030 A 
HETATM   16  C14 UNL     1      20.715   2.255  52.449  1.00  0.00     0.049 A 
HETATM   17  C11 UNL     1      21.416   1.025  49.704  1.00  0.00     0.016 A 
HETATM   18  C12 UNL     1      21.308   2.111  50.525  1.00  0.00     0.002 A 
HETATM   19  C13 UNL     1      21.152   3.095  51.441  1.00  0.00     0.025 A 
HETATM   20  C15 UNL     1      22.407   2.732  49.712  1.00  0.00     0.057 C 
HETATM   21 BR1  UNL     1      21.432   4.972  51.368  1.00  0.00    -0.050 Br
HETATM   22  C16 UNL     1      22.304   3.358  48.432  1.00  0.00     0.100 C 
HETATM   23  C17 UNL     1      23.589   2.624  50.379  1.00  0.00     0.073 C 
HETATM   24  N3  UNL     1      22.234   3.853  47.390  1.00  0.00    -0.191 NA
HETATM   25  C18 UNL     1      24.905   2.573  50.983  1.00  0.00     0.319 C 
BRANCH  25  26
HETATM   26  N4  UNL     1      25.123   3.756  51.877  1.00  0.00     0.124 N 
HETATM   27  H13 UNL     1      24.191   4.018  52.226  1.00  0.00     0.317 HD
HETATM   28  H14 UNL     1      25.613   4.499  51.359  1.00  0.00     0.317 HD
ENDBRANCH  25  26
BRANCH  25  29
HETATM   29  O2  UNL     1      25.850   2.658  49.984  1.00  0.00    -0.350 OA
HETATM   30  C19 UNL     1      26.434   3.873  49.782  1.00  0.00     0.205 C 
ENDBRANCH  25  29
ENDBRANCH   6   8
ENDBRANCH   3   4
TORSDOF 4
ENDMDL
MODEL 2
REMARK VINA RESULT:      -7.2     10.813     13.102
REMARK  4 active torsions:
REMARK  status: ('A' for Active; 'I' for Inactive)
REMARK    1  A    between atoms: C3_3  and  C4_4 
REMARK       I    between atoms: C4_4  and  N1_6 
REMARK    2  A    between atoms: N1_6  and  C5_7 
REMARK    3  A    between atoms: C18_23  and  N4_24 
REMARK    4  A    between atoms: C18_23  and  O2_25 
ROOT
HETATM    1  C1  UNL     1      33.928   1.085  39.155  1.00  0.00     0.112 C 
HETATM    2  C2  UNL     1      33.960   2.293  40.000  1.00  0.00    -0.101 C 
HETATM    3  C3  UNL     1      33.966   3.296  40.710  1.00  0.00    -0.006 C 
ENDROOT
BRANCH   3   4
HETATM    4  C4  UNL     1      33.948   4.477  41.542  1.00  0.00     0.300 C 
HETATM    5  O1  UNL     1      34.167   5.546  40.877  1.00  0.00    -0.258 OA
HETATM    6  N1  UNL     1      33.696   4.289  42.951  1.00  0.00    -0.315 N 
HETATM    7  H4  UNL     1      33.582   3.263  43.244  1.00  0.00     0.169 HD
BRANCH   6   8
HETATM    8  C5  UNL     1      33.587   5.214  44.069  1.00  0.00     0.079 C 
HETATM    9  C6  UNL     1      34.089   4.373  45.022  1.00  0.00     0.015 C 
HETATM   10  C7  UNL     1      34.543   3.788  46.205  1.00  0.00     0.061 C 
HETATM   11  C8  UNL     1      34.921   3.478  47.528  1.00  0.00     0.070 C 
HETATM   12  N2  UNL     1      34.946   4.104  48.854  1.00  0.00    -0.369 N 
HETATM   13  C9  UNL     1      34.200   5.306  48.542  1.00  0.00     0.033 A 
HETATM   14  H8  UNL     1      35.491   3.342  49.302  1.00  0.00     0.165 HD
HETATM   15  C10 UNL     1      32.846   5.112  48.476  1.00  0.00     0.030 A 
HETATM   16  C14 UNL     1      35.035   6.357  48.242  1.00  0.00     0.049 A 
HETATM   17  C11 UNL     1      31.967   6.078  48.026  1.00  0.00     0.016 A 
HETATM   18  C12 UNL     1      33.105   6.815  47.869  1.00  0.00     0.002 A 
HETATM   19  C13 UNL     1      34.307   7.431  47.767  1.00  0.00     0.025 A 
HETATM   20  C15 UNL     1      32.389   7.535  46.763  1.00  0.00     0.057 C 
HETATM   21 BR1  UNL     1      34.814   9.165  47.179  1.00  0.00    -0.050 Br
HETATM   22  C16 UNL     1      31.416   8.574  46.880  1.00  0.00     0.100 C 
HETATM   23  C17 UNL     1      32.801   7.052  45.558  1.00  0.00     0.073 C 
HETATM   24  N3  UNL     1      30.617   9.405  46.964  1.00  0.00    -0.191 NA
HETATM   25  C18 UNL     1      33.153   6.627  44.219  1.00  0.00     0.319 C 
BRANCH  25  26
HETATM   26  N4  UNL     1      34.342   7.387  43.718  1.00  0.00     0.124 N 
HETATM   27  H13 UNL     1      34.774   7.812  44.551  1.00  0.00     0.317 HD
HETATM   28  H14 UNL     1      34.048   8.060  42.996  1.00  0.00     0.317 HD
ENDBRANCH  25  26
BRANCH  25  29
HETATM   29  O2  UNL     1      32.109   6.932  43.373  1.00  0.00    -0.350 OA
HETATM   30  C19 UNL     1      32.244   8.043  42.595  1.00  0.00     0.205 C 
ENDBRANCH  25  29
ENDBRANCH   6   8
ENDBRANCH   3   4
TORSDOF 4
ENDMDL
MODEL 3
REMARK VINA RESULT:      -7.1      3.381      6.498
REMARK  4 active torsions:
REMARK  status: ('A' for Active; 'I' for Inactive)
REMARK    1  A    between atoms: C3_3  and  C4_4 
REMARK       I    between atoms: C4_4  and  N1_6 
REMARK    2  A    between atoms: N1_6  and  C5_7 
REMARK    3  A    between atoms: C18_23  and  N4_24 
REMARK    4  A    between atoms: C18_23  and  O2_25 
ROOT
HETATM    1  C1  UNL     1      17.035  -3.919  53.940  1.00  0.00     0.112 C 
HETATM    2  C2  UNL     1      17.495  -2.632  53.386  1.00  0.00    -0.101 C 
HETATM    3  C3  UNL     1      17.893  -1.570  52.914  1.00  0.00    -0.006 C 
ENDROOT
BRANCH   3   4
HETATM    4  C4  UNL     1      18.385  -0.331  52.357  1.00  0.00     0.300 C 
HETATM    5  O1  UNL     1      17.445   0.409  51.908  1.00  0.00    -0.258 OA
HETATM    6  N1  UNL     1      19.812  -0.115  52.384  1.00  0.00    -0.315 N 
HETATM    7  H4  UNL     1      20.373  -0.934  52.792  1.00  0.00     0.169 HD
BRANCH   6   8
HETATM    8  C5  UNL     1      20.655   0.987  51.945  1.00  0.00     0.079 C 
HETATM    9  C6  UNL     1      21.834   0.488  52.421  1.00  0.00     0.015 C 
HETATM   10  C7  UNL     1      23.167   0.273  52.773  1.00  0.00     0.061 C 
HETATM   11  C8  UNL     1      24.560   0.341  52.991  1.00  0.00     0.070 C 
HETATM   12  N2  UNL     1      25.684   1.244  52.726  1.00  0.00    -0.369 N 
HETATM   13  C9  UNL     1      24.938   2.386  52.241  1.00  0.00     0.033 A 
HETATM   14  H8  UNL     1      26.413   0.569  53.030  1.00  0.00     0.165 HD
HETATM   15  C10 UNL     1      24.360   3.129  53.236  1.00  0.00     0.030 A 
HETATM   16  C14 UNL     1      24.860   2.394  50.868  1.00  0.00     0.049 A 
HETATM   17  C11 UNL     1      23.467   4.154  52.989  1.00  0.00     0.016 A 
HETATM   18  C12 UNL     1      23.683   3.816  51.684  1.00  0.00     0.002 A 
HETATM   19  C13 UNL     1      23.990   3.380  50.440  1.00  0.00     0.025 A 
HETATM   20  C15 UNL     1      22.295   4.320  51.410  1.00  0.00     0.057 C 
HETATM   21 BR1  UNL     1      23.426   3.930  48.712  1.00  0.00    -0.050 Br
HETATM   22  C16 UNL     1      21.868   5.675  51.264  1.00  0.00     0.100 C 
HETATM   23  C17 UNL     1      21.436   3.268  51.309  1.00  0.00     0.073 C 
HETATM   24  N3  UNL     1      21.509   6.769  51.159  1.00  0.00    -0.191 NA
HETATM   25  C18 UNL     1      20.423   2.240  51.181  1.00  0.00     0.319 C 
BRANCH  25  26
HETATM   26  N4  UNL     1      20.345   1.749  49.767  1.00  0.00     0.124 N 
HETATM   27  H13 UNL     1      21.105   2.226  49.263  1.00  0.00     0.317 HD
HETATM   28  H14 UNL     1      19.403   1.922  49.389  1.00  0.00     0.317 HD
ENDBRANCH  25  26
BRANCH  25  29
HETATM   29  O2  UNL     1      19.196   2.795  51.470  1.00  0.00    -0.350 OA
HETATM   30  C19 UNL     1      18.682   3.676  50.565  1.00  0.00     0.205 C 
ENDBRANCH  25  29
ENDBRANCH   6   8
ENDBRANCH   3   4
TORSDOF 4
ENDMDL
MODEL 4
REMARK VINA RESULT:      -6.9      7.555     11.258
REMARK  4 active torsions:
REMARK  status: ('A' for Active; 'I' for Inactive)
REMARK    1  A    between atoms: C3_3  and  C4_4 
REMARK       I    between atoms: C4_4  and  N1_6 
REMARK    2  A    between atoms: N1_6  and  C5_7 
REMARK    3  A    between atoms: C18_23  and  N4_24 
REMARK    4  A    between atoms: C18_23  and  O2_25 
ROOT
HETATM    1  C1  UNL     1      24.943   3.382  50.759  1.00  0.00     0.112 C 
HETATM    2  C2  UNL     1      25.784   4.288  49.956  1.00  0.00    -0.101 C 
HETATM    3  C3  UNL     1      26.484   5.057  49.302  1.00  0.00    -0.006 C 
ENDROOT
BRANCH   3   4
HETATM    4  C4  UNL     1      27.297   5.982  48.546  1.00  0.00     0.300 C 
HETATM    5  O1  UNL     1      26.597   6.853  47.926  1.00  0.00    -0.258 OA
HETATM    6  N1  UNL     1      28.728   5.798  48.595  1.00  0.00    -0.315 N 
HETATM    7  H4  UNL     1      29.042   4.950  49.173  1.00  0.00     0.169 HD
BRANCH   6   8
HETATM    8  C5  UNL     1      29.840   6.520  47.995  1.00  0.00     0.079 C 
HETATM    9  C6  UNL     1      30.750   5.503  48.068  1.00  0.00     0.015 C 
HETATM   10  C7  UNL     1      31.889   4.701  47.994  1.00  0.00     0.061 C 
HETATM   11  C8  UNL     1      33.173   4.151  47.793  1.00  0.00     0.070 C 
HETATM   12  N2  UNL     1      34.482   4.547  47.264  1.00  0.00    -0.369 N 
HETATM   13  C9  UNL     1      34.230   5.964  47.095  1.00  0.00     0.033 A 
HETATM   14  H8  UNL     1      34.883   3.590  47.296  1.00  0.00     0.165 HD
HETATM   15  C10 UNL     1      34.299   6.678  48.261  1.00  0.00     0.030 A 
HETATM   16  C14 UNL     1      33.837   6.258  45.811  1.00  0.00     0.049 A 
HETATM   17  C11 UNL     1      33.926   8.005  48.355  1.00  0.00     0.016 A 
HETATM   18  C12 UNL     1      33.650   7.858  47.027  1.00  0.00     0.002 A 
HETATM   19  C13 UNL     1      33.423   7.574  45.723  1.00  0.00     0.025 A 
HETATM   20  C15 UNL     1      32.611   8.927  47.209  1.00  0.00     0.057 C 
HETATM   21 BR1  UNL     1      32.767   8.619  44.278  1.00  0.00    -0.050 Br
HETATM   22  C16 UNL     1      32.809  10.339  47.282  1.00  0.00     0.100 C 
HETATM   23  C17 UNL     1      31.377   8.357  47.302  1.00  0.00     0.073 C 
HETATM   24  N3  UNL     1      32.961  11.482  47.357  1.00  0.00    -0.191 NA
HETATM   25  C18 UNL     1      30.015   7.877  47.415  1.00  0.00     0.319 C 
BRANCH  25  26
HETATM   26  N4  UNL     1      29.391   7.733  46.060  1.00  0.00     0.124 N 
HETATM   27  H13 UNL     1      28.940   8.638  45.863  1.00  0.00     0.317 HD
HETATM   28  H14 UNL     1      28.754   6.924  46.053  1.00  0.00     0.317 HD
ENDBRANCH  25  26
BRANCH  25  29
HETATM   29  O2  UNL     1      29.272   8.820  48.090  1.00  0.00    -0.350 OA
HETATM   30  C19 UNL     1      29.694   9.166  49.339  1.00  0.00     0.205 C 
ENDBRANCH  25  29
ENDBRANCH   6   8
ENDBRANCH   3   4
TORSDOF 4
ENDMDL
MODEL 5
REMARK VINA RESULT:      -6.8      2.406      3.393
REMARK  4 active torsions:
REMARK  status: ('A' for Active; 'I' for Inactive)
REMARK    1  A    between atoms: C3_3  and  C4_4 
REMARK       I    between atoms: C4_4  and  N1_6 
REMARK    2  A    between atoms: N1_6  and  C5_7 
REMARK    3  A    between atoms: C18_23  and  N4_24 
REMARK    4  A    between atoms: C18_23  and  O2_25 
ROOT
HETATM    1  C1  UNL     1      27.585  -2.144  52.887  1.00  0.00     0.112 C 
HETATM    2  C2  UNL     1      26.901  -0.847  52.734  1.00  0.00    -0.101 C 
HETATM    3  C3  UNL     1      26.331   0.231  52.586  1.00  0.00    -0.006 C 
ENDROOT
BRANCH   3   4
HETATM    4  C4  UNL     1      25.670   1.501  52.388  1.00  0.00     0.300 C 
HETATM    5  O1  UNL     1      25.767   2.266  53.406  1.00  0.00    -0.258 OA
HETATM    6  N1  UNL     1      25.020   1.716  51.117  1.00  0.00    -0.315 N 
HETATM    7  H4  UNL     1      25.065   0.875  50.452  1.00  0.00     0.169 HD
BRANCH   6   8
HETATM    8  C5  UNL     1      24.287   2.842  50.558  1.00  0.00     0.079 C 
HETATM    9  C6  UNL     1      23.200   2.131  50.132  1.00  0.00     0.015 C 
HETATM   10  C7  UNL     1      21.983   1.720  49.589  1.00  0.00     0.061 C 
HETATM   11  C8  UNL     1      20.721   1.612  48.966  1.00  0.00     0.070 C 
HETATM   12  N2  UNL     1      19.731   2.468  48.305  1.00  0.00    -0.369 N 
HETATM   13  C9  UNL     1      20.509   3.688  48.235  1.00  0.00     0.033 A 
HETATM   14  H8  UNL     1      19.002   1.730  48.246  1.00  0.00     0.165 HD
HETATM   15  C10 UNL     1      21.433   3.695  47.225  1.00  0.00     0.030 A 
HETATM   16  C14 UNL     1      20.237   4.522  49.294  1.00  0.00     0.049 A 
HETATM   17  C11 UNL     1      22.390   4.681  47.086  1.00  0.00     0.016 A 
HETATM   18  C12 UNL     1      21.799   5.192  48.206  1.00  0.00     0.002 A 
HETATM   19  C13 UNL     1      21.120   5.585  49.309  1.00  0.00     0.025 A 
HETATM   20  C15 UNL     1      23.136   5.789  48.539  1.00  0.00     0.057 C 
HETATM   21 BR1  UNL     1      21.313   7.077  50.469  1.00  0.00    -0.050 Br
HETATM   22  C16 UNL     1      23.730   6.967  47.993  1.00  0.00     0.100 C 
HETATM   23  C17 UNL     1      23.757   5.028  49.483  1.00  0.00     0.073 C 
HETATM   24  N3  UNL     1      24.226   7.912  47.548  1.00  0.00    -0.191 NA
HETATM   25  C18 UNL     1      24.521   4.307  50.481  1.00  0.00     0.319 C 
BRANCH  25  26
HETATM   26  N4  UNL     1      24.157   4.767  51.859  1.00  0.00     0.124 N 
HETATM   27  H13 UNL     1      23.618   5.635  51.732  1.00  0.00     0.317 HD
HETATM   28  H14 UNL     1      25.009   4.870  52.429  1.00  0.00     0.317 HD
ENDBRANCH  25  26
BRANCH  25  29
HETATM   29  O2  UNL     1      25.855   4.602  50.309  1.00  0.00    -0.350 OA
HETATM   30  C19 UNL     1      26.458   4.123  49.184  1.00  0.00     0.205 C 
ENDBRANCH  25  29
ENDBRANCH   6   8
ENDBRANCH   3   4
TORSDOF 4
ENDMDL
MODEL 6
REMARK VINA RESULT:      -6.6      3.094      6.557
REMARK  4 active torsions:
REMARK  status: ('A' for Active; 'I' for Inactive)
REMARK    1  A    between atoms: C3_3  and  C4_4 
REMARK       I    between atoms: C4_4  and  N1_6 
REMARK    2  A    between atoms: N1_6  and  C5_7 
REMARK    3  A    between atoms: C18_23  and  N4_24 
REMARK    4  A    between atoms: C18_23  and  O2_25 
ROOT
HETATM    1  C1  UNL     1      15.821  -1.068  49.046  1.00  0.00     0.112 C 
HETATM    2  C2  UNL     1      16.883  -0.232  49.634  1.00  0.00    -0.101 C 
HETATM    3  C3  UNL     1      17.783   0.451  50.117  1.00  0.00    -0.006 C 
ENDROOT
BRANCH   3   4
HETATM    4  C4  UNL     1      18.857   1.234  50.684  1.00  0.00     0.300 C 
HETATM    5  O1  UNL     1      18.536   1.765  51.801  1.00  0.00    -0.258 OA
HETATM    6  N1  UNL     1      20.091   1.303  49.939  1.00  0.00    -0.315 N 
HETATM    7  H4  UNL     1      20.067   0.783  49.000  1.00  0.00     0.169 HD
BRANCH   6   8
HETATM    8  C5  UNL     1      21.364   1.961  50.190  1.00  0.00     0.079 C 
HETATM    9  C6  UNL     1      21.824   1.070  51.120  1.00  0.00     0.015 C 
HETATM   10  C7  UNL     1      22.570   0.375  52.072  1.00  0.00     0.061 C 
HETATM   11  C8  UNL     1      23.534  -0.093  52.989  1.00  0.00     0.070 C 
HETATM   12  N2  UNL     1      24.856   0.282  53.502  1.00  0.00    -0.369 N 
HETATM   13  C9  UNL     1      24.961   1.594  52.896  1.00  0.00     0.033 A 
HETATM   14  H8  UNL     1      25.003  -0.604  54.024  1.00  0.00     0.165 HD
HETATM   15  C10 UNL     1      24.248   2.561  53.552  1.00  0.00     0.030 A 
HETATM   16  C14 UNL     1      25.648   1.548  51.706  1.00  0.00     0.049 A 
HETATM   17  C11 UNL     1      24.071   3.837  53.052  1.00  0.00     0.016 A 
HETATM   18  C12 UNL     1      24.821   3.363  52.014  1.00  0.00     0.002 A 
HETATM   19  C13 UNL     1      25.572   2.767  51.059  1.00  0.00     0.025 A 
HETATM   20  C15 UNL     1      24.095   4.351  51.146  1.00  0.00     0.057 C 
HETATM   21 BR1  UNL     1      26.278   3.389  49.408  1.00  0.00    -0.050 Br
HETATM   22  C16 UNL     1      24.335   5.754  51.026  1.00  0.00     0.100 C 
HETATM   23  C17 UNL     1      23.120   3.713  50.441  1.00  0.00     0.073 C 
HETATM   24  N3  UNL     1      24.511   6.892  50.932  1.00  0.00    -0.191 NA
HETATM   25  C18 UNL     1      22.052   3.156  49.637  1.00  0.00     0.319 C 
BRANCH  25  26
HETATM   26  N4  UNL     1      22.582   2.650  48.330  1.00  0.00     0.124 N 
HETATM   27  H13 UNL     1      22.314   1.657  48.285  1.00  0.00     0.317 HD
HETATM   28  H14 UNL     1      23.595   2.825  48.274  1.00  0.00     0.317 HD
ENDBRANCH  25  26
BRANCH  25  29
HETATM   29  O2  UNL     1      21.160   4.162  49.334  1.00  0.00    -0.350 OA
HETATM   30  C19 UNL     1      20.549   4.787  50.380  1.00  0.00     0.205 C 
ENDBRANCH  25  29
ENDBRANCH   6   8
ENDBRANCH   3   4
TORSDOF 4
ENDMDL
MODEL 7
REMARK VINA RESULT:      -6.6      6.786     10.371
REMARK  4 active torsions:
REMARK  status: ('A' for Active; 'I' for Inactive)
REMARK    1  A    between atoms: C3_3  and  C4_4 
REMARK       I    between atoms: C4_4  and  N1_6 
REMARK    2  A    between atoms: N1_6  and  C5_7 
REMARK    3  A    between atoms: C18_23  and  N4_24 
REMARK    4  A    between atoms: C18_23  and  O2_25 
ROOT
HETATM    1  C1  UNL     1      26.226   1.701  51.297  1.00  0.00     0.112 C 
HETATM    2  C2  UNL     1      26.325   2.935  50.496  1.00  0.00    -0.101 C 
HETATM    3  C3  UNL     1      26.406   3.975  49.846  1.00  0.00    -0.006 C 
ENDROOT
BRANCH   3   4
HETATM    4  C4  UNL     1      26.486   5.209  49.099  1.00  0.00     0.300 C 
HETATM    5  O1  UNL     1      25.351   5.582  48.648  1.00  0.00    -0.258 OA
HETATM    6  N1  UNL     1      27.787   5.823  48.975  1.00  0.00    -0.315 N 
HETATM    7  H4  UNL     1      28.583   5.263  49.429  1.00  0.00     0.169 HD
BRANCH   6   8
HETATM    8  C5  UNL     1      28.249   7.044  48.331  1.00  0.00     0.079 C 
HETATM    9  C6  UNL     1      29.475   6.573  47.952  1.00  0.00     0.015 C 
HETATM   10  C7  UNL     1      30.760   6.414  47.436  1.00  0.00     0.061 C 
HETATM   11  C8  UNL     1      32.025   6.559  46.827  1.00  0.00     0.070 C 
HETATM   12  N2  UNL     1      32.813   7.579  46.128  1.00  0.00    -0.369 N 
HETATM   13  C9  UNL     1      31.951   8.720  46.363  1.00  0.00     0.033 A 
HETATM   14  H8  UNL     1      33.567   6.926  45.839  1.00  0.00     0.165 HD
HETATM   15  C10 UNL     1      32.070   9.250  47.620  1.00  0.00     0.030 A 
HETATM   16  C14 UNL     1      31.096   8.934  45.308  1.00  0.00     0.049 A 
HETATM   17  C11 UNL     1      31.224  10.226  48.109  1.00  0.00     0.016 A 
HETATM   18  C12 UNL     1      30.640  10.113  46.881  1.00  0.00     0.002 A 
HETATM   19  C13 UNL     1      30.163   9.901  45.632  1.00  0.00     0.025 A 
HETATM   20  C15 UNL     1      29.360  10.540  47.541  1.00  0.00     0.057 C 
HETATM   21 BR1  UNL     1      28.719  10.665  44.663  1.00  0.00    -0.050 Br
HETATM   22  C16 UNL     1      28.960  11.862  47.903  1.00  0.00     0.100 C 
HETATM   23  C17 UNL     1      28.575   9.451  47.769  1.00  0.00     0.073 C 
HETATM   24  N3  UNL     1      28.632  12.927  48.212  1.00  0.00    -0.191 NA
HETATM   25  C18 UNL     1      27.649   8.377  48.067  1.00  0.00     0.319 C 
BRANCH  25  26
HETATM   26  N4  UNL     1      26.759   8.107  46.893  1.00  0.00     0.124 N 
HETATM   27  H13 UNL     1      26.634   7.085  46.866  1.00  0.00     0.317 HD
HETATM   28  H14 UNL     1      27.171   8.512  46.041  1.00  0.00     0.317 HD
ENDBRANCH  25  26
BRANCH  25  29
HETATM   29  O2  UNL     1      26.827   8.780  49.097  1.00  0.00    -0.350 OA
HETATM   30  C19 UNL     1      27.430   9.257  50.223  1.00  0.00     0.205 C 
ENDBRANCH  25  29
ENDBRANCH   6   8
ENDBRANCH   3   4
TORSDOF 4
ENDMDL
MODEL 8
REMARK VINA RESULT:      -6.5      3.611      6.391
REMARK  4 active torsions:
REMARK  status: ('A' for Active; 'I' for Inactive)
REMARK    1  A    between atoms: C3_3  and  C4_4 
REMARK       I    between atoms: C4_4  and  N1_6 
REMARK    2  A    between atoms: N1_6  and  C5_7 
REMARK    3  A    between atoms: C18_23  and  N4_24 
REMARK    4  A    between atoms: C18_23  and  O2_25 
ROOT
HETATM    1  C1  UNL     1      17.238  -3.643  53.790  1.00  0.00     0.112 C 
HETATM    2  C2  UNL     1      18.029  -2.432  53.502  1.00  0.00    -0.101 C 
HETATM    3  C3  UNL     1      18.673  -1.412  53.269  1.00  0.00    -0.006 C 
ENDROOT
BRANCH   3   4
HETATM    4  C4  UNL     1      19.408  -0.199  52.994  1.00  0.00     0.300 C 
HETATM    5  O1  UNL     1      19.934   0.302  54.046  1.00  0.00    -0.258 OA
HETATM    6  N1  UNL     1      19.442   0.258  51.625  1.00  0.00    -0.315 N 
HETATM    7  H4  UNL     1      18.873  -0.347  50.946  1.00  0.00     0.169 HD
BRANCH   6   8
HETATM    8  C5  UNL     1      20.077   1.396  50.977  1.00  0.00     0.079 C 
HETATM    9  C6  UNL     1      21.351   1.127  51.391  1.00  0.00     0.015 C 
HETATM   10  C7  UNL     1      22.725   1.143  51.633  1.00  0.00     0.061 C 
HETATM   11  C8  UNL     1      24.106   1.425  51.703  1.00  0.00     0.070 C 
HETATM   12  N2  UNL     1      25.061   2.428  51.223  1.00  0.00    -0.369 N 
HETATM   13  C9  UNL     1      24.119   3.386  50.681  1.00  0.00     0.033 A 
HETATM   14  H8  UNL     1      25.903   1.904  51.533  1.00  0.00     0.165 HD
HETATM   15  C10 UNL     1      23.521   4.168  51.632  1.00  0.00     0.030 A 
HETATM   16  C14 UNL     1      23.931   3.202  49.332  1.00  0.00     0.049 A 
HETATM   17  C11 UNL     1      22.471   5.023  51.354  1.00  0.00     0.016 A 
HETATM   18  C12 UNL     1      22.628   4.547  50.084  1.00  0.00     0.002 A 
HETATM   19  C13 UNL     1      22.895   3.996  48.877  1.00  0.00     0.025 A 
HETATM   20  C15 UNL     1      21.164   4.819  49.890  1.00  0.00     0.057 C 
HETATM   21 BR1  UNL     1      22.119   4.233  47.159  1.00  0.00    -0.050 Br
HETATM   22  C16 UNL     1      20.533   6.073  49.626  1.00  0.00     0.100 C 
HETATM   23  C17 UNL     1      20.463   3.657  50.000  1.00  0.00     0.073 C 
HETATM   24  N3  UNL     1      20.011   7.085  49.427  1.00  0.00    -0.191 NA
HETATM   25  C18 UNL     1      19.604   2.494  50.095  1.00  0.00     0.319 C 
BRANCH  25  26
HETATM   26  N4  UNL     1      19.485   1.815  48.765  1.00  0.00     0.124 N 
HETATM   27  H13 UNL     1      18.785   2.355  48.237  1.00  0.00     0.317 HD
HETATM   28  H14 UNL     1      19.249   0.822  48.900  1.00  0.00     0.317 HD
ENDBRANCH  25  26
BRANCH  25  29
HETATM   29  O2  UNL     1      18.336   2.912  50.436  1.00  0.00    -0.350 OA
HETATM   30  C19 UNL     1      18.200   3.594  51.608  1.00  0.00     0.205 C 
ENDBRANCH  25  29
ENDBRANCH   6   8
ENDBRANCH   3   4
TORSDOF 4
ENDMDL
MODEL 9
REMARK VINA RESULT:      -6.3      6.632     10.546
REMARK  4 active torsions:
REMARK  status: ('A' for Active; 'I' for Inactive)
REMARK    1  A    between atoms: C3_3  and  C4_4 
REMARK       I    between atoms: C4_4  and  N1_6 
REMARK    2  A    between atoms: N1_6  and  C5_7 
REMARK    3  A    between atoms: C18_23  and  N4_24 
REMARK    4  A    between atoms: C18_23  and  O2_25 
ROOT
HETATM    1  C1  UNL     1      22.130   4.175  48.180  1.00  0.00     0.112 C 
HETATM    2  C2  UNL     1      23.319   5.000  48.464  1.00  0.00    -0.101 C 
HETATM    3  C3  UNL     1      24.319   5.671  48.708  1.00  0.00    -0.006 C 
ENDROOT
BRANCH   3   4
HETATM    4  C4  UNL     1      25.501   6.443  49.014  1.00  0.00     0.300 C 
HETATM    5  O1  UNL     1      25.669   6.601  50.270  1.00  0.00    -0.258 OA
HETATM    6  N1  UNL     1      26.293   6.908  47.900  1.00  0.00    -0.315 N 
HETATM    7  H4  UNL     1      25.890   6.657  46.938  1.00  0.00     0.169 HD
BRANCH   6   8
HETATM    8  C5  UNL     1      27.526   7.678  47.815  1.00  0.00     0.079 C 
HETATM    9  C6  UNL     1      28.383   6.616  47.888  1.00  0.00     0.015 C 
HETATM   10  C7  UNL     1      29.501   5.783  47.939  1.00  0.00     0.061 C 
HETATM   11  C8  UNL     1      30.792   5.214  47.970  1.00  0.00     0.070 C 
HETATM   12  N2  UNL     1      32.195   5.639  47.927  1.00  0.00    -0.369 N 
HETATM   13  C9  UNL     1      31.994   7.069  48.037  1.00  0.00     0.033 A 
HETATM   14  H8  UNL     1      32.575   4.676  47.838  1.00  0.00     0.165 HD
HETATM   15  C10 UNL     1      31.733   7.492  49.313  1.00  0.00     0.030 A 
HETATM   16  C14 UNL     1      31.975   7.674  46.802  1.00  0.00     0.049 A 
HETATM   17  C11 UNL     1      31.343   8.782  49.614  1.00  0.00     0.016 A 
HETATM   18  C12 UNL     1      31.449   8.961  48.265  1.00  0.00     0.002 A 
HETATM   19  C13 UNL     1      31.596   8.998  46.920  1.00  0.00     0.025 A 
HETATM   20  C15 UNL     1      30.396  10.022  48.406  1.00  0.00     0.057 C 
HETATM   21 BR1  UNL     1      31.365  10.384  45.642  1.00  0.00    -0.050 Br
HETATM   22  C16 UNL     1      30.560  11.365  48.863  1.00  0.00     0.100 C 
HETATM   23  C17 UNL     1      29.187   9.525  48.021  1.00  0.00     0.073 C 
HETATM   24  N3  UNL     1      30.681  12.449  49.245  1.00  0.00    -0.191 NA
HETATM   25  C18 UNL     1      27.850   9.117  47.643  1.00  0.00     0.319 C 
BRANCH  25  26
HETATM   26  N4  UNL     1      27.629   9.327  46.176  1.00  0.00     0.124 N 
HETATM   27  H13 UNL     1      28.554   9.549  45.782  1.00  0.00     0.317 HD
HETATM   28  H14 UNL     1      26.914  10.054  46.031  1.00  0.00     0.317 HD
ENDBRANCH  25  26
BRANCH  25  29
HETATM   29  O2  UNL     1      26.944   9.925  48.294  1.00  0.00    -0.350 OA
HETATM   30  C19 UNL     1      26.932   9.874  49.656  1.00  0.00     0.205 C 
ENDBRANCH  25  29
ENDBRANCH   6   8
ENDBRANCH   3   4
TORSDOF 4
ENDMDL
