MODEL 1
REMARK VINA RESULT:      -7.3      0.000      0.000
REMARK  10 active torsions:
REMARK  status: ('A' for Active; 'I' for Inactive)
REMARK    1  A    between atoms: C5_5  and  C6_6 
REMARK    2  A    between atoms: C6_6  and  C7_7 
REMARK    3  A    between atoms: C7_7  and  N1_8 
REMARK    4  A    between atoms: N2_10  and  C9_11 
REMARK    5  A    between atoms: C9_11  and  C10_12 
REMARK    6  A    between atoms: C10_12  and  C11_13 
REMARK    7  A    between atoms: C11_13  and  C12_14 
REMARK    8  A    between atoms: C12_14  and  C13_15 
REMARK    9  A    between atoms: C13_15  and  C14_16 
REMARK   10  A    between atoms: C17_19  and  O1_20 
ROOT
HETATM    1  C9  UNL     1      24.304   2.996  52.795  1.00  0.00     0.128 C 
ENDROOT
BRANCH   1   2
HETATM    2  N2  UNL     1      24.645   1.643  52.984  1.00  0.00    -0.360 N 
HETATM    3  C3  UNL     1      24.054   0.393  53.268  1.00  0.00     0.011 A 
HETATM    4  C2  UNL     1      22.771   0.211  53.451  1.00  0.00    -0.006 C 
HETATM    5  C4  UNL     1      25.038  -0.713  53.309  1.00  0.00     0.092 A 
HETATM    6  C1  UNL     1      22.380  -1.192  53.703  1.00  0.00     0.038 C 
HETATM    7  C5  UNL     1      26.288   0.059  52.988  1.00  0.00    -0.057 A 
HETATM    8  C8  UNL     1      26.034   1.340  52.820  1.00  0.00     0.094 A 
BRANCH   7   9
HETATM    9  C6  UNL     1      27.464  -0.807  52.934  1.00  0.00     0.065 C 
BRANCH   9  10
HETATM   10  C7  UNL     1      27.138  -2.242  52.614  1.00  0.00     0.271 C 
BRANCH  10  11
HETATM   11  N1  UNL     1      28.228  -3.099  52.998  1.00  0.00     0.078 N 
HETATM   12  H11 UNL     1      28.545  -2.976  53.988  1.00  0.00     0.312 HD
HETATM   13  H12 UNL     1      29.017  -2.957  52.319  1.00  0.00     0.312 HD
ENDBRANCH  10  11
ENDBRANCH   9  10
ENDBRANCH   7   9
ENDBRANCH   1   2
BRANCH   1  14
HETATM   14  C10 UNL     1      23.456   3.349  51.640  1.00  0.00     0.020 C 
BRANCH  14  15
HETATM   15  C11 UNL     1      23.675   2.621  50.368  1.00  0.00     0.002 C 
BRANCH  15  16
HETATM   16  C12 UNL     1      24.420   3.456  49.339  1.00  0.00     0.005 C 
BRANCH  16  17
HETATM   17  C13 UNL     1      25.918   3.427  49.529  1.00  0.00     0.038 C 
BRANCH  17  18
HETATM   18  C14 UNL     1      26.532   4.758  49.176  1.00  0.00    -0.058 A 
HETATM   19  C15 UNL     1      27.774   4.755  48.605  1.00  0.00     0.010 A 
HETATM   20  C16 UNL     1      28.349   5.984  48.278  1.00  0.00     0.037 A 
HETATM   21  C17 UNL     1      27.713   7.201  48.505  1.00  0.00     0.068 A 
HETATM   22  C19 UNL     1      26.465   7.157  49.081  1.00  0.00     0.037 A 
HETATM   23  C20 UNL     1      25.869   5.955  49.417  1.00  0.00     0.010 A 
BRANCH  21  24
HETATM   24  O1  UNL     1      28.360   8.398  48.146  1.00  0.00    -0.356 OA
HETATM   25  C18 UNL     1      29.233   8.939  49.143  1.00  0.00     0.210 C 
ENDBRANCH  21  24
ENDBRANCH  17  18
ENDBRANCH  16  17
ENDBRANCH  15  16
ENDBRANCH  14  15
ENDBRANCH   1  14
TORSDOF 10
ENDMDL
MODEL 2
REMARK VINA RESULT:      -7.1      4.078      5.766
REMARK  10 active torsions:
REMARK  status: ('A' for Active; 'I' for Inactive)
REMARK    1  A    between atoms: C5_5  and  C6_6 
REMARK    2  A    between atoms: C6_6  and  C7_7 
REMARK    3  A    between atoms: C7_7  and  N1_8 
REMARK    4  A    between atoms: N2_10  and  C9_11 
REMARK    5  A    between atoms: C9_11  and  C10_12 
REMARK    6  A    between atoms: C10_12  and  C11_13 
REMARK    7  A    between atoms: C11_13  and  C12_14 
REMARK    8  A    between atoms: C12_14  and  C13_15 
REMARK    9  A    between atoms: C13_15  and  C14_16 
REMARK   10  A    between atoms: C17_19  and  O1_20 
ROOT
HETATM    1  C9  UNL     1      21.321   1.396  51.046  1.00  0.00     0.128 C 
ENDROOT
BRANCH   1   2
HETATM    2  N2  UNL     1      21.082   0.538  52.136  1.00  0.00    -0.360 N 
HETATM    3  C3  UNL     1      20.042  -0.197  52.745  1.00  0.00     0.011 A 
HETATM    4  C2  UNL     1      18.810  -0.230  52.305  1.00  0.00    -0.006 C 
HETATM    5  C4  UNL     1      20.495  -0.964  53.928  1.00  0.00     0.092 A 
HETATM    6  C1  UNL     1      17.902  -1.095  53.087  1.00  0.00     0.038 C 
HETATM    7  C5  UNL     1      21.953  -0.593  53.917  1.00  0.00    -0.057 A 
HETATM    8  C8  UNL     1      22.234   0.229  52.927  1.00  0.00     0.094 A 
BRANCH   7   9
HETATM    9  C6  UNL     1      22.688  -1.244  54.999  1.00  0.00     0.065 C 
BRANCH   9  10
HETATM   10  C7  UNL     1      24.175  -1.009  54.941  1.00  0.00     0.271 C 
BRANCH  10  11
HETATM   11  N1  UNL     1      24.815  -1.574  56.099  1.00  0.00     0.078 N 
HETATM   12  H11 UNL     1      24.504  -1.159  57.008  1.00  0.00     0.312 HD
HETATM   13  H12 UNL     1      25.855  -1.498  55.974  1.00  0.00     0.312 HD
ENDBRANCH  10  11
ENDBRANCH   9  10
ENDBRANCH   7   9
ENDBRANCH   1   2
BRANCH   1  14
HETATM   14  C10 UNL     1      22.068   2.645  51.289  1.00  0.00     0.020 C 
BRANCH  14  15
HETATM   15  C11 UNL     1      23.061   3.071  50.274  1.00  0.00     0.002 C 
BRANCH  15  16
HETATM   16  C12 UNL     1      24.493   2.809  50.714  1.00  0.00     0.005 C 
BRANCH  16  17
HETATM   17  C13 UNL     1      24.664   2.844  52.214  1.00  0.00     0.038 C 
BRANCH  17  18
HETATM   18  C14 UNL     1      25.643   1.791  52.668  1.00  0.00    -0.058 A 
HETATM   19  C15 UNL     1      26.227   1.952  53.894  1.00  0.00     0.010 A 
HETATM   20  C16 UNL     1      27.135   0.982  54.320  1.00  0.00     0.037 A 
HETATM   21  C17 UNL     1      27.466  -0.133  53.555  1.00  0.00     0.068 A 
HETATM   22  C19 UNL     1      26.854  -0.255  52.330  1.00  0.00     0.037 A 
HETATM   23  C20 UNL     1      25.950   0.690  51.879  1.00  0.00     0.010 A 
BRANCH  21  24
HETATM   24  O1  UNL     1      28.392  -1.067  54.056  1.00  0.00    -0.356 OA
HETATM   25  C18 UNL     1      29.732  -0.909  53.580  1.00  0.00     0.210 C 
ENDBRANCH  21  24
ENDBRANCH  17  18
ENDBRANCH  16  17
ENDBRANCH  15  16
ENDBRANCH  14  15
ENDBRANCH   1  14
TORSDOF 10
ENDMDL
MODEL 3
REMARK VINA RESULT:      -7.0      4.152      7.128
REMARK  10 active torsions:
REMARK  status: ('A' for Active; 'I' for Inactive)
REMARK    1  A    between atoms: C5_5  and  C6_6 
REMARK    2  A    between atoms: C6_6  and  C7_7 
REMARK    3  A    between atoms: C7_7  and  N1_8 
REMARK    4  A    between atoms: N2_10  and  C9_11 
REMARK    5  A    between atoms: C9_11  and  C10_12 
REMARK    6  A    between atoms: C10_12  and  C11_13 
REMARK    7  A    between atoms: C11_13  and  C12_14 
REMARK    8  A    between atoms: C12_14  and  C13_15 
REMARK    9  A    between atoms: C13_15  and  C14_16 
REMARK   10  A    between atoms: C17_19  and  O1_20 
ROOT
HETATM    1  C9  UNL     1      19.734   1.430  51.723  1.00  0.00     0.128 C 
ENDROOT
BRANCH   1   2
HETATM    2  N2  UNL     1      20.847   2.202  51.337  1.00  0.00    -0.360 N 
HETATM    3  C3  UNL     1      21.693   2.428  50.230  1.00  0.00     0.011 A 
HETATM    4  C2  UNL     1      21.574   1.820  49.078  1.00  0.00    -0.006 C 
HETATM    5  C4  UNL     1      22.724   3.458  50.494  1.00  0.00     0.092 A 
HETATM    6  C1  UNL     1      22.555   2.243  48.056  1.00  0.00     0.038 C 
HETATM    7  C5  UNL     1      22.351   3.822  51.906  1.00  0.00    -0.057 A 
HETATM    8  C8  UNL     1      21.325   3.114  52.330  1.00  0.00     0.094 A 
BRANCH   7   9
HETATM    9  C6  UNL     1      23.213   4.872  52.442  1.00  0.00     0.065 C 
BRANCH   9  10
HETATM   10  C7  UNL     1      23.899   5.688  51.379  1.00  0.00     0.271 C 
BRANCH  10  11
HETATM   11  N1  UNL     1      24.383   6.924  51.933  1.00  0.00     0.078 N 
HETATM   12  H11 UNL     1      23.632   7.610  52.180  1.00  0.00     0.312 HD
HETATM   13  H12 UNL     1      25.080   7.338  51.264  1.00  0.00     0.312 HD
ENDBRANCH  10  11
ENDBRANCH   9  10
ENDBRANCH   7   9
ENDBRANCH   1   2
BRANCH   1  14
HETATM   14  C10 UNL     1      19.966   0.044  52.171  1.00  0.00     0.020 C 
BRANCH  14  15
HETATM   15  C11 UNL     1      20.035  -0.214  53.629  1.00  0.00     0.002 C 
BRANCH  15  16
HETATM   16  C12 UNL     1      21.464  -0.263  54.145  1.00  0.00     0.005 C 
BRANCH  16  17
HETATM   17  C13 UNL     1      22.475  -0.532  53.056  1.00  0.00     0.038 C 
BRANCH  17  18
HETATM   18  C14 UNL     1      23.841  -0.034  53.454  1.00  0.00    -0.058 A 
HETATM   19  C15 UNL     1      24.541  -0.762  54.376  1.00  0.00     0.010 A 
HETATM   20  C16 UNL     1      25.805  -0.306  54.750  1.00  0.00     0.037 A 
HETATM   21  C17 UNL     1      26.379   0.850  54.226  1.00  0.00     0.068 A 
HETATM   22  C19 UNL     1      25.640   1.550  53.302  1.00  0.00     0.037 A 
HETATM   23  C20 UNL     1      24.384   1.124  52.911  1.00  0.00     0.010 A 
BRANCH  21  24
HETATM   24  O1  UNL     1      27.660   1.243  54.655  1.00  0.00    -0.356 OA
HETATM   25  C18 UNL     1      28.691   0.271  54.457  1.00  0.00     0.210 C 
ENDBRANCH  21  24
ENDBRANCH  17  18
ENDBRANCH  16  17
ENDBRANCH  15  16
ENDBRANCH  14  15
ENDBRANCH   1  14
TORSDOF 10
ENDMDL
MODEL 4
REMARK VINA RESULT:      -7.0      4.169      6.590
REMARK  10 active torsions:
REMARK  status: ('A' for Active; 'I' for Inactive)
REMARK    1  A    between atoms: C5_5  and  C6_6 
REMARK    2  A    between atoms: C6_6  and  C7_7 
REMARK    3  A    between atoms: C7_7  and  N1_8 
REMARK    4  A    between atoms: N2_10  and  C9_11 
REMARK    5  A    between atoms: C9_11  and  C10_12 
REMARK    6  A    between atoms: C10_12  and  C11_13 
REMARK    7  A    between atoms: C11_13  and  C12_14 
REMARK    8  A    between atoms: C12_14  and  C13_15 
REMARK    9  A    between atoms: C13_15  and  C14_16 
REMARK   10  A    between atoms: C17_19  and  O1_20 
ROOT
HETATM    1  C9  UNL     1      22.122   1.029  50.909  1.00  0.00     0.128 C 
ENDROOT
BRANCH   1   2
HETATM    2  N2  UNL     1      21.361   0.334  51.869  1.00  0.00    -0.360 N 
HETATM    3  C3  UNL     1      21.504  -0.348  53.096  1.00  0.00     0.011 A 
HETATM    4  C2  UNL     1      22.641  -0.498  53.726  1.00  0.00    -0.006 C 
HETATM    5  C4  UNL     1      20.218  -0.858  53.624  1.00  0.00     0.092 A 
HETATM    6  C1  UNL     1      22.540  -1.220  55.011  1.00  0.00     0.038 C 
HETATM    7  C5  UNL     1      19.295  -0.361  52.545  1.00  0.00    -0.057 A 
HETATM    8  C8  UNL     1      19.955   0.282  51.605  1.00  0.00     0.094 A 
BRANCH   7   9
HETATM    9  C6  UNL     1      17.902  -0.708  52.818  1.00  0.00     0.065 C 
BRANCH   9  10
HETATM   10  C7  UNL     1      17.738  -2.039  53.503  1.00  0.00     0.271 C 
BRANCH  10  11
HETATM   11  N1  UNL     1      16.467  -2.622  53.164  1.00  0.00     0.078 N 
HETATM   12  H11 UNL     1      16.148  -3.372  53.820  1.00  0.00     0.312 HD
HETATM   13  H12 UNL     1      16.515  -2.968  52.174  1.00  0.00     0.312 HD
ENDBRANCH  10  11
ENDBRANCH   9  10
ENDBRANCH   7   9
ENDBRANCH   1   2
BRANCH   1  14
HETATM   14  C10 UNL     1      22.421   2.453  51.150  1.00  0.00     0.020 C 
BRANCH  14  15
HETATM   15  C11 UNL     1      23.325   2.793  52.275  1.00  0.00     0.002 C 
BRANCH  15  16
HETATM   16  C12 UNL     1      24.595   3.489  51.811  1.00  0.00     0.005 C 
BRANCH  16  17
HETATM   17  C13 UNL     1      25.485   2.598  50.979  1.00  0.00     0.038 C 
BRANCH  17  18
HETATM   18  C14 UNL     1      26.312   1.692  51.855  1.00  0.00    -0.058 A 
HETATM   19  C15 UNL     1      27.347   2.252  52.552  1.00  0.00     0.010 A 
HETATM   20  C16 UNL     1      28.117   1.418  53.364  1.00  0.00     0.037 A 
HETATM   21  C17 UNL     1      27.876   0.053  53.494  1.00  0.00     0.068 A 
HETATM   22  C19 UNL     1      26.825  -0.466  52.775  1.00  0.00     0.037 A 
HETATM   23  C20 UNL     1      26.044   0.333  51.961  1.00  0.00     0.010 A 
BRANCH  21  24
HETATM   24  O1  UNL     1      28.699  -0.719  54.334  1.00  0.00    -0.356 OA
HETATM   25  C18 UNL     1      29.913  -1.183  53.734  1.00  0.00     0.210 C 
ENDBRANCH  21  24
ENDBRANCH  17  18
ENDBRANCH  16  17
ENDBRANCH  15  16
ENDBRANCH  14  15
ENDBRANCH   1  14
TORSDOF 10
ENDMDL
MODEL 5
REMARK VINA RESULT:      -6.9      3.782      6.054
REMARK  10 active torsions:
REMARK  status: ('A' for Active; 'I' for Inactive)
REMARK    1  A    between atoms: C5_5  and  C6_6 
REMARK    2  A    between atoms: C6_6  and  C7_7 
REMARK    3  A    between atoms: C7_7  and  N1_8 
REMARK    4  A    between atoms: N2_10  and  C9_11 
REMARK    5  A    between atoms: C9_11  and  C10_12 
REMARK    6  A    between atoms: C10_12  and  C11_13 
REMARK    7  A    between atoms: C11_13  and  C12_14 
REMARK    8  A    between atoms: C12_14  and  C13_15 
REMARK    9  A    between atoms: C13_15  and  C14_16 
REMARK   10  A    between atoms: C17_19  and  O1_20 
ROOT
HETATM    1  C9  UNL     1      23.451  -0.967  53.488  1.00  0.00     0.128 C 
ENDROOT
BRANCH   1   2
HETATM    2  N2  UNL     1      24.484  -0.028  53.298  1.00  0.00    -0.360 N 
HETATM    3  C3  UNL     1      24.682   1.350  53.065  1.00  0.00     0.011 A 
HETATM    4  C2  UNL     1      23.716   2.224  52.958  1.00  0.00    -0.006 C 
HETATM    5  C4  UNL     1      26.114   1.719  52.983  1.00  0.00     0.092 A 
HETATM    6  C1  UNL     1      24.167   3.616  52.747  1.00  0.00     0.038 C 
HETATM    7  C5  UNL     1      26.730   0.367  53.223  1.00  0.00    -0.057 A 
HETATM    8  C8  UNL     1      25.809  -0.559  53.388  1.00  0.00     0.094 A 
BRANCH   7   9
HETATM    9  C6  UNL     1      28.190   0.427  53.222  1.00  0.00     0.065 C 
BRANCH   9  10
HETATM   10  C7  UNL     1      28.780   0.713  54.578  1.00  0.00     0.271 C 
BRANCH  10  11
HETATM   11  N1  UNL     1      29.417   2.003  54.582  1.00  0.00     0.078 N 
HETATM   12  H11 UNL     1      28.903   2.736  55.124  1.00  0.00     0.312 HD
HETATM   13  H12 UNL     1      29.577   2.298  53.587  1.00  0.00     0.312 HD
ENDBRANCH  10  11
ENDBRANCH   9  10
ENDBRANCH   7   9
ENDBRANCH   1   2
BRANCH   1  14
HETATM   14  C10 UNL     1      22.630  -0.866  54.709  1.00  0.00     0.020 C 
BRANCH  14  15
HETATM   15  C11 UNL     1      21.291  -0.241  54.599  1.00  0.00     0.002 C 
BRANCH  15  16
HETATM   16  C12 UNL     1      20.344  -1.044  53.721  1.00  0.00     0.005 C 
BRANCH  16  17
HETATM   17  C13 UNL     1      19.371  -0.178  52.957  1.00  0.00     0.038 C 
BRANCH  17  18
HETATM   18  C14 UNL     1      20.096   0.731  51.998  1.00  0.00    -0.058 A 
HETATM   19  C15 UNL     1      19.879   2.077  52.107  1.00  0.00     0.010 A 
HETATM   20  C16 UNL     1      20.546   2.923  51.221  1.00  0.00     0.037 A 
HETATM   21  C17 UNL     1      21.418   2.458  50.241  1.00  0.00     0.068 A 
HETATM   22  C19 UNL     1      21.607   1.097  50.168  1.00  0.00     0.037 A 
HETATM   23  C20 UNL     1      20.960   0.233  51.031  1.00  0.00     0.010 A 
BRANCH  21  24
HETATM   24  O1  UNL     1      22.053   3.377  49.385  1.00  0.00    -0.356 OA
HETATM   25  C18 UNL     1      23.417   3.073  49.073  1.00  0.00     0.210 C 
ENDBRANCH  21  24
ENDBRANCH  17  18
ENDBRANCH  16  17
ENDBRANCH  15  16
ENDBRANCH  14  15
ENDBRANCH   1  14
TORSDOF 10
ENDMDL
MODEL 6
REMARK VINA RESULT:      -6.9      1.314      1.741
REMARK  10 active torsions:
REMARK  status: ('A' for Active; 'I' for Inactive)
REMARK    1  A    between atoms: C5_5  and  C6_6 
REMARK    2  A    between atoms: C6_6  and  C7_7 
REMARK    3  A    between atoms: C7_7  and  N1_8 
REMARK    4  A    between atoms: N2_10  and  C9_11 
REMARK    5  A    between atoms: C9_11  and  C10_12 
REMARK    6  A    between atoms: C10_12  and  C11_13 
REMARK    7  A    between atoms: C11_13  and  C12_14 
REMARK    8  A    between atoms: C12_14  and  C13_15 
REMARK    9  A    between atoms: C13_15  and  C14_16 
REMARK   10  A    between atoms: C17_19  and  O1_20 
ROOT
HETATM    1  C9  UNL     1      24.215   2.659  51.686  1.00  0.00     0.128 C 
ENDROOT
BRANCH   1   2
HETATM    2  N2  UNL     1      24.623   1.450  52.283  1.00  0.00    -0.360 N 
HETATM    3  C3  UNL     1      24.109   0.370  53.031  1.00  0.00     0.011 A 
HETATM    4  C2  UNL     1      22.859   0.259  53.399  1.00  0.00    -0.006 C 
HETATM    5  C4  UNL     1      25.131  -0.657  53.337  1.00  0.00     0.092 A 
HETATM    6  C1  UNL     1      22.546  -0.976  54.148  1.00  0.00     0.038 C 
HETATM    7  C5  UNL     1      26.315  -0.039  52.644  1.00  0.00    -0.057 A 
HETATM    8  C8  UNL     1      25.998   1.110  52.083  1.00  0.00     0.094 A 
BRANCH   7   9
HETATM    9  C6  UNL     1      27.510  -0.871  52.760  1.00  0.00     0.065 C 
BRANCH   9  10
HETATM   10  C7  UNL     1      27.233  -2.343  52.607  1.00  0.00     0.271 C 
BRANCH  10  11
HETATM   11  N1  UNL     1      28.365  -3.112  53.051  1.00  0.00     0.078 N 
HETATM   12  H11 UNL     1      28.217  -4.148  53.032  1.00  0.00     0.312 HD
HETATM   13  H12 UNL     1      28.639  -2.778  54.008  1.00  0.00     0.312 HD
ENDBRANCH  10  11
ENDBRANCH   9  10
ENDBRANCH   7   9
ENDBRANCH   1   2
BRANCH   1  14
HETATM   14  C10 UNL     1      24.119   2.717  50.216  1.00  0.00     0.020 C 
BRANCH  14  15
HETATM   15  C11 UNL     1      24.186   4.047  49.565  1.00  0.00     0.002 C 
BRANCH  15  16
HETATM   16  C12 UNL     1      25.562   4.684  49.683  1.00  0.00     0.005 C 
BRANCH  16  17
HETATM   17  C13 UNL     1      25.726   5.898  48.801  1.00  0.00     0.038 C 
BRANCH  17  18
HETATM   18  C14 UNL     1      27.183   6.171  48.525  1.00  0.00    -0.058 A 
HETATM   19  C15 UNL     1      28.027   5.098  48.441  1.00  0.00     0.010 A 
HETATM   20  C16 UNL     1      29.376   5.344  48.188  1.00  0.00     0.037 A 
HETATM   21  C17 UNL     1      29.894   6.625  48.018  1.00  0.00     0.068 A 
HETATM   22  C19 UNL     1      29.010   7.674  48.110  1.00  0.00     0.037 A 
HETATM   23  C20 UNL     1      27.666   7.463  48.361  1.00  0.00     0.010 A 
BRANCH  21  24
HETATM   24  O1  UNL     1      31.269   6.789  47.765  1.00  0.00    -0.356 OA
HETATM   25  C18 UNL     1      31.595   7.210  46.436  1.00  0.00     0.210 C 
ENDBRANCH  21  24
ENDBRANCH  17  18
ENDBRANCH  16  17
ENDBRANCH  15  16
ENDBRANCH  14  15
ENDBRANCH   1  14
TORSDOF 10
ENDMDL
MODEL 7
REMARK VINA RESULT:      -6.8      3.369      5.693
REMARK  10 active torsions:
REMARK  status: ('A' for Active; 'I' for Inactive)
REMARK    1  A    between atoms: C5_5  and  C6_6 
REMARK    2  A    between atoms: C6_6  and  C7_7 
REMARK    3  A    between atoms: C7_7  and  N1_8 
REMARK    4  A    between atoms: N2_10  and  C9_11 
REMARK    5  A    between atoms: C9_11  and  C10_12 
REMARK    6  A    between atoms: C10_12  and  C11_13 
REMARK    7  A    between atoms: C11_13  and  C12_14 
REMARK    8  A    between atoms: C12_14  and  C13_15 
REMARK    9  A    between atoms: C13_15  and  C14_16 
REMARK   10  A    between atoms: C17_19  and  O1_20 
ROOT
HETATM    1  C9  UNL     1      26.517   2.802  51.669  1.00  0.00     0.128 C 
ENDROOT
BRANCH   1   2
HETATM    2  N2  UNL     1      26.544   1.601  52.404  1.00  0.00    -0.360 N 
HETATM    3  C3  UNL     1      25.680   0.604  52.906  1.00  0.00     0.011 A 
HETATM    4  C2  UNL     1      24.382   0.605  52.743  1.00  0.00    -0.006 C 
HETATM    5  C4  UNL     1      26.401  -0.477  53.617  1.00  0.00     0.092 A 
HETATM    6  C1  UNL     1      23.689  -0.561  53.330  1.00  0.00     0.038 C 
HETATM    7  C5  UNL     1      27.812   0.014  53.445  1.00  0.00    -0.057 A 
HETATM    8  C8  UNL     1      27.849   1.151  52.780  1.00  0.00     0.094 A 
BRANCH   7   9
HETATM    9  C6  UNL     1      28.783  -0.896  54.048  1.00  0.00     0.065 C 
BRANCH   9  10
HETATM   10  C7  UNL     1      29.385  -1.868  53.067  1.00  0.00     0.271 C 
BRANCH  10  11
HETATM   11  N1  UNL     1      28.660  -3.110  53.088  1.00  0.00     0.078 N 
HETATM   12  H11 UNL     1      27.715  -3.051  53.534  1.00  0.00     0.312 HD
HETATM   13  H12 UNL     1      29.261  -3.837  53.550  1.00  0.00     0.312 HD
ENDBRANCH  10  11
ENDBRANCH   9  10
ENDBRANCH   7   9
ENDBRANCH   1   2
BRANCH   1  14
HETATM   14  C10 UNL     1      26.338   2.725  50.207  1.00  0.00     0.020 C 
BRANCH  14  15
HETATM   15  C11 UNL     1      25.862   3.936  49.499  1.00  0.00     0.002 C 
BRANCH  15  16
HETATM   16  C12 UNL     1      24.350   4.089  49.558  1.00  0.00     0.005 C 
BRANCH  16  17
HETATM   17  C13 UNL     1      23.614   2.909  48.970  1.00  0.00     0.038 C 
BRANCH  17  18
HETATM   18  C14 UNL     1      22.599   2.368  49.943  1.00  0.00    -0.058 A 
HETATM   19  C15 UNL     1      22.364   3.084  51.084  1.00  0.00     0.010 A 
HETATM   20  C16 UNL     1      21.427   2.587  51.989  1.00  0.00     0.037 A 
HETATM   21  C17 UNL     1      20.726   1.402  51.780  1.00  0.00     0.068 A 
HETATM   22  C19 UNL     1      20.993   0.715  50.619  1.00  0.00     0.037 A 
HETATM   23  C20 UNL     1      21.917   1.181  49.702  1.00  0.00     0.010 A 
BRANCH  21  24
HETATM   24  O1  UNL     1      19.795   0.968  52.742  1.00  0.00    -0.356 OA
HETATM   25  C18 UNL     1      18.975  -0.134  52.339  1.00  0.00     0.210 C 
ENDBRANCH  21  24
ENDBRANCH  17  18
ENDBRANCH  16  17
ENDBRANCH  15  16
ENDBRANCH  14  15
ENDBRANCH   1  14
TORSDOF 10
ENDMDL
MODEL 8
REMARK VINA RESULT:      -6.8      3.308      7.632
REMARK  10 active torsions:
REMARK  status: ('A' for Active; 'I' for Inactive)
REMARK    1  A    between atoms: C5_5  and  C6_6 
REMARK    2  A    between atoms: C6_6  and  C7_7 
REMARK    3  A    between atoms: C7_7  and  N1_8 
REMARK    4  A    between atoms: N2_10  and  C9_11 
REMARK    5  A    between atoms: C9_11  and  C10_12 
REMARK    6  A    between atoms: C10_12  and  C11_13 
REMARK    7  A    between atoms: C11_13  and  C12_14 
REMARK    8  A    between atoms: C12_14  and  C13_15 
REMARK    9  A    between atoms: C13_15  and  C14_16 
REMARK   10  A    between atoms: C17_19  and  O1_20 
ROOT
HETATM    1  C9  UNL     1      25.411   3.500  50.067  1.00  0.00     0.128 C 
ENDROOT
BRANCH   1   2
HETATM    2  N2  UNL     1      25.948   4.730  49.639  1.00  0.00    -0.360 N 
HETATM    3  C3  UNL     1      25.704   6.118  49.715  1.00  0.00     0.011 A 
HETATM    4  C2  UNL     1      24.694   6.653  50.351  1.00  0.00    -0.006 C 
HETATM    5  C4  UNL     1      26.736   6.922  49.020  1.00  0.00     0.092 A 
HETATM    6  C1  UNL     1      24.663   8.131  50.320  1.00  0.00     0.038 C 
HETATM    7  C5  UNL     1      27.633   5.812  48.544  1.00  0.00    -0.057 A 
HETATM    8  C8  UNL     1      27.168   4.632  48.898  1.00  0.00     0.094 A 
BRANCH   7   9
HETATM    9  C6  UNL     1      28.793   6.324  47.818  1.00  0.00     0.065 C 
BRANCH   9  10
HETATM   10  C7  UNL     1      29.337   7.608  48.386  1.00  0.00     0.271 C 
BRANCH  10  11
HETATM   11  N1  UNL     1      30.496   7.344  49.196  1.00  0.00     0.078 N 
HETATM   12  H11 UNL     1      30.467   6.430  49.705  1.00  0.00     0.312 HD
HETATM   13  H12 UNL     1      30.631   8.151  49.856  1.00  0.00     0.312 HD
ENDBRANCH  10  11
ENDBRANCH   9  10
ENDBRANCH   7   9
ENDBRANCH   1   2
BRANCH   1  14
HETATM   14  C10 UNL     1      24.149   3.038  49.459  1.00  0.00     0.020 C 
BRANCH  14  15
HETATM   15  C11 UNL     1      22.979   2.842  50.348  1.00  0.00     0.002 C 
BRANCH  15  16
HETATM   16  C12 UNL     1      23.361   2.826  51.820  1.00  0.00     0.005 C 
BRANCH  16  17
HETATM   17  C13 UNL     1      23.235   1.457  52.446  1.00  0.00     0.038 C 
BRANCH  17  18
HETATM   18  C14 UNL     1      24.534   1.035  53.084  1.00  0.00    -0.058 A 
HETATM   19  C15 UNL     1      24.759  -0.304  53.245  1.00  0.00     0.010 A 
HETATM   20  C16 UNL     1      25.958  -0.701  53.837  1.00  0.00     0.037 A 
HETATM   21  C17 UNL     1      26.928   0.202  54.264  1.00  0.00     0.068 A 
HETATM   22  C19 UNL     1      26.660   1.539  54.081  1.00  0.00     0.037 A 
HETATM   23  C20 UNL     1      25.480   1.964  53.498  1.00  0.00     0.010 A 
BRANCH  21  24
HETATM   24  O1  UNL     1      28.112  -0.278  54.851  1.00  0.00    -0.356 OA
HETATM   25  C18 UNL     1      29.098  -0.754  53.928  1.00  0.00     0.210 C 
ENDBRANCH  21  24
ENDBRANCH  17  18
ENDBRANCH  16  17
ENDBRANCH  15  16
ENDBRANCH  14  15
ENDBRANCH   1  14
TORSDOF 10
ENDMDL
MODEL 9
REMARK VINA RESULT:      -6.6      1.926      3.314
REMARK  10 active torsions:
REMARK  status: ('A' for Active; 'I' for Inactive)
REMARK    1  A    between atoms: C5_5  and  C6_6 
REMARK    2  A    between atoms: C6_6  and  C7_7 
REMARK    3  A    between atoms: C7_7  and  N1_8 
REMARK    4  A    between atoms: N2_10  and  C9_11 
REMARK    5  A    between atoms: C9_11  and  C10_12 
REMARK    6  A    between atoms: C10_12  and  C11_13 
REMARK    7  A    between atoms: C11_13  and  C12_14 
REMARK    8  A    between atoms: C12_14  and  C13_15 
REMARK    9  A    between atoms: C13_15  and  C14_16 
REMARK   10  A    between atoms: C17_19  and  O1_20 
ROOT
HETATM    1  C9  UNL     1      24.078   3.396  52.210  1.00  0.00     0.128 C 
ENDROOT
BRANCH   1   2
HETATM    2  N2  UNL     1      24.169   2.079  52.702  1.00  0.00    -0.360 N 
HETATM    3  C3  UNL     1      25.067   1.217  53.367  1.00  0.00     0.011 A 
HETATM    4  C2  UNL     1      26.271   1.560  53.745  1.00  0.00    -0.006 C 
HETATM    5  C4  UNL     1      24.492  -0.123  53.628  1.00  0.00     0.092 A 
HETATM    6  C1  UNL     1      27.018   0.499  54.454  1.00  0.00     0.038 C 
HETATM    7  C5  UNL     1      23.121   0.080  53.042  1.00  0.00    -0.057 A 
HETATM    8  C8  UNL     1      22.984   1.292  52.545  1.00  0.00     0.094 A 
BRANCH   7   9
HETATM    9  C6  UNL     1      22.289  -1.112  53.180  1.00  0.00     0.065 C 
BRANCH   9  10
HETATM   10  C7  UNL     1      21.718  -1.289  54.563  1.00  0.00     0.271 C 
BRANCH  10  11
HETATM   11  N1  UNL     1      20.768  -0.247  54.848  1.00  0.00     0.078 N 
HETATM   12  H11 UNL     1      20.459  -0.207  55.847  1.00  0.00     0.312 HD
HETATM   13  H12 UNL     1      19.954  -0.353  54.194  1.00  0.00     0.312 HD
ENDBRANCH  10  11
ENDBRANCH   9  10
ENDBRANCH   7   9
ENDBRANCH   1   2
BRANCH   1  14
HETATM   14  C10 UNL     1      23.891   3.589  50.760  1.00  0.00     0.020 C 
BRANCH  14  15
HETATM   15  C11 UNL     1      24.870   2.960  49.842  1.00  0.00     0.002 C 
BRANCH  15  16
HETATM   16  C12 UNL     1      26.131   3.794  49.674  1.00  0.00     0.005 C 
BRANCH  16  17
HETATM   17  C13 UNL     1      25.850   5.195  49.186  1.00  0.00     0.038 C 
BRANCH  17  18
HETATM   18  C14 UNL     1      27.080   5.806  48.565  1.00  0.00    -0.058 A 
HETATM   19  C15 UNL     1      26.966   7.056  48.023  1.00  0.00     0.010 A 
HETATM   20  C16 UNL     1      28.101   7.626  47.445  1.00  0.00     0.037 A 
HETATM   21  C17 UNL     1      29.334   6.980  47.400  1.00  0.00     0.068 A 
HETATM   22  C19 UNL     1      29.402   5.725  47.958  1.00  0.00     0.037 A 
HETATM   23  C20 UNL     1      28.295   5.133  48.537  1.00  0.00     0.010 A 
BRANCH  21  24
HETATM   24  O1  UNL     1      30.431   7.624  46.799  1.00  0.00    -0.356 OA
HETATM   25  C18 UNL     1      31.704   7.327  47.385  1.00  0.00     0.210 C 
ENDBRANCH  21  24
ENDBRANCH  17  18
ENDBRANCH  16  17
ENDBRANCH  15  16
ENDBRANCH  14  15
ENDBRANCH   1  14
TORSDOF 10
ENDMDL
