MODEL 1
REMARK VINA RESULT:      -7.4      0.000      0.000
REMARK  9 active torsions:
REMARK  status: ('A' for Active; 'I' for Inactive)
REMARK    1  A    between atoms: N1_2  and  C2_3 
REMARK    2  A    between atoms: C2_3  and  C3_4 
REMARK    3  A    between atoms: C3_4  and  C4_5 
REMARK    4  A    between atoms: C3_4  and  C11_14 
REMARK    5  A    between atoms: C4_5  and  C5_6 
REMARK    6  A    between atoms: C5_6  and  C6_8 
REMARK    7  A    between atoms: C7_9  and  C8_10 
REMARK    8  A    between atoms: C8_10  and  N2_11 
REMARK    9  A    between atoms: C16_20  and  C17_21 
ROOT
HETATM    1  C11 UNL     1      22.808   0.947  52.284  1.00  0.00     0.111 C 
HETATM    2  C12 UNL     1      23.361  -0.212  53.120  1.00  0.00     0.174 C 
HETATM    3  N3  UNL     1      22.387  -0.944  53.864  1.00  0.00    -0.294 NA
HETATM    4  C13 UNL     1      21.143  -0.703  53.939  1.00  0.00     0.028 C 
HETATM    5  C14 UNL     1      19.974  -1.577  53.987  1.00  0.00     0.091 C 
HETATM    6  C15 UNL     1      18.889  -1.125  53.061  1.00  0.00    -0.055 C 
HETATM    7  C16 UNL     1      17.947  -2.062  53.234  1.00  0.00     0.007 C 
HETATM    8  C19 UNL     1      18.394  -0.131  52.071  1.00  0.00     0.184 C 
HETATM    9  N4  UNL     1      19.383   0.369  51.165  1.00  0.00    -0.281 NA
HETATM   10  C20 UNL     1      20.559   0.872  51.263  1.00  0.00     0.199 C 
HETATM   11  N5  UNL     1      21.388   0.911  52.416  1.00  0.00    -0.364 N 
HETATM   12  C21 UNL     1      21.047   0.826  53.875  1.00  0.00     0.178 C 
ENDROOT
BRANCH   1  13
HETATM   13  C3  UNL     1      23.404   2.252  52.664  1.00  0.00     0.045 C 
BRANCH  13  14
HETATM   14  C2  UNL     1      23.366   3.336  51.642  1.00  0.00     0.276 C 
BRANCH  14  15
HETATM   15  N1  UNL     1      22.926   4.617  52.061  1.00  0.00     0.079 N 
HETATM   16  C1  UNL     1      23.629   5.744  51.542  1.00  0.00     0.306 C 
HETATM   17  H4  UNL     1      21.914   4.713  51.928  1.00  0.00     0.315 HD
ENDBRANCH  14  15
ENDBRANCH  13  14
BRANCH  13  18
HETATM   18  C4  UNL     1      24.867   2.116  53.079  1.00  0.00     0.091 C 
BRANCH  18  19
HETATM   19  C5  UNL     1      25.812   2.246  51.965  1.00  0.00     0.149 C 
HETATM   20  O1  UNL     1      26.202   3.080  51.107  1.00  0.00    -0.293 OA
BRANCH  19  21
HETATM   21  C6  UNL     1      26.565   0.986  51.779  1.00  0.00     0.048 C 
HETATM   22  C7  UNL     1      26.950   0.372  52.902  1.00  0.00     0.007 C 
BRANCH  22  23
HETATM   23  C8  UNL     1      27.708  -0.890  52.974  1.00  0.00     0.299 C 
BRANCH  23  24
HETATM   24  N2  UNL     1      28.721  -0.833  54.010  1.00  0.00     0.083 N 
HETATM   25  C9  UNL     1      28.387   0.324  54.844  1.00  0.00     0.309 C 
HETATM   26  C10 UNL     1      30.039  -0.663  53.446  1.00  0.00     0.309 C 
ENDBRANCH  23  24
ENDBRANCH  22  23
ENDBRANCH  19  21
ENDBRANCH  18  19
ENDBRANCH  13  18
ENDBRANCH   1  13
BRANCH   7  27
HETATM   27  C17 UNL     1      17.549  -3.276  53.906  1.00  0.00     0.030 C 
HETATM   28  C18 UNL     1      16.731  -4.338  53.783  1.00  0.00     0.188 C 
HETATM   29  F1  UNL     1      16.243  -3.901  52.577  1.00  0.00    -0.219 F 
ENDBRANCH   7  27
TORSDOF 9
ENDMDL
MODEL 2
REMARK VINA RESULT:      -7.3      4.753      8.251
REMARK  9 active torsions:
REMARK  status: ('A' for Active; 'I' for Inactive)
REMARK    1  A    between atoms: N1_2  and  C2_3 
REMARK    2  A    between atoms: C2_3  and  C3_4 
REMARK    3  A    between atoms: C3_4  and  C4_5 
REMARK    4  A    between atoms: C3_4  and  C11_14 
REMARK    5  A    between atoms: C4_5  and  C5_6 
REMARK    6  A    between atoms: C5_6  and  C6_8 
REMARK    7  A    between atoms: C7_9  and  C8_10 
REMARK    8  A    between atoms: C8_10  and  N2_11 
REMARK    9  A    between atoms: C16_20  and  C17_21 
ROOT
HETATM    1  C11 UNL     1      24.702   3.220  51.718  1.00  0.00     0.111 C 
HETATM    2  C12 UNL     1      26.101   2.597  51.705  1.00  0.00     0.174 C 
HETATM    3  N3  UNL     1      26.926   2.978  50.604  1.00  0.00    -0.294 NA
HETATM    4  C13 UNL     1      26.604   3.725  49.630  1.00  0.00     0.028 C 
HETATM    5  C14 UNL     1      27.341   4.743  48.887  1.00  0.00     0.091 C 
HETATM    6  C15 UNL     1      26.538   5.989  48.682  1.00  0.00    -0.055 C 
HETATM    7  C16 UNL     1      27.393   6.784  48.025  1.00  0.00     0.007 C 
HETATM    8  C19 UNL     1      25.254   6.720  48.865  1.00  0.00     0.184 C 
HETATM    9  N4  UNL     1      24.604   6.500  50.122  1.00  0.00    -0.281 NA
HETATM   10  C20 UNL     1      24.264   5.481  50.822  1.00  0.00     0.199 C 
HETATM   11  N5  UNL     1      24.643   4.127  50.619  1.00  0.00    -0.364 N 
HETATM   12  C21 UNL     1      25.122   3.415  49.387  1.00  0.00     0.178 C 
ENDROOT
BRANCH   1  13
HETATM   13  C3  UNL     1      23.627   2.196  51.697  1.00  0.00     0.045 C 
BRANCH  13  14
HETATM   14  C2  UNL     1      22.277   2.643  51.252  1.00  0.00     0.276 C 
BRANCH  14  15
HETATM   15  N1  UNL     1      21.500   3.393  52.172  1.00  0.00     0.079 N 
HETATM   16  C1  UNL     1      20.185   3.761  51.759  1.00  0.00     0.306 C 
HETATM   17  H4  UNL     1      21.490   2.938  53.091  1.00  0.00     0.315 HD
ENDBRANCH  14  15
ENDBRANCH  13  14
BRANCH  13  18
HETATM   18  C4  UNL     1      23.427   1.546  53.063  1.00  0.00     0.091 C 
BRANCH  18  19
HETATM   19  C5  UNL     1      23.164   0.104  53.000  1.00  0.00     0.149 C 
HETATM   20  O1  UNL     1      22.280  -0.712  52.630  1.00  0.00    -0.293 OA
BRANCH  19  21
HETATM   21  C6  UNL     1      24.311  -0.654  53.546  1.00  0.00     0.048 C 
HETATM   22  C7  UNL     1      25.435  -0.601  52.824  1.00  0.00     0.007 C 
BRANCH  22  23
HETATM   23  C8  UNL     1      26.704  -1.270  53.161  1.00  0.00     0.299 C 
BRANCH  23  24
HETATM   24  N2  UNL     1      27.769  -0.304  53.352  1.00  0.00     0.083 N 
HETATM   25  C9  UNL     1      29.017  -1.071  53.373  1.00  0.00     0.309 C 
HETATM   26  C10 UNL     1      27.614   0.406  54.599  1.00  0.00     0.309 C 
ENDBRANCH  23  24
ENDBRANCH  22  23
ENDBRANCH  19  21
ENDBRANCH  18  19
ENDBRANCH  13  18
ENDBRANCH   1  13
BRANCH   7  27
HETATM   27  C17 UNL     1      28.709   6.945  47.453  1.00  0.00     0.030 C 
HETATM   28  C18 UNL     1      29.925   7.456  47.718  1.00  0.00     0.188 C 
HETATM   29  F1  UNL     1      29.540   7.895  48.960  1.00  0.00    -0.219 F 
ENDBRANCH   7  27
TORSDOF 9
ENDMDL
MODEL 3
REMARK VINA RESULT:      -7.3      4.595      8.971
REMARK  9 active torsions:
REMARK  status: ('A' for Active; 'I' for Inactive)
REMARK    1  A    between atoms: N1_2  and  C2_3 
REMARK    2  A    between atoms: C2_3  and  C3_4 
REMARK    3  A    between atoms: C3_4  and  C4_5 
REMARK    4  A    between atoms: C3_4  and  C11_14 
REMARK    5  A    between atoms: C4_5  and  C5_6 
REMARK    6  A    between atoms: C5_6  and  C6_8 
REMARK    7  A    between atoms: C7_9  and  C8_10 
REMARK    8  A    between atoms: C8_10  and  N2_11 
REMARK    9  A    between atoms: C16_20  and  C17_21 
ROOT
HETATM    1  C11 UNL     1      24.674   2.997  51.762  1.00  0.00     0.111 C 
HETATM    2  C12 UNL     1      26.082   2.392  51.746  1.00  0.00     0.174 C 
HETATM    3  N3  UNL     1      26.909   2.810  50.660  1.00  0.00    -0.294 NA
HETATM    4  C13 UNL     1      26.585   3.574  49.700  1.00  0.00     0.028 C 
HETATM    5  C14 UNL     1      27.313   4.618  48.986  1.00  0.00     0.091 C 
HETATM    6  C15 UNL     1      26.495   5.858  48.803  1.00  0.00    -0.055 C 
HETATM    7  C16 UNL     1      27.345   6.678  48.170  1.00  0.00     0.007 C 
HETATM    8  C19 UNL     1      25.201   6.567  48.993  1.00  0.00     0.184 C 
HETATM    9  N4  UNL     1      24.545   6.311  50.239  1.00  0.00    -0.281 NA
HETATM   10  C20 UNL     1      24.213   5.272  50.914  1.00  0.00     0.199 C 
HETATM   11  N5  UNL     1      24.611   3.928  50.683  1.00  0.00    -0.364 N 
HETATM   12  C21 UNL     1      25.109   3.250  49.439  1.00  0.00     0.178 C 
ENDROOT
BRANCH   1  13
HETATM   13  C3  UNL     1      23.613   1.960  51.709  1.00  0.00     0.045 C 
BRANCH  13  14
HETATM   14  C2  UNL     1      22.294   2.371  51.152  1.00  0.00     0.276 C 
BRANCH  14  15
HETATM   15  N1  UNL     1      21.341   2.910  52.053  1.00  0.00     0.079 N 
HETATM   16  C1  UNL     1      20.709   4.130  51.673  1.00  0.00     0.306 C 
HETATM   17  H4  UNL     1      20.652   2.198  52.318  1.00  0.00     0.315 HD
ENDBRANCH  14  15
ENDBRANCH  13  14
BRANCH  13  18
HETATM   18  C4  UNL     1      23.322   1.367  53.086  1.00  0.00     0.091 C 
BRANCH  18  19
HETATM   19  C5  UNL     1      23.825  -0.000  53.260  1.00  0.00     0.149 C 
HETATM   20  O1  UNL     1      24.874  -0.679  53.117  1.00  0.00    -0.293 OA
BRANCH  19  21
HETATM   21  C6  UNL     1      22.754  -0.881  53.776  1.00  0.00     0.048 C 
HETATM   22  C7  UNL     1      21.506  -0.511  53.474  1.00  0.00     0.007 C 
BRANCH  22  23
HETATM   23  C8  UNL     1      20.279  -1.224  53.874  1.00  0.00     0.299 C 
BRANCH  23  24
HETATM   24  N2  UNL     1      19.097  -0.553  53.369  1.00  0.00     0.083 N 
HETATM   25  C9  UNL     1      18.035  -1.561  53.342  1.00  0.00     0.309 C 
HETATM   26  C10 UNL     1      19.315  -0.039  52.037  1.00  0.00     0.309 C 
ENDBRANCH  23  24
ENDBRANCH  22  23
ENDBRANCH  19  21
ENDBRANCH  18  19
ENDBRANCH  13  18
ENDBRANCH   1  13
BRANCH   7  27
HETATM   27  C17 UNL     1      28.662   6.870  47.612  1.00  0.00     0.030 C 
HETATM   28  C18 UNL     1      29.838   7.479  47.852  1.00  0.00     0.188 C 
HETATM   29  F1  UNL     1      29.394   8.006  49.040  1.00  0.00    -0.219 F 
ENDBRANCH   7  27
TORSDOF 9
ENDMDL
MODEL 4
REMARK VINA RESULT:      -7.2      3.808      8.068
REMARK  9 active torsions:
REMARK  status: ('A' for Active; 'I' for Inactive)
REMARK    1  A    between atoms: N1_2  and  C2_3 
REMARK    2  A    between atoms: C2_3  and  C3_4 
REMARK    3  A    between atoms: C3_4  and  C4_5 
REMARK    4  A    between atoms: C3_4  and  C11_14 
REMARK    5  A    between atoms: C4_5  and  C5_6 
REMARK    6  A    between atoms: C5_6  and  C6_8 
REMARK    7  A    between atoms: C7_9  and  C8_10 
REMARK    8  A    between atoms: C8_10  and  N2_11 
REMARK    9  A    between atoms: C16_20  and  C17_21 
ROOT
HETATM    1  C11 UNL     1      26.230   1.695  53.493  1.00  0.00     0.111 C 
HETATM    2  C12 UNL     1      27.582   2.051  52.867  1.00  0.00     0.174 C 
HETATM    3  N3  UNL     1      27.512   2.671  51.583  1.00  0.00    -0.294 NA
HETATM    4  C13 UNL     1      26.467   2.905  50.901  1.00  0.00     0.028 C 
HETATM    5  C14 UNL     1      26.080   4.026  50.051  1.00  0.00     0.091 C 
HETATM    6  C15 UNL     1      24.679   4.481  50.316  1.00  0.00    -0.055 C 
HETATM    7  C16 UNL     1      24.542   5.514  49.473  1.00  0.00     0.007 C 
HETATM    8  C19 UNL     1      23.405   4.307  51.065  1.00  0.00     0.184 C 
HETATM    9  N4  UNL     1      23.554   3.944  52.442  1.00  0.00    -0.281 NA
HETATM   10  C20 UNL     1      24.203   3.054  53.099  1.00  0.00     0.199 C 
HETATM   11  N5  UNL     1      25.223   2.193  52.613  1.00  0.00    -0.364 N 
HETATM   12  C21 UNL     1      25.536   1.729  51.220  1.00  0.00     0.178 C 
ENDROOT
BRANCH   1  13
HETATM   13  C3  UNL     1      26.102   0.244  53.775  1.00  0.00     0.045 C 
BRANCH  13  14
HETATM   14  C2  UNL     1      27.020  -0.671  53.038  1.00  0.00     0.276 C 
BRANCH  14  15
HETATM   15  N1  UNL     1      28.008  -1.354  53.792  1.00  0.00     0.079 N 
HETATM   16  C1  UNL     1      29.364  -1.184  53.385  1.00  0.00     0.306 C 
HETATM   17  H4  UNL     1      27.891  -1.168  54.793  1.00  0.00     0.315 HD
ENDBRANCH  14  15
ENDBRANCH  13  14
BRANCH  13  18
HETATM   18  C4  UNL     1      24.690  -0.271  53.505  1.00  0.00     0.091 C 
BRANCH  18  19
HETATM   19  C5  UNL     1      24.052  -0.888  54.673  1.00  0.00     0.149 C 
HETATM   20  O1  UNL     1      24.337  -1.369  55.800  1.00  0.00    -0.293 OA
BRANCH  19  21
HETATM   21  C6  UNL     1      22.589  -0.979  54.473  1.00  0.00     0.048 C 
HETATM   22  C7  UNL     1      22.048  -0.015  53.721  1.00  0.00     0.007 C 
BRANCH  22  23
HETATM   23  C8  UNL     1      20.619   0.109  53.382  1.00  0.00     0.299 C 
BRANCH  23  24
HETATM   24  N2  UNL     1      20.429   0.961  52.225  1.00  0.00     0.083 N 
HETATM   25  C9  UNL     1      21.623   0.795  51.394  1.00  0.00     0.309 C 
HETATM   26  C10 UNL     1      20.294   2.346  52.611  1.00  0.00     0.309 C 
ENDBRANCH  23  24
ENDBRANCH  22  23
ENDBRANCH  19  21
ENDBRANCH  18  19
ENDBRANCH  13  18
ENDBRANCH   1  13
BRANCH   7  27
HETATM   27  C17 UNL     1      25.147   6.343  48.457  1.00  0.00     0.030 C 
HETATM   28  C18 UNL     1      26.075   7.302  48.284  1.00  0.00     0.188 C 
HETATM   29  F1  UNL     1      26.399   7.317  49.618  1.00  0.00    -0.219 F 
ENDBRANCH   7  27
TORSDOF 9
ENDMDL
MODEL 5
REMARK VINA RESULT:      -7.2      3.539      7.596
REMARK  9 active torsions:
REMARK  status: ('A' for Active; 'I' for Inactive)
REMARK    1  A    between atoms: N1_2  and  C2_3 
REMARK    2  A    between atoms: C2_3  and  C3_4 
REMARK    3  A    between atoms: C3_4  and  C4_5 
REMARK    4  A    between atoms: C3_4  and  C11_14 
REMARK    5  A    between atoms: C4_5  and  C5_6 
REMARK    6  A    between atoms: C5_6  and  C6_8 
REMARK    7  A    between atoms: C7_9  and  C8_10 
REMARK    8  A    between atoms: C8_10  and  N2_11 
REMARK    9  A    between atoms: C16_20  and  C17_21 
ROOT
HETATM    1  C11 UNL     1      25.131   1.067  51.831  1.00  0.00     0.111 C 
HETATM    2  C12 UNL     1      23.616   1.033  51.605  1.00  0.00     0.174 C 
HETATM    3  N3  UNL     1      23.036   2.269  51.188  1.00  0.00    -0.294 NA
HETATM    4  C13 UNL     1      23.630   3.381  51.038  1.00  0.00     0.028 C 
HETATM    5  C14 UNL     1      23.484   4.447  50.052  1.00  0.00     0.091 C 
HETATM    6  C15 UNL     1      24.804   4.921  49.529  1.00  0.00    -0.055 C 
HETATM    7  C16 UNL     1      24.447   5.854  48.635  1.00  0.00     0.007 C 
HETATM    8  C19 UNL     1      26.289   4.834  49.558  1.00  0.00     0.184 C 
HETATM    9  N4  UNL     1      26.817   3.512  49.710  1.00  0.00    -0.281 NA
HETATM   10  C20 UNL     1      26.623   2.522  50.502  1.00  0.00     0.199 C 
HETATM   11  N5  UNL     1      25.576   2.368  51.451  1.00  0.00    -0.364 N 
HETATM   12  C21 UNL     1      24.707   3.387  52.129  1.00  0.00     0.178 C 
ENDROOT
BRANCH   1  13
HETATM   13  C3  UNL     1      25.504   0.697  53.219  1.00  0.00     0.045 C 
BRANCH  13  14
HETATM   14  C2  UNL     1      26.955   0.721  53.557  1.00  0.00     0.276 C 
BRANCH  14  15
HETATM   15  N1  UNL     1      27.454   1.872  54.219  1.00  0.00     0.079 N 
HETATM   16  C1  UNL     1      28.643   2.457  53.692  1.00  0.00     0.306 C 
HETATM   17  H4  UNL     1      26.713   2.570  54.337  1.00  0.00     0.315 HD
ENDBRANCH  14  15
ENDBRANCH  13  14
BRANCH  13  18
HETATM   18  C4  UNL     1      25.008  -0.697  53.594  1.00  0.00     0.091 C 
BRANCH  18  19
HETATM   19  C5  UNL     1      24.828  -0.893  55.037  1.00  0.00     0.149 C 
HETATM   20  O1  UNL     1      25.477  -0.859  56.114  1.00  0.00    -0.293 OA
BRANCH  19  21
HETATM   21  C6  UNL     1      23.423  -1.245  55.339  1.00  0.00     0.048 C 
HETATM   22  C7  UNL     1      22.536  -0.951  54.383  1.00  0.00     0.007 C 
BRANCH  22  23
HETATM   23  C8  UNL     1      21.086  -1.205  54.451  1.00  0.00     0.299 C 
BRANCH  23  24
HETATM   24  N2  UNL     1      20.391  -0.563  53.351  1.00  0.00     0.083 N 
HETATM   25  C9  UNL     1      20.525   0.879  53.570  1.00  0.00     0.309 C 
HETATM   26  C10 UNL     1      18.993  -0.925  53.333  1.00  0.00     0.309 C 
ENDBRANCH  23  24
ENDBRANCH  22  23
ENDBRANCH  19  21
ENDBRANCH  18  19
ENDBRANCH  13  18
ENDBRANCH   1  13
BRANCH   7  27
HETATM   27  C17 UNL     1      23.374   6.568  47.986  1.00  0.00     0.030 C 
HETATM   28  C18 UNL     1      22.377   6.406  47.097  1.00  0.00     0.188 C 
HETATM   29  F1  UNL     1      22.683   5.082  46.900  1.00  0.00    -0.219 F 
ENDBRANCH   7  27
TORSDOF 9
ENDMDL
MODEL 6
REMARK VINA RESULT:      -7.2      3.949      7.265
REMARK  9 active torsions:
REMARK  status: ('A' for Active; 'I' for Inactive)
REMARK    1  A    between atoms: N1_2  and  C2_3 
REMARK    2  A    between atoms: C2_3  and  C3_4 
REMARK    3  A    between atoms: C3_4  and  C4_5 
REMARK    4  A    between atoms: C3_4  and  C11_14 
REMARK    5  A    between atoms: C4_5  and  C5_6 
REMARK    6  A    between atoms: C5_6  and  C6_8 
REMARK    7  A    between atoms: C7_9  and  C8_10 
REMARK    8  A    between atoms: C8_10  and  N2_11 
REMARK    9  A    between atoms: C16_20  and  C17_21 
ROOT
HETATM    1  C11 UNL     1      23.094   2.649  51.269  1.00  0.00     0.111 C 
HETATM    2  C12 UNL     1      24.266   3.003  50.348  1.00  0.00     0.174 C 
HETATM    3  N3  UNL     1      25.556   2.633  50.836  1.00  0.00    -0.294 NA
HETATM    4  C13 UNL     1      25.826   2.097  51.955  1.00  0.00     0.028 C 
HETATM    5  C14 UNL     1      26.790   1.074  52.346  1.00  0.00     0.091 C 
HETATM    6  C15 UNL     1      26.185   0.035  53.237  1.00  0.00    -0.055 C 
HETATM    7  C16 UNL     1      27.208  -0.805  53.445  1.00  0.00     0.007 C 
HETATM    8  C19 UNL     1      24.998  -0.469  53.980  1.00  0.00     0.184 C 
HETATM    9  N4  UNL     1      23.746  -0.309  53.306  1.00  0.00    -0.281 NA
HETATM   10  C20 UNL     1      23.125   0.649  52.721  1.00  0.00     0.199 C 
HETATM   11  N5  UNL     1      23.639   1.927  52.372  1.00  0.00    -0.364 N 
HETATM   12  C21 UNL     1      24.802   2.702  52.922  1.00  0.00     0.178 C 
ENDROOT
BRANCH   1  13
HETATM   13  C3  UNL     1      22.313   3.844  51.675  1.00  0.00     0.045 C 
BRANCH  13  14
HETATM   14  C2  UNL     1      20.961   3.604  52.253  1.00  0.00     0.276 C 
BRANCH  14  15
HETATM   15  N1  UNL     1      20.000   2.963  51.429  1.00  0.00     0.079 N 
HETATM   16  C1  UNL     1      19.517   1.695  51.865  1.00  0.00     0.306 C 
HETATM   17  H4  UNL     1      19.230   3.603  51.210  1.00  0.00     0.315 HD
ENDBRANCH  14  15
ENDBRANCH  13  14
BRANCH  13  18
HETATM   18  C4  UNL     1      22.107   4.815  50.515  1.00  0.00     0.091 C 
BRANCH  18  19
HETATM   19  C5  UNL     1      22.250   6.226  50.891  1.00  0.00     0.149 C 
HETATM   20  O1  UNL     1      21.562   7.265  51.063  1.00  0.00    -0.293 OA
BRANCH  19  21
HETATM   21  C6  UNL     1      23.669   6.545  51.164  1.00  0.00     0.048 C 
HETATM   22  C7  UNL     1      24.377   6.976  50.115  1.00  0.00     0.007 C 
BRANCH  22  23
HETATM   23  C8  UNL     1      25.801   7.353  50.137  1.00  0.00     0.299 C 
BRANCH  23  24
HETATM   24  N2  UNL     1      26.441   7.055  48.871  1.00  0.00     0.083 N 
HETATM   25  C9  UNL     1      26.656   5.607  48.852  1.00  0.00     0.309 C 
HETATM   26  C10 UNL     1      27.708   7.737  48.751  1.00  0.00     0.309 C 
ENDBRANCH  23  24
ENDBRANCH  22  23
ENDBRANCH  19  21
ENDBRANCH  18  19
ENDBRANCH  13  18
ENDBRANCH   1  13
BRANCH   7  27
HETATM   27  C17 UNL     1      28.592  -1.123  53.186  1.00  0.00     0.030 C 
HETATM   28  C18 UNL     1      29.843  -0.812  53.573  1.00  0.00     0.188 C 
HETATM   29  F1  UNL     1      29.397   0.098  54.499  1.00  0.00    -0.219 F 
ENDBRANCH   7  27
TORSDOF 9
ENDMDL
MODEL 7
REMARK VINA RESULT:      -7.1      3.663      6.830
REMARK  9 active torsions:
REMARK  status: ('A' for Active; 'I' for Inactive)
REMARK    1  A    between atoms: N1_2  and  C2_3 
REMARK    2  A    between atoms: C2_3  and  C3_4 
REMARK    3  A    between atoms: C3_4  and  C4_5 
REMARK    4  A    between atoms: C3_4  and  C11_14 
REMARK    5  A    between atoms: C4_5  and  C5_6 
REMARK    6  A    between atoms: C5_6  and  C6_8 
REMARK    7  A    between atoms: C7_9  and  C8_10 
REMARK    8  A    between atoms: C8_10  and  N2_11 
REMARK    9  A    between atoms: C16_20  and  C17_21 
ROOT
HETATM    1  C11 UNL     1      19.978   1.281  51.873  1.00  0.00     0.111 C 
HETATM    2  C12 UNL     1      20.209   2.510  52.758  1.00  0.00     0.174 C 
HETATM    3  N3  UNL     1      21.308   3.337  52.374  1.00  0.00    -0.294 NA
HETATM    4  C13 UNL     1      22.124   3.132  51.424  1.00  0.00     0.028 C 
HETATM    5  C14 UNL     1      22.765   4.031  50.469  1.00  0.00     0.091 C 
HETATM    6  C15 UNL     1      22.706   3.506  49.069  1.00  0.00    -0.055 C 
HETATM    7  C16 UNL     1      23.307   4.476  48.367  1.00  0.00     0.007 C 
HETATM    8  C19 UNL     1      22.301   2.423  48.132  1.00  0.00     0.184 C 
HETATM    9  N4  UNL     1      21.040   1.809  48.422  1.00  0.00    -0.281 NA
HETATM   10  C20 UNL     1      20.476   1.295  49.452  1.00  0.00     0.199 C 
HETATM   11  N5  UNL     1      20.916   1.361  50.802  1.00  0.00    -0.364 N 
HETATM   12  C21 UNL     1      22.280   1.608  51.379  1.00  0.00     0.178 C 
ENDROOT
BRANCH   1  13
HETATM   13  C3  UNL     1      20.061   0.011  52.637  1.00  0.00     0.045 C 
BRANCH  13  14
HETATM   14  C2  UNL     1      18.783  -0.716  52.879  1.00  0.00     0.276 C 
BRANCH  14  15
HETATM   15  N1  UNL     1      18.773  -1.703  53.898  1.00  0.00     0.079 N 
HETATM   16  C1  UNL     1      17.843  -2.774  53.752  1.00  0.00     0.306 C 
HETATM   17  H4  UNL     1      19.721  -2.050  54.072  1.00  0.00     0.315 HD
ENDBRANCH  14  15
ENDBRANCH  13  14
BRANCH  13  18
HETATM   18  C4  UNL     1      20.699   0.208  54.010  1.00  0.00     0.091 C 
BRANCH  18  19
HETATM   19  C5  UNL     1      21.670  -0.833  54.366  1.00  0.00     0.149 C 
HETATM   20  O1  UNL     1      21.743  -1.931  54.976  1.00  0.00    -0.293 OA
BRANCH  19  21
HETATM   21  C6  UNL     1      23.008  -0.493  53.835  1.00  0.00     0.048 C 
HETATM   22  C7  UNL     1      24.038  -0.780  54.638  1.00  0.00     0.007 C 
BRANCH  22  23
HETATM   23  C8  UNL     1      25.459  -0.536  54.331  1.00  0.00     0.299 C 
BRANCH  23  24
HETATM   24  N2  UNL     1      25.669  -0.397  52.903  1.00  0.00     0.083 N 
HETATM   25  C9  UNL     1      26.547  -1.501  52.510  1.00  0.00     0.309 C 
HETATM   26  C10 UNL     1      26.300   0.863  52.587  1.00  0.00     0.309 C 
ENDBRANCH  23  24
ENDBRANCH  22  23
ENDBRANCH  19  21
ENDBRANCH  18  19
ENDBRANCH  13  18
ENDBRANCH   1  13
BRANCH   7  27
HETATM   27  C17 UNL     1      23.962   5.763  48.384  1.00  0.00     0.030 C 
HETATM   28  C18 UNL     1      25.169   6.337  48.536  1.00  0.00     0.188 C 
HETATM   29  F1  UNL     1      25.793   5.126  48.712  1.00  0.00    -0.219 F 
ENDBRANCH   7  27
TORSDOF 9
ENDMDL
MODEL 8
REMARK VINA RESULT:      -7.0      3.805      7.133
REMARK  9 active torsions:
REMARK  status: ('A' for Active; 'I' for Inactive)
REMARK    1  A    between atoms: N1_2  and  C2_3 
REMARK    2  A    between atoms: C2_3  and  C3_4 
REMARK    3  A    between atoms: C3_4  and  C4_5 
REMARK    4  A    between atoms: C3_4  and  C11_14 
REMARK    5  A    between atoms: C4_5  and  C5_6 
REMARK    6  A    between atoms: C5_6  and  C6_8 
REMARK    7  A    between atoms: C7_9  and  C8_10 
REMARK    8  A    between atoms: C8_10  and  N2_11 
REMARK    9  A    between atoms: C16_20  and  C17_21 
ROOT
HETATM    1  C11 UNL     1      22.033   2.356  52.230  1.00  0.00     0.111 C 
HETATM    2  C12 UNL     1      23.197   2.758  53.142  1.00  0.00     0.174 C 
HETATM    3  N3  UNL     1      24.346   3.271  52.469  1.00  0.00    -0.294 NA
HETATM    4  C13 UNL     1      24.515   3.378  51.215  1.00  0.00     0.028 C 
HETATM    5  C14 UNL     1      25.156   4.400  50.394  1.00  0.00     0.091 C 
HETATM    6  C15 UNL     1      24.327   4.774  49.205  1.00  0.00    -0.055 C 
HETATM    7  C16 UNL     1      25.066   5.727  48.621  1.00  0.00     0.007 C 
HETATM    8  C19 UNL     1      23.094   4.567  48.398  1.00  0.00     0.184 C 
HETATM    9  N4  UNL     1      21.905   4.321  49.158  1.00  0.00    -0.281 NA
HETATM   10  C20 UNL     1      21.561   3.533  50.109  1.00  0.00     0.199 C 
HETATM   11  N5  UNL     1      22.408   2.712  50.900  1.00  0.00    -0.364 N 
HETATM   12  C21 UNL     1      23.780   2.167  50.629  1.00  0.00     0.178 C 
ENDROOT
BRANCH   1  13
HETATM   13  C3  UNL     1      21.669   0.924  52.377  1.00  0.00     0.045 C 
BRANCH  13  14
HETATM   14  C2  UNL     1      20.496   0.442  51.595  1.00  0.00     0.276 C 
BRANCH  14  15
HETATM   15  N1  UNL     1      19.204   0.743  52.098  1.00  0.00     0.079 N 
HETATM   16  C1  UNL     1      18.218  -0.283  52.002  1.00  0.00     0.306 C 
HETATM   17  H4  UNL     1      19.266   1.116  53.050  1.00  0.00     0.315 HD
ENDBRANCH  14  15
ENDBRANCH  13  14
BRANCH  13  18
HETATM   18  C4  UNL     1      21.387   0.550  53.830  1.00  0.00     0.091 C 
BRANCH  18  19
HETATM   19  C5  UNL     1      22.194  -0.574  54.319  1.00  0.00     0.149 C 
HETATM   20  O1  UNL     1      22.269  -1.372  55.288  1.00  0.00    -0.293 OA
BRANCH  19  21
HETATM   21  C6  UNL     1      23.281  -0.881  53.364  1.00  0.00     0.048 C 
HETATM   22  C7  UNL     1      24.519  -0.606  53.789  1.00  0.00     0.007 C 
BRANCH  22  23
HETATM   23  C8  UNL     1      25.758  -0.824  53.021  1.00  0.00     0.299 C 
BRANCH  23  24
HETATM   24  N2  UNL     1      26.881  -0.146  53.640  1.00  0.00     0.083 N 
HETATM   25  C9  UNL     1      26.460   0.182  55.003  1.00  0.00     0.309 C 
HETATM   26  C10 UNL     1      27.217   1.065  52.930  1.00  0.00     0.309 C 
ENDBRANCH  23  24
ENDBRANCH  22  23
ENDBRANCH  19  21
ENDBRANCH  18  19
ENDBRANCH  13  18
ENDBRANCH   1  13
BRANCH   7  27
HETATM   27  C17 UNL     1      26.274   6.516  48.648  1.00  0.00     0.030 C 
HETATM   28  C18 UNL     1      27.605   6.425  48.473  1.00  0.00     0.188 C 
HETATM   29  F1  UNL     1      27.540   5.083  48.191  1.00  0.00    -0.219 F 
ENDBRANCH   7  27
TORSDOF 9
ENDMDL
MODEL 9
REMARK VINA RESULT:      -7.0      4.505      5.976
REMARK  9 active torsions:
REMARK  status: ('A' for Active; 'I' for Inactive)
REMARK    1  A    between atoms: N1_2  and  C2_3 
REMARK    2  A    between atoms: C2_3  and  C3_4 
REMARK    3  A    between atoms: C3_4  and  C4_5 
REMARK    4  A    between atoms: C3_4  and  C11_14 
REMARK    5  A    between atoms: C4_5  and  C5_6 
REMARK    6  A    between atoms: C5_6  and  C6_8 
REMARK    7  A    between atoms: C7_9  and  C8_10 
REMARK    8  A    between atoms: C8_10  and  N2_11 
REMARK    9  A    between atoms: C16_20  and  C17_21 
ROOT
HETATM    1  C11 UNL     1      25.240   3.715  49.459  1.00  0.00     0.111 C 
HETATM    2  C12 UNL     1      26.439   3.080  50.170  1.00  0.00     0.174 C 
HETATM    3  N3  UNL     1      26.132   2.395  51.385  1.00  0.00    -0.294 NA
HETATM    4  C13 UNL     1      24.997   2.306  51.947  1.00  0.00     0.028 C 
HETATM    5  C14 UNL     1      24.337   1.216  52.659  1.00  0.00     0.091 C 
HETATM    6  C15 UNL     1      22.914   1.038  52.230  1.00  0.00    -0.055 C 
HETATM    7  C16 UNL     1      22.516  -0.009  52.966  1.00  0.00     0.007 C 
HETATM    8  C19 UNL     1      21.773   1.489  51.388  1.00  0.00     0.184 C 
HETATM    9  N4  UNL     1      22.124   1.915  50.067  1.00  0.00    -0.281 NA
HETATM   10  C20 UNL     1      22.981   2.717  49.550  1.00  0.00     0.199 C 
HETATM   11  N5  UNL     1      24.077   3.346  50.199  1.00  0.00    -0.364 N 
HETATM   12  C21 UNL     1      24.319   3.648  51.649  1.00  0.00     0.178 C 
ENDROOT
BRANCH   1  13
HETATM   13  C3  UNL     1      25.393   5.182  49.294  1.00  0.00     0.045 C 
BRANCH  13  14
HETATM   14  C2  UNL     1      24.278   5.907  48.621  1.00  0.00     0.276 C 
BRANCH  14  15
HETATM   15  N1  UNL     1      23.707   7.011  49.304  1.00  0.00     0.079 N 
HETATM   16  C1  UNL     1      23.860   7.044  50.721  1.00  0.00     0.306 C 
HETATM   17  H4  UNL     1      24.005   7.893  48.875  1.00  0.00     0.315 HD
ENDBRANCH  14  15
ENDBRANCH  13  14
BRANCH  13  18
HETATM   18  C4  UNL     1      26.657   5.543  48.518  1.00  0.00     0.091 C 
BRANCH  18  19
HETATM   19  C5  UNL     1      27.174   6.883  48.819  1.00  0.00     0.149 C 
HETATM   20  O1  UNL     1      26.810   7.981  49.313  1.00  0.00    -0.293 OA
BRANCH  19  21
HETATM   21  C6  UNL     1      28.594   6.990  48.415  1.00  0.00     0.048 C 
HETATM   22  C7  UNL     1      29.223   5.830  48.202  1.00  0.00     0.007 C 
BRANCH  22  23
HETATM   23  C8  UNL     1      30.631   5.680  47.794  1.00  0.00     0.299 C 
BRANCH  23  24
HETATM   24  N2  UNL     1      31.486   6.601  48.517  1.00  0.00     0.083 N 
HETATM   25  C9  UNL     1      32.622   6.882  47.637  1.00  0.00     0.309 C 
HETATM   26  C10 UNL     1      31.958   6.018  49.751  1.00  0.00     0.309 C 
ENDBRANCH  23  24
ENDBRANCH  22  23
ENDBRANCH  19  21
ENDBRANCH  18  19
ENDBRANCH  13  18
ENDBRANCH   1  13
BRANCH   7  27
HETATM   27  C17 UNL     1      22.861  -1.001  53.956  1.00  0.00     0.030 C 
HETATM   28  C18 UNL     1      22.562  -1.401  55.205  1.00  0.00     0.188 C 
HETATM   29  F1  UNL     1      21.623  -0.413  55.365  1.00  0.00    -0.219 F 
ENDBRANCH   7  27
TORSDOF 9
ENDMDL
