MODEL 1
REMARK VINA RESULT:     -10.4      0.000      0.000
REMARK  5 active torsions:
REMARK  status: ('A' for Active; 'I' for Inactive)
REMARK    1  A    between atoms: C2_4  and  C3_5 
REMARK       I    between atoms: C3_5  and  N2_7 
REMARK    2  A    between atoms: N2_7  and  C4_8 
REMARK    3  A    between atoms: C9_15  and  N5_16 
REMARK    4  A    between atoms: N5_16  and  C10_17 
REMARK    5  A    between atoms: C21_28  and  O3_29 
ROOT
HETATM    1  C4  UNL     1      21.899   1.641  51.633  1.00  0.00     0.042 C 
HETATM    2  C5  UNL     1      22.792   0.829  52.224  1.00  0.00     0.045 C 
HETATM    3  C6  UNL     1      22.694  -0.055  53.380  1.00  0.00     0.040 A 
HETATM    4  C7  UNL     1      21.592  -0.712  53.943  1.00  0.00     0.072 A 
HETATM    5  N3  UNL     1      21.849  -1.474  55.011  1.00  0.00    -0.241 NA
HETATM    6  C8  UNL     1      23.091  -1.594  55.502  1.00  0.00     0.235 A 
HETATM    7  N4  UNL     1      24.089  -0.943  54.919  1.00  0.00    -0.224 NA
HETATM    8  C9  UNL     1      23.974  -0.147  53.846  1.00  0.00     0.138 A 
HETATM    9  C18 UNL     1      20.150  -0.791  53.664  1.00  0.00     0.028 C 
HETATM   10  C19 UNL     1      19.440  -0.139  52.727  1.00  0.00    -0.021 C 
HETATM   11  C20 UNL     1      19.548   0.834  51.629  1.00  0.00     0.065 C 
HETATM   12  C21 UNL     1      20.469   1.982  51.883  1.00  0.00     0.171 C 
ENDROOT
BRANCH   1  13
HETATM   13  N2  UNL     1      22.543   2.280  50.528  1.00  0.00    -0.326 N 
HETATM   14  C3  UNL     1      23.711   2.957  50.976  1.00  0.00     0.247 C 
HETATM   15  O2  UNL     1      24.425   3.227  51.977  1.00  0.00    -0.271 OA
HETATM   16  H3  UNL     1      22.389   2.381  49.502  1.00  0.00     0.168 HD
BRANCH  14  17
HETATM   17  C2  UNL     1      24.651   3.737  50.134  1.00  0.00     0.203 C 
HETATM   18  N1  UNL     1      25.117   4.842  50.955  1.00  0.00    -0.321 N 
HETATM   19  C1  UNL     1      25.193   6.015  50.136  1.00  0.00     0.361 C 
HETATM   20  H1  UNL     1      25.405   5.001  51.963  1.00  0.00     0.165 HD
HETATM   21  O1  UNL     1      25.779   7.134  50.268  1.00  0.00    -0.238 OA
HETATM   22  O4  UNL     1      24.440   5.783  48.989  1.00  0.00    -0.301 OA
HETATM   23  C22 UNL     1      23.969   4.431  48.988  1.00  0.00     0.215 C 
ENDBRANCH  14  17
ENDBRANCH   1  13
BRANCH  12  24
HETATM   24  O3  UNL     1      20.141   2.990  50.954  1.00  0.00    -0.389 OA
HETATM   25  H21 UNL     1      19.850   3.824  51.400  1.00  0.00     0.210 HD
ENDBRANCH  12  24
BRANCH   8  26
HETATM   26  N5  UNL     1      25.103   0.525  53.306  1.00  0.00    -0.366 N 
HETATM   27  H6  UNL     1      25.366   1.409  52.856  1.00  0.00     0.161 HD
BRANCH  26  28
HETATM   28  C10 UNL     1      26.348  -0.211  53.399  1.00  0.00     0.109 C 
HETATM   29  C11 UNL     1      27.463   0.720  53.773  1.00  0.00    -0.002 C 
HETATM   30  C12 UNL     1      28.762   0.629  53.892  1.00  0.00    -0.002 C 
HETATM   31  C13 UNL     1      29.737  -0.440  53.711  1.00  0.00    -0.000 C 
HETATM   32  C14 UNL     1      29.710  -1.741  53.375  1.00  0.00    -0.000 C 
HETATM   33  C15 UNL     1      28.553  -2.595  53.048  1.00  0.00    -0.004 C 
HETATM   34  C16 UNL     1      27.323  -2.331  52.580  1.00  0.00    -0.024 C 
HETATM   35  C17 UNL     1      26.655  -1.056  52.208  1.00  0.00     0.056 C 
ENDBRANCH  26  28
ENDBRANCH   8  26
TORSDOF 5
ENDMDL
MODEL 2
REMARK VINA RESULT:     -10.1      1.734      2.539
REMARK  5 active torsions:
REMARK  status: ('A' for Active; 'I' for Inactive)
REMARK    1  A    between atoms: C2_4  and  C3_5 
REMARK       I    between atoms: C3_5  and  N2_7 
REMARK    2  A    between atoms: N2_7  and  C4_8 
REMARK    3  A    between atoms: C9_15  and  N5_16 
REMARK    4  A    between atoms: N5_16  and  C10_17 
REMARK    5  A    between atoms: C21_28  and  O3_29 
ROOT
HETATM    1  C4  UNL     1      23.305   4.357  51.986  1.00  0.00     0.042 C 
HETATM    2  C5  UNL     1      23.816   3.127  52.169  1.00  0.00     0.045 C 
HETATM    3  C6  UNL     1      23.186   1.834  52.414  1.00  0.00     0.040 A 
HETATM    4  C7  UNL     1      21.915   1.352  52.075  1.00  0.00     0.072 A 
HETATM    5  N3  UNL     1      21.649   0.094  52.441  1.00  0.00    -0.241 NA
HETATM    6  C8  UNL     1      22.556  -0.651  53.092  1.00  0.00     0.235 A 
HETATM    7  N4  UNL     1      23.741  -0.131  53.381  1.00  0.00    -0.224 NA
HETATM    8  C9  UNL     1      24.138   1.113  53.076  1.00  0.00     0.138 A 
HETATM    9  C18 UNL     1      20.727   1.887  51.391  1.00  0.00     0.028 C 
HETATM   10  C19 UNL     1      20.521   3.127  50.914  1.00  0.00    -0.021 C 
HETATM   11  C20 UNL     1      21.140   4.454  50.770  1.00  0.00     0.065 C 
HETATM   12  C21 UNL     1      21.926   4.923  51.949  1.00  0.00     0.171 C 
ENDROOT
BRANCH   1  13
HETATM   13  N2  UNL     1      24.393   5.263  51.787  1.00  0.00    -0.326 N 
HETATM   14  C3  UNL     1      24.713   5.336  50.403  1.00  0.00     0.247 C 
HETATM   15  O2  UNL     1      24.418   4.915  49.254  1.00  0.00    -0.271 OA
HETATM   16  H3  UNL     1      25.003   5.873  52.373  1.00  0.00     0.168 HD
BRANCH  14  17
HETATM   17  C2  UNL     1      25.780   6.165  49.791  1.00  0.00     0.203 C 
HETATM   18  N1  UNL     1      26.071   7.226  50.740  1.00  0.00    -0.321 N 
HETATM   19  C1  UNL     1      26.278   8.442  50.012  1.00  0.00     0.361 C 
HETATM   20  H1  UNL     1      26.165   7.332  51.791  1.00  0.00     0.165 HD
HETATM   21  O1  UNL     1      26.813   9.556  50.308  1.00  0.00    -0.238 OA
HETATM   22  O4  UNL     1      25.754   8.268  48.735  1.00  0.00    -0.301 OA
HETATM   23  C22 UNL     1      25.310   6.916  48.576  1.00  0.00     0.215 C 
ENDBRANCH  14  17
ENDBRANCH   1  13
BRANCH  12  24
HETATM   24  O3  UNL     1      22.082   6.317  51.816  1.00  0.00    -0.389 OA
HETATM   25  H21 UNL     1      22.676   6.692  52.514  1.00  0.00     0.210 HD
ENDBRANCH  12  24
BRANCH   8  26
HETATM   26  N5  UNL     1      25.424   1.586  53.450  1.00  0.00    -0.366 N 
HETATM   27  H6  UNL     1      25.907   2.445  53.738  1.00  0.00     0.161 HD
BRANCH  26  28
HETATM   28  C10 UNL     1      26.459   0.571  53.477  1.00  0.00     0.109 C 
HETATM   29  C11 UNL     1      27.747   1.169  53.960  1.00  0.00    -0.002 C 
HETATM   30  C12 UNL     1      28.983   0.762  54.082  1.00  0.00    -0.002 C 
HETATM   31  C13 UNL     1      29.687  -0.483  53.797  1.00  0.00    -0.000 C 
HETATM   32  C14 UNL     1      29.368  -1.700  53.324  1.00  0.00    -0.000 C 
HETATM   33  C15 UNL     1      28.056  -2.218  52.895  1.00  0.00    -0.004 C 
HETATM   34  C16 UNL     1      26.939  -1.625  52.444  1.00  0.00    -0.024 C 
HETATM   35  C17 UNL     1      26.602  -0.197  52.205  1.00  0.00     0.056 C 
ENDBRANCH  26  28
ENDBRANCH   8  26
TORSDOF 5
ENDMDL
MODEL 3
REMARK VINA RESULT:      -9.8      2.738      5.947
REMARK  5 active torsions:
REMARK  status: ('A' for Active; 'I' for Inactive)
REMARK    1  A    between atoms: C2_4  and  C3_5 
REMARK       I    between atoms: C3_5  and  N2_7 
REMARK    2  A    between atoms: N2_7  and  C4_8 
REMARK    3  A    between atoms: C9_15  and  N5_16 
REMARK    4  A    between atoms: N5_16  and  C10_17 
REMARK    5  A    between atoms: C21_28  and  O3_29 
ROOT
HETATM    1  C4  UNL     1      22.892   0.009  53.465  1.00  0.00     0.042 C 
HETATM    2  C5  UNL     1      22.909   0.906  52.464  1.00  0.00     0.045 C 
HETATM    3  C6  UNL     1      22.040   1.097  51.309  1.00  0.00     0.040 A 
HETATM    4  C7  UNL     1      20.694   0.767  51.106  1.00  0.00     0.072 A 
HETATM    5  N3  UNL     1      20.182   1.097  49.917  1.00  0.00    -0.241 NA
HETATM    6  C8  UNL     1      20.925   1.710  48.983  1.00  0.00     0.235 A 
HETATM    7  N4  UNL     1      22.194   1.995  49.241  1.00  0.00    -0.224 NA
HETATM    8  C9  UNL     1      22.833   1.720  50.388  1.00  0.00     0.138 A 
HETATM    9  C18 UNL     1      19.634   0.113  51.891  1.00  0.00     0.028 C 
HETATM   10  C19 UNL     1      19.715  -0.438  53.115  1.00  0.00    -0.021 C 
HETATM   11  C20 UNL     1      20.638  -0.711  54.228  1.00  0.00     0.065 C 
HETATM   12  C21 UNL     1      22.012  -1.139  53.827  1.00  0.00     0.171 C 
ENDROOT
BRANCH   1  13
HETATM   13  N2  UNL     1      23.994   0.290  54.332  1.00  0.00    -0.326 N 
HETATM   14  C3  UNL     1      25.204  -0.157  53.733  1.00  0.00     0.247 C 
HETATM   15  O2  UNL     1      25.710  -0.713  52.723  1.00  0.00    -0.271 OA
HETATM   16  H3  UNL     1      24.146   0.726  55.267  1.00  0.00     0.168 HD
BRANCH  14  17
HETATM   17  C2  UNL     1      26.564  -0.048  54.315  1.00  0.00     0.203 C 
HETATM   18  N1  UNL     1      26.849   1.373  54.429  1.00  0.00    -0.321 N 
HETATM   19  C1  UNL     1      28.217   1.593  54.068  1.00  0.00     0.361 C 
HETATM   20  H1  UNL     1      26.327   2.256  54.701  1.00  0.00     0.165 HD
HETATM   21  O1  UNL     1      29.025   2.556  54.255  1.00  0.00    -0.238 OA
HETATM   22  O4  UNL     1      28.661   0.469  53.377  1.00  0.00    -0.301 OA
HETATM   23  C22 UNL     1      27.639  -0.533  53.382  1.00  0.00     0.215 C 
ENDBRANCH  14  17
ENDBRANCH   1  13
BRANCH  12  24
HETATM   24  O3  UNL     1      22.603  -1.743  54.954  1.00  0.00    -0.389 OA
HETATM   25  H21 UNL     1      23.368  -1.215  55.299  1.00  0.00     0.210 HD
ENDBRANCH  12  24
BRANCH   8  26
HETATM   26  N5  UNL     1      24.205   2.046  50.560  1.00  0.00    -0.366 N 
HETATM   27  H6  UNL     1      25.059   1.694  51.007  1.00  0.00     0.161 HD
BRANCH  26  28
HETATM   28  C10 UNL     1      24.625   3.266  49.900  1.00  0.00     0.109 C 
HETATM   29  C11 UNL     1      26.103   3.224  49.646  1.00  0.00    -0.002 C 
HETATM   30  C12 UNL     1      27.000   4.059  49.192  1.00  0.00    -0.002 C 
HETATM   31  C13 UNL     1      26.974   5.437  48.717  1.00  0.00    -0.000 C 
HETATM   32  C14 UNL     1      26.044   6.390  48.534  1.00  0.00    -0.000 C 
HETATM   33  C15 UNL     1      24.593   6.335  48.784  1.00  0.00    -0.004 C 
HETATM   34  C16 UNL     1      23.831   5.590  49.600  1.00  0.00    -0.024 C 
HETATM   35  C17 UNL     1      24.174   4.519  50.573  1.00  0.00     0.056 C 
ENDBRANCH  26  28
ENDBRANCH   8  26
TORSDOF 5
ENDMDL
MODEL 4
REMARK VINA RESULT:      -9.7      1.803      1.939
REMARK  5 active torsions:
REMARK  status: ('A' for Active; 'I' for Inactive)
REMARK    1  A    between atoms: C2_4  and  C3_5 
REMARK       I    between atoms: C3_5  and  N2_7 
REMARK    2  A    between atoms: N2_7  and  C4_8 
REMARK    3  A    between atoms: C9_15  and  N5_16 
REMARK    4  A    between atoms: N5_16  and  C10_17 
REMARK    5  A    between atoms: C21_28  and  O3_29 
ROOT
HETATM    1  C4  UNL     1      21.830   2.069  52.163  1.00  0.00     0.042 C 
HETATM    2  C5  UNL     1      22.698   1.144  52.608  1.00  0.00     0.045 C 
HETATM    3  C6  UNL     1      22.560   0.063  53.577  1.00  0.00     0.040 A 
HETATM    4  C7  UNL     1      21.437  -0.666  53.989  1.00  0.00     0.072 A 
HETATM    5  N3  UNL     1      21.659  -1.618  54.901  1.00  0.00    -0.241 NA
HETATM    6  C8  UNL     1      22.889  -1.851  55.383  1.00  0.00     0.235 A 
HETATM    7  N4  UNL     1      23.909  -1.123  54.949  1.00  0.00    -0.224 NA
HETATM    8  C9  UNL     1      23.829  -0.140  54.040  1.00  0.00     0.138 A 
HETATM    9  C18 UNL     1      20.000  -0.664  53.674  1.00  0.00     0.028 C 
HETATM   10  C19 UNL     1      19.320   0.165  52.862  1.00  0.00    -0.021 C 
HETATM   11  C20 UNL     1      19.467   1.323  51.967  1.00  0.00     0.065 C 
HETATM   12  C21 UNL     1      20.400   2.386  52.446  1.00  0.00     0.171 C 
ENDROOT
BRANCH   1  13
HETATM   13  N2  UNL     1      22.507   2.889  51.208  1.00  0.00    -0.326 N 
HETATM   14  C3  UNL     1      22.451   2.280  49.923  1.00  0.00     0.247 C 
HETATM   15  O2  UNL     1      22.036   1.287  49.271  1.00  0.00    -0.271 OA
HETATM   16  H3  UNL     1      23.021   3.796  51.200  1.00  0.00     0.168 HD
BRANCH  14  17
HETATM   17  C2  UNL     1      23.035   2.818  48.670  1.00  0.00     0.203 C 
HETATM   18  N1  UNL     1      22.646   4.216  48.603  1.00  0.00    -0.321 N 
HETATM   19  C1  UNL     1      22.313   4.530  47.246  1.00  0.00     0.361 C 
HETATM   20  H1  UNL     1      22.548   5.034  49.271  1.00  0.00     0.165 HD
HETATM   21  O1  UNL     1      22.188   5.622  46.608  1.00  0.00    -0.238 OA
HETATM   22  O4  UNL     1      22.102   3.332  46.571  1.00  0.00    -0.301 OA
HETATM   23  C22 UNL     1      22.408   2.232  47.436  1.00  0.00     0.215 C 
ENDBRANCH  14  17
ENDBRANCH   1  13
BRANCH  12  24
HETATM   24  O3  UNL     1      20.109   3.554  51.715  1.00  0.00    -0.389 OA
HETATM   25  H21 UNL     1      19.663   4.240  52.275  1.00  0.00     0.210 HD
ENDBRANCH  12  24
BRANCH   8  26
HETATM   26  N5  UNL     1      24.980   0.599  53.656  1.00  0.00    -0.366 N 
HETATM   27  H6  UNL     1      25.266   1.546  53.384  1.00  0.00     0.161 HD
BRANCH  26  28
HETATM   28  C10 UNL     1      26.211  -0.166  53.631  1.00  0.00     0.109 C 
HETATM   29  C11 UNL     1      27.350   0.687  54.107  1.00  0.00    -0.002 C 
HETATM   30  C12 UNL     1      28.647   0.556  54.192  1.00  0.00    -0.002 C 
HETATM   31  C13 UNL     1      29.598  -0.498  53.856  1.00  0.00    -0.000 C 
HETATM   32  C14 UNL     1      29.539  -1.742  53.352  1.00  0.00    -0.000 C 
HETATM   33  C15 UNL     1      28.361  -2.523  52.933  1.00  0.00    -0.004 C 
HETATM   34  C16 UNL     1      27.131  -2.176  52.523  1.00  0.00    -0.024 C 
HETATM   35  C17 UNL     1      26.485  -0.851  52.334  1.00  0.00     0.056 C 
ENDBRANCH  26  28
ENDBRANCH   8  26
TORSDOF 5
ENDMDL
MODEL 5
REMARK VINA RESULT:      -9.5      2.216      5.704
REMARK  5 active torsions:
REMARK  status: ('A' for Active; 'I' for Inactive)
REMARK    1  A    between atoms: C2_4  and  C3_5 
REMARK       I    between atoms: C3_5  and  N2_7 
REMARK    2  A    between atoms: N2_7  and  C4_8 
REMARK    3  A    between atoms: C9_15  and  N5_16 
REMARK    4  A    between atoms: N5_16  and  C10_17 
REMARK    5  A    between atoms: C21_28  and  O3_29 
ROOT
HETATM    1  C4  UNL     1      22.006   3.235  51.014  1.00  0.00     0.042 C 
HETATM    2  C5  UNL     1      23.313   3.269  51.326  1.00  0.00     0.045 C 
HETATM    3  C6  UNL     1      24.494   3.617  50.544  1.00  0.00     0.040 A 
HETATM    4  C7  UNL     1      24.648   4.454  49.431  1.00  0.00     0.072 A 
HETATM    5  N3  UNL     1      25.890   4.569  48.952  1.00  0.00    -0.241 NA
HETATM    6  C8  UNL     1      26.919   3.917  49.514  1.00  0.00     0.235 A 
HETATM    7  N4  UNL     1      26.703   3.140  50.566  1.00  0.00    -0.224 NA
HETATM    8  C9  UNL     1      25.512   2.934  51.147  1.00  0.00     0.138 A 
HETATM    9  C18 UNL     1      23.760   5.282  48.599  1.00  0.00     0.028 C 
HETATM   10  C19 UNL     1      22.425   5.418  48.675  1.00  0.00    -0.021 C 
HETATM   11  C20 UNL     1      21.233   4.974  49.414  1.00  0.00     0.065 C 
HETATM   12  C21 UNL     1      21.214   3.527  49.785  1.00  0.00     0.171 C 
ENDROOT
BRANCH   1  13
HETATM   13  N2  UNL     1      21.284   2.818  52.176  1.00  0.00    -0.326 N 
HETATM   14  C3  UNL     1      21.720   1.525  52.576  1.00  0.00     0.247 C 
HETATM   15  O2  UNL     1      22.504   0.575  52.316  1.00  0.00    -0.271 OA
HETATM   16  H3  UNL     1      20.538   3.201  52.796  1.00  0.00     0.168 HD
BRANCH  14  17
HETATM   17  C2  UNL     1      21.216   0.748  53.735  1.00  0.00     0.203 C 
HETATM   18  N1  UNL     1      22.351   0.007  54.258  1.00  0.00    -0.321 N 
HETATM   19  C1  UNL     1      21.905  -1.302  54.633  1.00  0.00     0.361 C 
HETATM   20  H1  UNL     1      23.384   0.175  54.428  1.00  0.00     0.165 HD
HETATM   21  O1  UNL     1      22.397  -2.213  55.368  1.00  0.00    -0.238 OA
HETATM   22  O4  UNL     1      20.678  -1.527  54.015  1.00  0.00    -0.301 OA
HETATM   23  C22 UNL     1      20.257  -0.339  53.336  1.00  0.00     0.215 C 
ENDBRANCH  14  17
ENDBRANCH   1  13
BRANCH  12  24
HETATM   24  O3  UNL     1      19.880   3.195  50.093  1.00  0.00    -0.389 OA
HETATM   25  H21 UNL     1      19.823   2.409  50.693  1.00  0.00     0.210 HD
ENDBRANCH  12  24
BRANCH   8  26
HETATM   26  N5  UNL     1      25.380   2.063  52.261  1.00  0.00    -0.366 N 
HETATM   27  H6  UNL     1      24.696   1.767  52.967  1.00  0.00     0.161 HD
BRANCH  26  28
HETATM   28  C10 UNL     1      26.560   1.276  52.559  1.00  0.00     0.109 C 
HETATM   29  C11 UNL     1      26.266  -0.181  52.352  1.00  0.00    -0.002 C 
HETATM   30  C12 UNL     1      26.902  -1.304  52.559  1.00  0.00    -0.002 C 
HETATM   31  C13 UNL     1      28.210  -1.660  53.097  1.00  0.00    -0.000 C 
HETATM   32  C14 UNL     1      29.283  -1.005  53.571  1.00  0.00    -0.000 C 
HETATM   33  C15 UNL     1      29.500   0.446  53.713  1.00  0.00    -0.004 C 
HETATM   34  C16 UNL     1      28.666   1.490  53.838  1.00  0.00    -0.024 C 
HETATM   35  C17 UNL     1      27.183   1.574  53.882  1.00  0.00     0.056 C 
ENDBRANCH  26  28
ENDBRANCH   8  26
TORSDOF 5
ENDMDL
MODEL 6
REMARK VINA RESULT:      -9.0      2.641      5.989
REMARK  5 active torsions:
REMARK  status: ('A' for Active; 'I' for Inactive)
REMARK    1  A    between atoms: C2_4  and  C3_5 
REMARK       I    between atoms: C3_5  and  N2_7 
REMARK    2  A    between atoms: N2_7  and  C4_8 
REMARK    3  A    between atoms: C9_15  and  N5_16 
REMARK    4  A    between atoms: N5_16  and  C10_17 
REMARK    5  A    between atoms: C21_28  and  O3_29 
ROOT
HETATM    1  C4  UNL     1      21.804   0.272  53.140  1.00  0.00     0.042 C 
HETATM    2  C5  UNL     1      22.944   0.531  52.476  1.00  0.00     0.045 C 
HETATM    3  C6  UNL     1      24.336   0.581  52.908  1.00  0.00     0.040 A 
HETATM    4  C7  UNL     1      24.995  -0.060  53.965  1.00  0.00     0.072 A 
HETATM    5  N3  UNL     1      26.301   0.194  54.081  1.00  0.00    -0.241 NA
HETATM    6  C8  UNL     1      26.932   1.015  53.227  1.00  0.00     0.235 A 
HETATM    7  N4  UNL     1      26.247   1.589  52.247  1.00  0.00    -0.224 NA
HETATM    8  C9  UNL     1      24.937   1.424  52.016  1.00  0.00     0.138 A 
HETATM    9  C18 UNL     1      24.613  -0.984  55.045  1.00  0.00     0.028 C 
HETATM   10  C19 UNL     1      23.393  -1.457  55.353  1.00  0.00    -0.021 C 
HETATM   11  C20 UNL     1      21.976  -1.412  54.960  1.00  0.00     0.065 C 
HETATM   12  C21 UNL     1      21.469  -0.067  54.553  1.00  0.00     0.171 C 
ENDROOT
BRANCH   1  13
HETATM   13  N2  UNL     1      20.720   0.361  52.212  1.00  0.00    -0.326 N 
HETATM   14  C3  UNL     1      20.367   1.724  52.012  1.00  0.00     0.247 C 
HETATM   15  O2  UNL     1      20.629   2.914  52.328  1.00  0.00    -0.271 OA
HETATM   16  H3  UNL     1      20.130  -0.293  51.653  1.00  0.00     0.168 HD
BRANCH  14  17
HETATM   17  C2  UNL     1      19.293   2.231  51.124  1.00  0.00     0.203 C 
HETATM   18  N1  UNL     1      18.821   3.472  51.716  1.00  0.00    -0.321 N 
HETATM   19  C1  UNL     1      17.396   3.526  51.584  1.00  0.00     0.361 C 
HETATM   20  H1  UNL     1      19.242   4.316  52.202  1.00  0.00     0.165 HD
HETATM   21  O1  UNL     1      16.547   4.467  51.671  1.00  0.00    -0.238 OA
HETATM   22  O4  UNL     1      16.946   2.239  51.307  1.00  0.00    -0.301 OA
HETATM   23  C22 UNL     1      18.065   1.363  51.138  1.00  0.00     0.215 C 
ENDBRANCH  14  17
ENDBRANCH   1  13
BRANCH  12  24
HETATM   24  O3  UNL     1      20.063  -0.117  54.619  1.00  0.00    -0.389 OA
HETATM   25  H21 UNL     1      19.745  -0.490  55.480  1.00  0.00     0.210 HD
ENDBRANCH  12  24
BRANCH   8  26
HETATM   26  N5  UNL     1      24.288   2.102  50.950  1.00  0.00    -0.366 N 
HETATM   27  H6  UNL     1      23.587   1.950  50.216  1.00  0.00     0.161 HD
BRANCH  26  28
HETATM   28  C10 UNL     1      24.679   3.489  50.788  1.00  0.00     0.109 C 
HETATM   29  C11 UNL     1      23.782   4.370  51.606  1.00  0.00    -0.002 C 
HETATM   30  C12 UNL     1      23.615   5.657  51.755  1.00  0.00    -0.002 C 
HETATM   31  C13 UNL     1      24.234   6.847  51.182  1.00  0.00    -0.000 C 
HETATM   32  C14 UNL     1      25.217   7.110  50.304  1.00  0.00    -0.000 C 
HETATM   33  C15 UNL     1      26.076   6.173  49.560  1.00  0.00    -0.004 C 
HETATM   34  C16 UNL     1      25.924   4.895  49.178  1.00  0.00    -0.024 C 
HETATM   35  C17 UNL     1      24.809   3.930  49.368  1.00  0.00     0.056 C 
ENDBRANCH  26  28
ENDBRANCH   8  26
TORSDOF 5
ENDMDL
MODEL 7
REMARK VINA RESULT:      -8.9      3.344      6.045
REMARK  5 active torsions:
REMARK  status: ('A' for Active; 'I' for Inactive)
REMARK    1  A    between atoms: C2_4  and  C3_5 
REMARK       I    between atoms: C3_5  and  N2_7 
REMARK    2  A    between atoms: N2_7  and  C4_8 
REMARK    3  A    between atoms: C9_15  and  N5_16 
REMARK    4  A    between atoms: N5_16  and  C10_17 
REMARK    5  A    between atoms: C21_28  and  O3_29 
ROOT
HETATM    1  C4  UNL     1      25.197   7.105  50.490  1.00  0.00     0.042 C 
HETATM    2  C5  UNL     1      24.682   5.881  50.703  1.00  0.00     0.045 C 
HETATM    3  C6  UNL     1      23.338   5.434  51.051  1.00  0.00     0.040 A 
HETATM    4  C7  UNL     1      22.086   6.015  50.816  1.00  0.00     0.072 A 
HETATM    5  N3  UNL     1      21.029   5.329  51.260  1.00  0.00    -0.241 NA
HETATM    6  C8  UNL     1      21.174   4.153  51.890  1.00  0.00     0.235 A 
HETATM    7  N4  UNL     1      22.390   3.659  52.079  1.00  0.00    -0.224 NA
HETATM    8  C9  UNL     1      23.533   4.241  51.687  1.00  0.00     0.138 A 
HETATM    9  C18 UNL     1      21.593   7.248  50.182  1.00  0.00     0.028 C 
HETATM   10  C19 UNL     1      22.302   8.263  49.657  1.00  0.00    -0.021 C 
HETATM   11  C20 UNL     1      23.671   8.741  49.407  1.00  0.00     0.065 C 
HETATM   12  C21 UNL     1      24.646   8.490  50.511  1.00  0.00     0.171 C 
ENDROOT
BRANCH   1  13
HETATM   13  N2  UNL     1      26.584   6.954  50.179  1.00  0.00    -0.326 N 
HETATM   14  C3  UNL     1      26.762   6.940  48.768  1.00  0.00     0.247 C 
HETATM   15  O2  UNL     1      26.179   7.008  47.654  1.00  0.00    -0.271 OA
HETATM   16  H3  UNL     1      27.483   6.855  50.698  1.00  0.00     0.168 HD
BRANCH  14  17
HETATM   17  C2  UNL     1      28.052   6.802  48.047  1.00  0.00     0.203 C 
HETATM   18  N1  UNL     1      28.764   5.708  48.685  1.00  0.00    -0.321 N 
HETATM   19  C1  UNL     1      30.150   6.058  48.774  1.00  0.00     0.361 C 
HETATM   20  H1  UNL     1      28.535   4.754  49.088  1.00  0.00     0.165 HD
HETATM   21  O1  UNL     1      31.209   5.386  48.975  1.00  0.00    -0.238 OA
HETATM   22  O4  UNL     1      30.254   7.434  48.589  1.00  0.00    -0.301 OA
HETATM   23  C22 UNL     1      28.968   7.974  48.263  1.00  0.00     0.215 C 
ENDBRANCH  14  17
ENDBRANCH   1  13
BRANCH  12  24
HETATM   24  O3  UNL     1      25.742   9.348  50.298  1.00  0.00    -0.389 OA
HETATM   25  H21 UNL     1      26.104   9.704  51.149  1.00  0.00     0.210 HD
ENDBRANCH  12  24
BRANCH   8  26
HETATM   26  N5  UNL     1      24.792   3.641  51.957  1.00  0.00    -0.366 N 
HETATM   27  H6  UNL     1      25.795   3.782  51.793  1.00  0.00     0.161 HD
BRANCH  26  28
HETATM   28  C10 UNL     1      24.727   2.421  52.738  1.00  0.00     0.109 C 
HETATM   29  C11 UNL     1      26.010   2.229  53.490  1.00  0.00    -0.002 C 
HETATM   30  C12 UNL     1      26.528   1.291  54.239  1.00  0.00    -0.002 C 
HETATM   31  C13 UNL     1      26.084  -0.022  54.692  1.00  0.00    -0.000 C 
HETATM   32  C14 UNL     1      24.988  -0.786  54.550  1.00  0.00    -0.000 C 
HETATM   33  C15 UNL     1      23.746  -0.504  53.809  1.00  0.00    -0.004 C 
HETATM   34  C16 UNL     1      23.461   0.297  52.770  1.00  0.00    -0.024 C 
HETATM   35  C17 UNL     1      24.307   1.216  51.964  1.00  0.00     0.056 C 
ENDBRANCH  26  28
ENDBRANCH   8  26
TORSDOF 5
ENDMDL
MODEL 8
REMARK VINA RESULT:      -8.2      6.486     11.041
REMARK  5 active torsions:
REMARK  status: ('A' for Active; 'I' for Inactive)
REMARK    1  A    between atoms: C2_4  and  C3_5 
REMARK       I    between atoms: C3_5  and  N2_7 
REMARK    2  A    between atoms: N2_7  and  C4_8 
REMARK    3  A    between atoms: C9_15  and  N5_16 
REMARK    4  A    between atoms: N5_16  and  C10_17 
REMARK    5  A    between atoms: C21_28  and  O3_29 
ROOT
HETATM    1  C4  UNL     1      31.047   7.981  48.038  1.00  0.00     0.042 C 
HETATM    2  C5  UNL     1      29.714   7.863  48.169  1.00  0.00     0.045 C 
HETATM    3  C6  UNL     1      28.707   8.750  48.740  1.00  0.00     0.040 A 
HETATM    4  C7  UNL     1      28.687  10.142  48.892  1.00  0.00     0.072 A 
HETATM    5  N3  UNL     1      27.588  10.655  49.452  1.00  0.00    -0.241 NA
HETATM    6  C8  UNL     1      26.571   9.871  49.841  1.00  0.00     0.235 A 
HETATM    7  N4  UNL     1      26.655   8.558  49.668  1.00  0.00    -0.224 NA
HETATM    8  C9  UNL     1      27.696   7.914  49.121  1.00  0.00     0.138 A 
HETATM    9  C18 UNL     1      29.603  11.254  48.587  1.00  0.00     0.028 C 
HETATM   10  C19 UNL     1      30.846  11.201  48.079  1.00  0.00    -0.021 C 
HETATM   11  C20 UNL     1      31.888  10.279  47.602  1.00  0.00     0.065 C 
HETATM   12  C21 UNL     1      32.046   9.026  48.401  1.00  0.00     0.171 C 
ENDROOT
BRANCH   1  13
HETATM   13  N2  UNL     1      31.536   6.799  47.399  1.00  0.00    -0.326 N 
HETATM   14  C3  UNL     1      31.690   5.760  48.358  1.00  0.00     0.247 C 
HETATM   15  O2  UNL     1      31.566   5.452  49.572  1.00  0.00    -0.271 OA
HETATM   16  H3  UNL     1      31.805   6.500  46.437  1.00  0.00     0.168 HD
BRANCH  14  17
HETATM   17  C2  UNL     1      32.172   4.383  48.091  1.00  0.00     0.203 C 
HETATM   18  N1  UNL     1      33.610   4.404  48.298  1.00  0.00    -0.321 N 
HETATM   19  C1  UNL     1      34.227   3.600  47.286  1.00  0.00     0.361 C 
HETATM   20  H1  UNL     1      34.297   4.843  48.977  1.00  0.00     0.165 HD
HETATM   21  O1  UNL     1      35.376   3.072  47.171  1.00  0.00    -0.238 OA
HETATM   22  O4  UNL     1      33.299   3.417  46.264  1.00  0.00    -0.301 OA
HETATM   23  C22 UNL     1      32.044   3.990  46.646  1.00  0.00     0.215 C 
ENDBRANCH  14  17
ENDBRANCH   1  13
BRANCH  12  24
HETATM   24  O3  UNL     1      33.308   8.487  48.080  1.00  0.00    -0.389 OA
HETATM   25  H21 UNL     1      33.857   8.325  48.889  1.00  0.00     0.210 HD
ENDBRANCH  12  24
BRANCH   8  26
HETATM   26  N5  UNL     1      27.701   6.498  48.999  1.00  0.00    -0.366 N 
HETATM   27  H6  UNL     1      28.340   5.715  48.823  1.00  0.00     0.161 HD
BRANCH  26  28
HETATM   28  C10 UNL     1      26.409   5.869  49.190  1.00  0.00     0.109 C 
HETATM   29  C11 UNL     1      26.588   4.395  49.403  1.00  0.00    -0.002 C 
HETATM   30  C12 UNL     1      25.796   3.362  49.520  1.00  0.00    -0.002 C 
HETATM   31  C13 UNL     1      24.351   3.167  49.495  1.00  0.00    -0.000 C 
HETATM   32  C14 UNL     1      23.262   3.945  49.365  1.00  0.00    -0.000 C 
HETATM   33  C15 UNL     1      23.177   5.405  49.187  1.00  0.00    -0.004 C 
HETATM   34  C16 UNL     1      24.028   6.320  48.697  1.00  0.00    -0.024 C 
HETATM   35  C17 UNL     1      25.401   6.200  48.141  1.00  0.00     0.056 C 
ENDBRANCH  26  28
ENDBRANCH   8  26
TORSDOF 5
ENDMDL
MODEL 9
REMARK VINA RESULT:      -8.2      3.036      6.938
REMARK  5 active torsions:
REMARK  status: ('A' for Active; 'I' for Inactive)
REMARK    1  A    between atoms: C2_4  and  C3_5 
REMARK       I    between atoms: C3_5  and  N2_7 
REMARK    2  A    between atoms: N2_7  and  C4_8 
REMARK    3  A    between atoms: C9_15  and  N5_16 
REMARK    4  A    between atoms: N5_16  and  C10_17 
REMARK    5  A    between atoms: C21_28  and  O3_29 
ROOT
HETATM    1  C4  UNL     1      21.537   0.827  52.694  1.00  0.00     0.042 C 
HETATM    2  C5  UNL     1      22.430   1.286  51.800  1.00  0.00     0.045 C 
HETATM    3  C6  UNL     1      23.876   1.465  51.868  1.00  0.00     0.040 A 
HETATM    4  C7  UNL     1      24.849   0.812  52.634  1.00  0.00     0.072 A 
HETATM    5  N3  UNL     1      26.110   1.212  52.446  1.00  0.00    -0.241 NA
HETATM    6  C8  UNL     1      26.411   2.182  51.569  1.00  0.00     0.235 A 
HETATM    7  N4  UNL     1      25.440   2.760  50.875  1.00  0.00    -0.224 NA
HETATM    8  C9  UNL     1      24.136   2.457  50.966  1.00  0.00     0.138 A 
HETATM    9  C18 UNL     1      24.857  -0.252  53.651  1.00  0.00     0.028 C 
HETATM   10  C19 UNL     1      23.812  -0.899  54.197  1.00  0.00    -0.021 C 
HETATM   11  C20 UNL     1      22.344  -0.991  54.186  1.00  0.00     0.065 C 
HETATM   12  C21 UNL     1      21.624   0.314  54.092  1.00  0.00     0.171 C 
ENDROOT
BRANCH   1  13
HETATM   13  N2  UNL     1      20.242   0.870  52.090  1.00  0.00    -0.326 N 
HETATM   14  C3  UNL     1      19.737   2.200  52.128  1.00  0.00     0.247 C 
HETATM   15  O2  UNL     1      19.975   3.383  52.487  1.00  0.00    -0.271 OA
HETATM   16  H3  UNL     1      19.581   0.203  51.638  1.00  0.00     0.168 HD
BRANCH  14  17
HETATM   17  C2  UNL     1      18.427   2.656  51.603  1.00  0.00     0.203 C 
HETATM   18  N1  UNL     1      17.601   1.469  51.471  1.00  0.00    -0.321 N 
HETATM   19  C1  UNL     1      16.844   1.573  50.259  1.00  0.00     0.361 C 
HETATM   20  H1  UNL     1      17.418   0.578  52.017  1.00  0.00     0.165 HD
HETATM   21  O1  UNL     1      15.810   0.979  49.822  1.00  0.00    -0.238 OA
HETATM   22  O4  UNL     1      17.443   2.549  49.467  1.00  0.00    -0.301 OA
HETATM   23  C22 UNL     1      18.511   3.168  50.192  1.00  0.00     0.215 C 
ENDBRANCH  14  17
ENDBRANCH   1  13
BRANCH  12  24
HETATM   24  O3  UNL     1      20.297   0.087  54.506  1.00  0.00    -0.389 OA
HETATM   25  H21 UNL     1      19.930   0.854  55.015  1.00  0.00     0.210 HD
ENDBRANCH  12  24
BRANCH   8  26
HETATM   26  N5  UNL     1      23.167   3.151  50.193  1.00  0.00    -0.366 N 
HETATM   27  H6  UNL     1      22.296   2.990  49.674  1.00  0.00     0.161 HD
BRANCH  26  28
HETATM   28  C10 UNL     1      23.406   4.574  50.056  1.00  0.00     0.109 C 
HETATM   29  C11 UNL     1      22.314   5.341  50.741  1.00  0.00    -0.002 C 
HETATM   30  C12 UNL     1      21.975   6.599  50.845  1.00  0.00    -0.002 C 
HETATM   31  C13 UNL     1      22.514   7.854  50.334  1.00  0.00    -0.000 C 
HETATM   32  C14 UNL     1      23.561   8.233  49.581  1.00  0.00    -0.000 C 
HETATM   33  C15 UNL     1      24.614   7.405  48.966  1.00  0.00    -0.004 C 
HETATM   34  C16 UNL     1      24.665   6.118  48.591  1.00  0.00    -0.024 C 
HETATM   35  C17 UNL     1      23.660   5.025  48.656  1.00  0.00     0.056 C 
ENDBRANCH  26  28
ENDBRANCH   8  26
TORSDOF 5
ENDMDL
