MODEL 1
REMARK VINA RESULT:      -9.4      0.000      0.000
REMARK  3 active torsions:
REMARK  status: ('A' for Active; 'I' for Inactive)
REMARK    1  A    between atoms: C10_11  and  N2_12 
REMARK    2  A    between atoms: N2_12  and  C11_13 
REMARK    3  A    between atoms: C16_18  and  O1_19 
ROOT
HETATM    1  C1  UNL     1      17.395  -2.058  53.151  1.00  0.00     0.048 C 
HETATM    2  C2  UNL     1      18.566  -1.152  53.019  1.00  0.00    -0.061 A 
HETATM    3  C3  UNL     1      18.533  -0.174  52.062  1.00  0.00     0.009 A 
HETATM    4  C4  UNL     1      19.579   0.688  51.892  1.00  0.00     0.038 A 
HETATM    5  C5  UNL     1      20.698   0.584  52.693  1.00  0.00     0.086 A 
HETATM    6  C6  UNL     1      20.729  -0.400  53.653  1.00  0.00    -0.006 A 
HETATM    7  C7  UNL     1      19.668  -1.294  53.844  1.00  0.00     0.018 A 
HETATM    8  C8  UNL     1      21.772  -0.744  54.649  1.00  0.00     0.161 C 
HETATM    9  N1  UNL     1      23.103  -0.645  54.117  1.00  0.00    -0.379 N 
HETATM   10  C9  UNL     1      23.752   0.231  53.190  1.00  0.00     0.129 A 
HETATM   11  C10 UNL     1      25.128   0.030  53.071  1.00  0.00     0.160 A 
HETATM   12  N3  UNL     1      25.826   0.806  52.198  1.00  0.00    -0.222 NA
HETATM   13  C17 UNL     1      25.172   1.737  51.482  1.00  0.00     0.238 A 
HETATM   14  N4  UNL     1      23.827   1.978  51.556  1.00  0.00    -0.215 NA
HETATM   15  C18 UNL     1      23.111   1.202  52.434  1.00  0.00     0.202 A 
HETATM   16  O2  UNL     1      21.736   1.504  52.460  1.00  0.00    -0.289 OA
HETATM   17  H9  UNL     1      23.765  -1.389  54.492  1.00  0.00     0.160 HD
ENDROOT
BRANCH  11  18
HETATM   18  N2  UNL     1      25.736  -0.961  53.898  1.00  0.00    -0.337 N 
HETATM   19  H10 UNL     1      25.359  -1.706  54.531  1.00  0.00     0.167 HD
BRANCH  18  20
HETATM   20  C11 UNL     1      27.150  -0.861  53.794  1.00  0.00     0.067 A 
HETATM   21  C12 UNL     1      27.733   0.272  54.354  1.00  0.00     0.032 A 
HETATM   22  C13 UNL     1      29.110   0.541  54.358  1.00  0.00     0.002 A 
HETATM   23  C14 UNL     1      29.920  -0.415  53.749  1.00  0.00     0.003 A 
HETATM   24  C15 UNL     1      29.400  -1.537  53.187  1.00  0.00     0.039 A 
HETATM   25  C16 UNL     1      28.065  -1.723  53.225  1.00  0.00     0.092 A 
BRANCH  25  26
HETATM   26  O1  UNL     1      27.515  -2.861  52.656  1.00  0.00    -0.358 OA
HETATM   27  H15 UNL     1      28.096  -3.689  52.505  1.00  0.00     0.217 HD
ENDBRANCH  25  26
ENDBRANCH  18  20
ENDBRANCH  11  18
TORSDOF 3
ENDMDL
MODEL 2
REMARK VINA RESULT:      -9.2      3.160      7.108
REMARK  3 active torsions:
REMARK  status: ('A' for Active; 'I' for Inactive)
REMARK    1  A    between atoms: C10_11  and  N2_12 
REMARK    2  A    between atoms: N2_12  and  C11_13 
REMARK    3  A    between atoms: C16_18  and  O1_19 
ROOT
HETATM    1  C1  UNL     1      29.854  -1.159  53.462  1.00  0.00     0.048 C 
HETATM    2  C2  UNL     1      28.424  -0.781  53.315  1.00  0.00    -0.061 A 
HETATM    3  C3  UNL     1      27.547  -1.713  52.828  1.00  0.00     0.009 A 
HETATM    4  C4  UNL     1      26.221  -1.424  52.670  1.00  0.00     0.038 A 
HETATM    5  C5  UNL     1      25.740  -0.175  53.005  1.00  0.00     0.086 A 
HETATM    6  C6  UNL     1      26.623   0.759  53.494  1.00  0.00    -0.006 A 
HETATM    7  C7  UNL     1      27.986   0.485  53.663  1.00  0.00     0.018 A 
HETATM    8  C8  UNL     1      26.403   2.157  53.938  1.00  0.00     0.161 C 
HETATM    9  N1  UNL     1      25.474   2.866  53.103  1.00  0.00    -0.379 N 
HETATM   10  C9  UNL     1      24.279   2.509  52.399  1.00  0.00     0.129 A 
HETATM   11  C10 UNL     1      23.613   3.583  51.809  1.00  0.00     0.160 A 
HETATM   12  N3  UNL     1      22.476   3.336  51.103  1.00  0.00    -0.222 NA
HETATM   13  C17 UNL     1      22.033   2.071  50.998  1.00  0.00     0.238 A 
HETATM   14  N4  UNL     1      22.643   0.980  51.555  1.00  0.00    -0.215 NA
HETATM   15  C18 UNL     1      23.791   1.216  52.270  1.00  0.00     0.202 A 
HETATM   16  O2  UNL     1      24.365   0.051  52.815  1.00  0.00    -0.289 OA
HETATM   17  H9  UNL     1      25.722   3.892  52.970  1.00  0.00     0.160 HD
ENDROOT
BRANCH  11  18
HETATM   18  N2  UNL     1      24.146   4.893  52.004  1.00  0.00    -0.337 N 
HETATM   19  H10 UNL     1      24.308   5.490  52.849  1.00  0.00     0.167 HD
BRANCH  18  20
HETATM   20  C11 UNL     1      24.514   5.444  50.747  1.00  0.00     0.067 A 
HETATM   21  C12 UNL     1      23.648   6.392  50.209  1.00  0.00     0.032 A 
HETATM   22  C13 UNL     1      23.846   7.051  48.987  1.00  0.00     0.002 A 
HETATM   23  C14 UNL     1      25.003   6.709  48.289  1.00  0.00     0.003 A 
HETATM   24  C15 UNL     1      25.880   5.789  48.771  1.00  0.00     0.039 A 
HETATM   25  C16 UNL     1      25.616   5.200  49.955  1.00  0.00     0.092 A 
BRANCH  25  26
HETATM   26  O1  UNL     1      26.499   4.259  50.462  1.00  0.00    -0.358 OA
HETATM   27  H15 UNL     1      27.333   4.561  50.971  1.00  0.00     0.217 HD
ENDBRANCH  25  26
ENDBRANCH  18  20
ENDBRANCH  11  18
TORSDOF 3
ENDMDL
MODEL 3
REMARK VINA RESULT:      -9.0      2.325      3.040
REMARK  3 active torsions:
REMARK  status: ('A' for Active; 'I' for Inactive)
REMARK    1  A    between atoms: C10_11  and  N2_12 
REMARK    2  A    between atoms: N2_12  and  C11_13 
REMARK    3  A    between atoms: C16_18  and  O1_19 
ROOT
HETATM    1  C1  UNL     1      18.567  -0.131  51.444  1.00  0.00     0.048 C 
HETATM    2  C2  UNL     1      19.748   0.708  51.108  1.00  0.00    -0.061 A 
HETATM    3  C3  UNL     1      19.993   0.997  49.792  1.00  0.00     0.009 A 
HETATM    4  C4  UNL     1      21.062   1.763  49.422  1.00  0.00     0.038 A 
HETATM    5  C5  UNL     1      21.921   2.261  50.379  1.00  0.00     0.086 A 
HETATM    6  C6  UNL     1      21.674   1.969  51.700  1.00  0.00    -0.006 A 
HETATM    7  C7  UNL     1      20.584   1.186  52.102  1.00  0.00     0.018 A 
HETATM    8  C8  UNL     1      22.403   2.363  52.930  1.00  0.00     0.161 C 
HETATM    9  N1  UNL     1      23.829   2.338  52.762  1.00  0.00    -0.379 N 
HETATM   10  C9  UNL     1      24.721   2.650  51.687  1.00  0.00     0.129 A 
HETATM   11  C10 UNL     1      26.074   2.606  52.027  1.00  0.00     0.160 A 
HETATM   12  N3  UNL     1      26.996   2.871  51.063  1.00  0.00    -0.222 NA
HETATM   13  C17 UNL     1      26.577   3.168  49.820  1.00  0.00     0.238 A 
HETATM   14  N4  UNL     1      25.267   3.227  49.430  1.00  0.00    -0.215 NA
HETATM   15  C18 UNL     1      24.326   2.961  50.394  1.00  0.00     0.202 A 
HETATM   16  O2  UNL     1      23.001   3.039  49.924  1.00  0.00    -0.289 OA
HETATM   17  H9  UNL     1      24.351   2.012  53.631  1.00  0.00     0.160 HD
ENDROOT
BRANCH  11  18
HETATM   18  N2  UNL     1      26.417   2.313  53.381  1.00  0.00    -0.337 N 
HETATM   19  H10 UNL     1      26.104   2.692  54.305  1.00  0.00     0.167 HD
BRANCH  18  20
HETATM   20  C11 UNL     1      27.393   1.279  53.407  1.00  0.00     0.067 A 
HETATM   21  C12 UNL     1      26.961   0.011  53.030  1.00  0.00     0.032 A 
HETATM   22  C13 UNL     1      27.778  -1.129  52.984  1.00  0.00     0.002 A 
HETATM   23  C14 UNL     1      29.110  -0.940  53.347  1.00  0.00     0.003 A 
HETATM   24  C15 UNL     1      29.580   0.278  53.723  1.00  0.00     0.039 A 
HETATM   25  C16 UNL     1      28.730   1.325  53.741  1.00  0.00     0.092 A 
BRANCH  25  26
HETATM   26  O1  UNL     1      29.192   2.575  54.122  1.00  0.00    -0.358 OA
HETATM   27  H15 UNL     1      29.759   3.130  53.477  1.00  0.00     0.217 HD
ENDBRANCH  25  26
ENDBRANCH  18  20
ENDBRANCH  11  18
TORSDOF 3
ENDMDL
MODEL 4
REMARK VINA RESULT:      -8.9      3.753      6.032
REMARK  3 active torsions:
REMARK  status: ('A' for Active; 'I' for Inactive)
REMARK    1  A    between atoms: C10_11  and  N2_12 
REMARK    2  A    between atoms: N2_12  and  C11_13 
REMARK    3  A    between atoms: C16_18  and  O1_19 
ROOT
HETATM    1  C1  UNL     1      23.831   8.236  47.278  1.00  0.00     0.048 C 
HETATM    2  C2  UNL     1      23.759   6.847  47.804  1.00  0.00    -0.061 A 
HETATM    3  C3  UNL     1      22.723   6.048  47.403  1.00  0.00     0.009 A 
HETATM    4  C4  UNL     1      22.604   4.763  47.853  1.00  0.00     0.038 A 
HETATM    5  C5  UNL     1      23.537   4.246  48.728  1.00  0.00     0.086 A 
HETATM    6  C6  UNL     1      24.576   5.052  49.130  1.00  0.00    -0.006 A 
HETATM    7  C7  UNL     1      24.718   6.371  48.682  1.00  0.00     0.018 A 
HETATM    8  C8  UNL     1      25.715   4.778  50.040  1.00  0.00     0.161 C 
HETATM    9  N1  UNL     1      25.337   3.992  51.181  1.00  0.00    -0.379 N 
HETATM   10  C9  UNL     1      24.420   2.915  51.402  1.00  0.00     0.129 A 
HETATM   11  C10 UNL     1      24.483   2.354  52.678  1.00  0.00     0.160 A 
HETATM   12  N3  UNL     1      23.634   1.336  52.984  1.00  0.00    -0.222 NA
HETATM   13  C17 UNL     1      22.767   0.905  52.052  1.00  0.00     0.238 A 
HETATM   14  N4  UNL     1      22.661   1.414  50.787  1.00  0.00    -0.215 NA
HETATM   15  C18 UNL     1      23.512   2.443  50.465  1.00  0.00     0.202 A 
HETATM   16  O2  UNL     1      23.349   2.918  49.150  1.00  0.00    -0.289 OA
HETATM   17  H9  UNL     1      25.852   4.265  52.072  1.00  0.00     0.160 HD
ENDROOT
BRANCH  11  18
HETATM   18  N2  UNL     1      25.459   2.861  53.587  1.00  0.00    -0.337 N 
HETATM   19  H10 UNL     1      25.533   3.738  54.155  1.00  0.00     0.167 HD
BRANCH  18  20
HETATM   20  C11 UNL     1      26.529   1.932  53.696  1.00  0.00     0.067 A 
HETATM   21  C12 UNL     1      26.357   0.894  54.607  1.00  0.00     0.032 A 
HETATM   22  C13 UNL     1      27.295  -0.122  54.847  1.00  0.00     0.002 A 
HETATM   23  C14 UNL     1      28.471  -0.054  54.101  1.00  0.00     0.003 A 
HETATM   24  C15 UNL     1      28.687   0.940  53.200  1.00  0.00     0.039 A 
HETATM   25  C16 UNL     1      27.735   1.879  53.029  1.00  0.00     0.092 A 
BRANCH  25  26
HETATM   26  O1  UNL     1      27.939   2.901  52.115  1.00  0.00    -0.358 OA
HETATM   27  H15 UNL     1      28.161   2.680  51.141  1.00  0.00     0.217 HD
ENDBRANCH  25  26
ENDBRANCH  18  20
ENDBRANCH  11  18
TORSDOF 3
ENDMDL
MODEL 5
REMARK VINA RESULT:      -8.4      4.509      7.359
REMARK  3 active torsions:
REMARK  status: ('A' for Active; 'I' for Inactive)
REMARK    1  A    between atoms: C10_11  and  N2_12 
REMARK    2  A    between atoms: N2_12  and  C11_13 
REMARK    3  A    between atoms: C16_18  and  O1_19 
ROOT
HETATM    1  C1  UNL     1      26.657   9.084  46.934  1.00  0.00     0.048 C 
HETATM    2  C2  UNL     1      25.797   7.969  47.413  1.00  0.00    -0.061 A 
HETATM    3  C3  UNL     1      24.490   7.931  47.009  1.00  0.00     0.009 A 
HETATM    4  C4  UNL     1      23.651   6.932  47.416  1.00  0.00     0.038 A 
HETATM    5  C5  UNL     1      24.114   5.936  48.250  1.00  0.00     0.086 A 
HETATM    6  C6  UNL     1      25.428   5.977  48.655  1.00  0.00    -0.006 A 
HETATM    7  C7  UNL     1      26.305   6.991  48.250  1.00  0.00     0.018 A 
HETATM    8  C8  UNL     1      26.199   5.058  49.527  1.00  0.00     0.161 C 
HETATM    9  N1  UNL     1      25.436   4.586  50.649  1.00  0.00    -0.379 N 
HETATM   10  C9  UNL     1      24.066   4.227  50.854  1.00  0.00     0.129 A 
HETATM   11  C10 UNL     1      23.793   3.679  52.108  1.00  0.00     0.160 A 
HETATM   12  N3  UNL     1      22.512   3.324  52.398  1.00  0.00    -0.222 NA
HETATM   13  C17 UNL     1      21.555   3.511  51.472  1.00  0.00     0.238 A 
HETATM   14  N4  UNL     1      21.763   4.042  50.229  1.00  0.00    -0.215 NA
HETATM   15  C18 UNL     1      23.053   4.404  49.923  1.00  0.00     0.202 A 
HETATM   16  O2  UNL     1      23.195   4.942  48.629  1.00  0.00    -0.289 OA
HETATM   17  H9  UNL     1      26.014   4.475  51.536  1.00  0.00     0.160 HD
ENDROOT
BRANCH  11  18
HETATM   18  N2  UNL     1      24.883   3.491  53.010  1.00  0.00    -0.337 N 
HETATM   19  H10 UNL     1      25.344   4.102  53.724  1.00  0.00     0.167 HD
BRANCH  18  20
HETATM   20  C11 UNL     1      25.404   2.178  52.854  1.00  0.00     0.067 A 
HETATM   21  C12 UNL     1      24.579   1.133  53.258  1.00  0.00     0.032 A 
HETATM   22  C13 UNL     1      24.915  -0.227  53.173  1.00  0.00     0.002 A 
HETATM   23  C14 UNL     1      26.171  -0.513  52.640  1.00  0.00     0.003 A 
HETATM   24  C15 UNL     1      27.013   0.472  52.232  1.00  0.00     0.039 A 
HETATM   25  C16 UNL     1      26.615   1.755  52.347  1.00  0.00     0.092 A 
BRANCH  25  26
HETATM   26  O1  UNL     1      27.461   2.773  51.937  1.00  0.00    -0.358 OA
HETATM   27  H15 UNL     1      27.183   3.393  51.172  1.00  0.00     0.217 HD
ENDBRANCH  25  26
ENDBRANCH  18  20
ENDBRANCH  11  18
TORSDOF 3
ENDMDL
MODEL 6
REMARK VINA RESULT:      -8.4      4.529      7.797
REMARK  3 active torsions:
REMARK  status: ('A' for Active; 'I' for Inactive)
REMARK    1  A    between atoms: C10_11  and  N2_12 
REMARK    2  A    between atoms: N2_12  and  C11_13 
REMARK    3  A    between atoms: C16_18  and  O1_19 
ROOT
HETATM    1  C1  UNL     1      26.967  -2.037  52.518  1.00  0.00     0.048 C 
HETATM    2  C2  UNL     1      26.249  -0.739  52.624  1.00  0.00    -0.061 A 
HETATM    3  C3  UNL     1      25.074  -0.696  53.325  1.00  0.00     0.009 A 
HETATM    4  C4  UNL     1      24.369   0.468  53.456  1.00  0.00     0.038 A 
HETATM    5  C5  UNL     1      24.837   1.629  52.879  1.00  0.00     0.086 A 
HETATM    6  C6  UNL     1      26.018   1.583  52.175  1.00  0.00    -0.006 A 
HETATM    7  C7  UNL     1      26.757   0.403  52.027  1.00  0.00     0.018 A 
HETATM    8  C8  UNL     1      26.762   2.652  51.465  1.00  0.00     0.161 C 
HETATM    9  N1  UNL     1      25.896   3.556  50.759  1.00  0.00    -0.379 N 
HETATM   10  C9  UNL     1      24.601   4.111  51.011  1.00  0.00     0.129 A 
HETATM   11  C10 UNL     1      24.196   5.077  50.089  1.00  0.00     0.160 A 
HETATM   12  N3  UNL     1      22.970   5.647  50.239  1.00  0.00    -0.222 NA
HETATM   13  C17 UNL     1      22.192   5.265  51.267  1.00  0.00     0.238 A 
HETATM   14  N4  UNL     1      22.535   4.326  52.200  1.00  0.00    -0.215 NA
HETATM   15  C18 UNL     1      23.771   3.743  52.060  1.00  0.00     0.202 A 
HETATM   16  O2  UNL     1      24.059   2.788  53.054  1.00  0.00    -0.289 OA
HETATM   17  H9  UNL     1      26.302   3.896  49.836  1.00  0.00     0.160 HD
ENDROOT
BRANCH  11  18
HETATM   18  N2  UNL     1      25.107   5.437  49.051  1.00  0.00    -0.337 N 
HETATM   19  H10 UNL     1      25.740   4.890  48.421  1.00  0.00     0.167 HD
BRANCH  18  20
HETATM   20  C11 UNL     1      25.106   6.850  48.892  1.00  0.00     0.067 A 
HETATM   21  C12 UNL     1      24.501   7.342  47.739  1.00  0.00     0.032 A 
HETATM   22  C13 UNL     1      24.394   8.703  47.413  1.00  0.00     0.002 A 
HETATM   23  C14 UNL     1      24.943   9.595  48.333  1.00  0.00     0.003 A 
HETATM   24  C15 UNL     1      25.545   9.164  49.472  1.00  0.00     0.039 A 
HETATM   25  C16 UNL     1      25.607   7.839  49.712  1.00  0.00     0.092 A 
BRANCH  25  26
HETATM   26  O1  UNL     1      26.217   7.381  50.869  1.00  0.00    -0.358 OA
HETATM   27  H15 UNL     1      25.780   7.546  51.779  1.00  0.00     0.217 HD
ENDBRANCH  25  26
ENDBRANCH  18  20
ENDBRANCH  11  18
TORSDOF 3
ENDMDL
MODEL 7
REMARK VINA RESULT:      -8.3      3.144      5.495
REMARK  3 active torsions:
REMARK  status: ('A' for Active; 'I' for Inactive)
REMARK    1  A    between atoms: C10_11  and  N2_12 
REMARK    2  A    between atoms: N2_12  and  C11_13 
REMARK    3  A    between atoms: C16_18  and  O1_19 
ROOT
HETATM    1  C1  UNL     1      17.446  -0.279  52.296  1.00  0.00     0.048 C 
HETATM    2  C2  UNL     1      18.930  -0.200  52.330  1.00  0.00    -0.061 A 
HETATM    3  C3  UNL     1      19.581  -0.596  53.467  1.00  0.00     0.009 A 
HETATM    4  C4  UNL     1      20.943  -0.546  53.558  1.00  0.00     0.038 A 
HETATM    5  C5  UNL     1      21.692  -0.092  52.492  1.00  0.00     0.086 A 
HETATM    6  C6  UNL     1      21.036   0.306  51.351  1.00  0.00    -0.006 A 
HETATM    7  C7  UNL     1      19.640   0.264  51.236  1.00  0.00     0.018 A 
HETATM    8  C8  UNL     1      21.562   0.823  50.065  1.00  0.00     0.161 C 
HETATM    9  N1  UNL     1      22.669   1.722  50.238  1.00  0.00    -0.379 N 
HETATM   10  C9  UNL     1      23.774   1.794  51.145  1.00  0.00     0.129 A 
HETATM   11  C10 UNL     1      24.702   2.793  50.849  1.00  0.00     0.160 A 
HETATM   12  N3  UNL     1      25.777   2.946  51.668  1.00  0.00    -0.222 NA
HETATM   13  C17 UNL     1      25.911   2.134  52.732  1.00  0.00     0.238 A 
HETATM   14  N4  UNL     1      25.036   1.139  53.071  1.00  0.00    -0.215 NA
HETATM   15  C18 UNL     1      23.946   0.973  52.251  1.00  0.00     0.202 A 
HETATM   16  O2  UNL     1      23.088  -0.067  52.658  1.00  0.00    -0.289 OA
HETATM   17  H9  UNL     1      22.677   2.523  49.537  1.00  0.00     0.160 HD
ENDROOT
BRANCH  11  18
HETATM   18  N2  UNL     1      24.487   3.582  49.680  1.00  0.00    -0.337 N 
HETATM   19  H10 UNL     1      24.389   3.357  48.662  1.00  0.00     0.167 HD
BRANCH  18  20
HETATM   20  C11 UNL     1      24.399   4.953  50.047  1.00  0.00     0.067 A 
HETATM   21  C12 UNL     1      23.134   5.421  50.388  1.00  0.00     0.032 A 
HETATM   22  C13 UNL     1      22.850   6.738  50.785  1.00  0.00     0.002 A 
HETATM   23  C14 UNL     1      23.938   7.609  50.828  1.00  0.00     0.003 A 
HETATM   24  C15 UNL     1      25.192   7.200  50.504  1.00  0.00     0.039 A 
HETATM   25  C16 UNL     1      25.381   5.918  50.132  1.00  0.00     0.092 A 
BRANCH  25  26
HETATM   26  O1  UNL     1      26.653   5.483  49.796  1.00  0.00    -0.358 OA
HETATM   27  H15 UNL     1      26.918   5.385  48.813  1.00  0.00     0.217 HD
ENDBRANCH  25  26
ENDBRANCH  18  20
ENDBRANCH  11  18
TORSDOF 3
ENDMDL
MODEL 8
REMARK VINA RESULT:      -8.2      2.556      3.413
REMARK  3 active torsions:
REMARK  status: ('A' for Active; 'I' for Inactive)
REMARK    1  A    between atoms: C10_11  and  N2_12 
REMARK    2  A    between atoms: N2_12  and  C11_13 
REMARK    3  A    between atoms: C16_18  and  O1_19 
ROOT
HETATM    1  C1  UNL     1      16.487  -0.156  50.015  1.00  0.00     0.048 C 
HETATM    2  C2  UNL     1      17.503   0.711  50.667  1.00  0.00    -0.061 A 
HETATM    3  C3  UNL     1      17.172   2.008  50.951  1.00  0.00     0.009 A 
HETATM    4  C4  UNL     1      18.065   2.853  51.549  1.00  0.00     0.038 A 
HETATM    5  C5  UNL     1      19.327   2.406  51.879  1.00  0.00     0.086 A 
HETATM    6  C6  UNL     1      19.657   1.102  51.592  1.00  0.00    -0.006 A 
HETATM    7  C7  UNL     1      18.759   0.219  50.979  1.00  0.00     0.018 A 
HETATM    8  C8  UNL     1      20.912   0.348  51.831  1.00  0.00     0.161 C 
HETATM    9  N1  UNL     1      22.088   1.135  51.587  1.00  0.00    -0.379 N 
HETATM   10  C9  UNL     1      22.439   2.508  51.785  1.00  0.00     0.129 A 
HETATM   11  C10 UNL     1      23.775   2.809  51.520  1.00  0.00     0.160 A 
HETATM   12  N3  UNL     1      24.195   4.095  51.664  1.00  0.00    -0.222 NA
HETATM   13  C17 UNL     1      23.313   5.030  52.057  1.00  0.00     0.238 A 
HETATM   14  N4  UNL     1      21.994   4.795  52.332  1.00  0.00    -0.215 NA
HETATM   15  C18 UNL     1      21.558   3.501  52.191  1.00  0.00     0.202 A 
HETATM   16  O2  UNL     1      20.192   3.331  52.490  1.00  0.00    -0.289 OA
HETATM   17  H9  UNL     1      22.888   0.578  51.160  1.00  0.00     0.160 HD
ENDROOT
BRANCH  11  18
HETATM   18  N2  UNL     1      24.640   1.740  51.138  1.00  0.00    -0.337 N 
HETATM   19  H10 UNL     1      24.696   1.119  50.297  1.00  0.00     0.167 HD
BRANCH  18  20
HETATM   20  C11 UNL     1      25.605   1.526  52.160  1.00  0.00     0.067 A 
HETATM   21  C12 UNL     1      25.287   0.571  53.121  1.00  0.00     0.032 A 
HETATM   22  C13 UNL     1      26.114   0.217  54.198  1.00  0.00     0.002 A 
HETATM   23  C14 UNL     1      27.333   0.889  54.278  1.00  0.00     0.003 A 
HETATM   24  C15 UNL     1      27.689   1.829  53.365  1.00  0.00     0.039 A 
HETATM   25  C16 UNL     1      26.837   2.113  52.359  1.00  0.00     0.092 A 
BRANCH  25  26
HETATM   26  O1  UNL     1      27.184   3.070  51.418  1.00  0.00    -0.358 OA
HETATM   27  H15 UNL     1      27.935   2.884  50.750  1.00  0.00     0.217 HD
ENDBRANCH  25  26
ENDBRANCH  18  20
ENDBRANCH  11  18
TORSDOF 3
ENDMDL
MODEL 9
REMARK VINA RESULT:      -8.2      4.856      8.059
REMARK  3 active torsions:
REMARK  status: ('A' for Active; 'I' for Inactive)
REMARK    1  A    between atoms: C10_11  and  N2_12 
REMARK    2  A    between atoms: N2_12  and  C11_13 
REMARK    3  A    between atoms: C16_18  and  O1_19 
ROOT
HETATM    1  C1  UNL     1      28.792   9.742  47.995  1.00  0.00     0.048 C 
HETATM    2  C2  UNL     1      27.783   8.668  48.192  1.00  0.00    -0.061 A 
HETATM    3  C3  UNL     1      26.460   9.016  48.257  1.00  0.00     0.009 A 
HETATM    4  C4  UNL     1      25.487   8.073  48.437  1.00  0.00     0.038 A 
HETATM    5  C5  UNL     1      25.827   6.742  48.557  1.00  0.00     0.086 A 
HETATM    6  C6  UNL     1      27.156   6.395  48.492  1.00  0.00    -0.006 A 
HETATM    7  C7  UNL     1      28.170   7.344  48.308  1.00  0.00     0.018 A 
HETATM    8  C8  UNL     1      27.813   5.068  48.579  1.00  0.00     0.161 C 
HETATM    9  N1  UNL     1      27.211   4.214  49.564  1.00  0.00    -0.379 N 
HETATM   10  C9  UNL     1      25.874   3.994  50.023  1.00  0.00     0.129 A 
HETATM   11  C10 UNL     1      25.738   2.941  50.928  1.00  0.00     0.160 A 
HETATM   12  N3  UNL     1      24.504   2.671  51.432  1.00  0.00    -0.222 NA
HETATM   13  C17 UNL     1      23.459   3.422  51.043  1.00  0.00     0.238 A 
HETATM   14  N4  UNL     1      23.531   4.464  50.159  1.00  0.00    -0.215 NA
HETATM   15  C18 UNL     1      24.772   4.747  49.643  1.00  0.00     0.202 A 
HETATM   16  O2  UNL     1      24.773   5.829  48.742  1.00  0.00    -0.289 OA
HETATM   17  H9  UNL     1      27.914   3.599  50.076  1.00  0.00     0.160 HD
ENDROOT
BRANCH  11  18
HETATM   18  N2  UNL     1      26.902   2.182  51.254  1.00  0.00    -0.337 N 
HETATM   19  H10 UNL     1      27.870   2.135  50.858  1.00  0.00     0.167 HD
BRANCH  18  20
HETATM   20  C11 UNL     1      26.617   1.333  52.358  1.00  0.00     0.067 A 
HETATM   21  C12 UNL     1      26.178   0.048  52.053  1.00  0.00     0.032 A 
HETATM   22  C13 UNL     1      25.858  -0.932  53.004  1.00  0.00     0.002 A 
HETATM   23  C14 UNL     1      26.002  -0.557  54.339  1.00  0.00     0.003 A 
HETATM   24  C15 UNL     1      26.426   0.685  54.689  1.00  0.00     0.039 A 
HETATM   25  C16 UNL     1      26.714   1.571  53.714  1.00  0.00     0.092 A 
BRANCH  25  26
HETATM   26  O1  UNL     1      27.147   2.843  54.051  1.00  0.00    -0.358 OA
HETATM   27  H15 UNL     1      27.268   3.099  55.034  1.00  0.00     0.217 HD
ENDBRANCH  25  26
ENDBRANCH  18  20
ENDBRANCH  11  18
TORSDOF 3
ENDMDL
