MODEL 1
REMARK VINA RESULT:      -8.2      0.000      0.000
REMARK  2 active torsions:
REMARK  status: ('A' for Active; 'I' for Inactive)
REMARK    1  A    between atoms: C8_11  and  N4_12 
REMARK    2  A    between atoms: N4_12  and  C9_13 
ROOT
HETATM    1  C1  UNL     1      20.886  -1.591  54.220  1.00  0.00     0.044 C 
HETATM    2  C2  UNL     1      22.303  -1.150  54.306  1.00  0.00    -0.077 A 
HETATM    3  C3  UNL     1      22.932  -0.371  53.441  1.00  0.00     0.019 A 
HETATM    4  C4  UNL     1      24.304  -0.169  53.876  1.00  0.00     0.021 A 
HETATM    5  C5  UNL     1      24.473  -0.870  55.052  1.00  0.00     0.073 A 
HETATM    6  N1  UNL     1      25.687  -0.814  55.625  1.00  0.00    -0.152 NA
HETATM    7  N2  UNL     1      26.665  -0.115  55.075  1.00  0.00    -0.137 NA
HETATM    8  C6  UNL     1      26.527   0.579  53.925  1.00  0.00     0.186 A 
HETATM    9  C7  UNL     1      27.602   1.331  53.345  1.00  0.00     0.124 C 
HETATM   10  N3  UNL     1      28.461   1.937  52.859  1.00  0.00    -0.190 NA
HETATM   11  C8  UNL     1      25.305   0.570  53.277  1.00  0.00     0.086 A 
HETATM   12  C15 UNL     1      23.212  -1.554  55.427  1.00  0.00     0.096 A 
ENDROOT
BRANCH  11  13
HETATM   13  N4  UNL     1      25.148   1.295  52.067  1.00  0.00    -0.353 N 
HETATM   14  H5  UNL     1      25.617   0.739  51.334  1.00  0.00     0.166 HD
BRANCH  13  15
HETATM   15  C9  UNL     1      24.493   2.518  51.881  1.00  0.00     0.033 A 
HETATM   16  C10 UNL     1      24.173   3.281  52.987  1.00  0.00     0.029 A 
HETATM   17  C11 UNL     1      23.525   4.478  52.708  1.00  0.00     0.004 A 
HETATM   18  C12 UNL     1      23.219   4.887  51.433  1.00  0.00     0.019 A 
HETATM   19  C13 UNL     1      23.567   4.077  50.353  1.00  0.00     0.013 A 
HETATM   20 BR1  UNL     1      23.148   4.633  48.583  1.00  0.00    -0.051 Br
HETATM   21  C14 UNL     1      24.214   2.870  50.578  1.00  0.00     0.048 A 
ENDBRANCH  13  15
ENDBRANCH  11  13
TORSDOF 2
ENDMDL
MODEL 2
REMARK VINA RESULT:      -7.8      1.969      2.934
REMARK  2 active torsions:
REMARK  status: ('A' for Active; 'I' for Inactive)
REMARK    1  A    between atoms: C8_11  and  N4_12 
REMARK    2  A    between atoms: N4_12  and  C9_13 
ROOT
HETATM    1  C1  UNL     1      18.291   0.218  51.392  1.00  0.00     0.044 C 
HETATM    2  C2  UNL     1      19.460  -0.137  52.239  1.00  0.00    -0.077 A 
HETATM    3  C3  UNL     1      20.716   0.223  52.029  1.00  0.00     0.019 A 
HETATM    4  C4  UNL     1      21.561  -0.320  53.079  1.00  0.00     0.021 A 
HETATM    5  C5  UNL     1      20.749  -1.031  53.938  1.00  0.00     0.073 A 
HETATM    6  N1  UNL     1      21.342  -1.620  54.990  1.00  0.00    -0.152 NA
HETATM    7  N2  UNL     1      22.646  -1.515  55.179  1.00  0.00    -0.137 NA
HETATM    8  C6  UNL     1      23.464  -0.827  54.354  1.00  0.00     0.186 A 
HETATM    9  C7  UNL     1      24.878  -0.727  54.578  1.00  0.00     0.124 C 
HETATM   10  N3  UNL     1      26.021  -0.641  54.739  1.00  0.00    -0.190 NA
HETATM   11  C8  UNL     1      22.925  -0.193  53.249  1.00  0.00     0.086 A 
HETATM   12  C15 UNL     1      19.340  -0.974  53.478  1.00  0.00     0.096 A 
ENDROOT
BRANCH  11  13
HETATM   13  N4  UNL     1      23.775   0.532  52.374  1.00  0.00    -0.353 N 
HETATM   14  H5  UNL     1      24.451  -0.150  51.996  1.00  0.00     0.166 HD
BRANCH  13  15
HETATM   15  C9  UNL     1      23.725   1.898  52.069  1.00  0.00     0.033 A 
HETATM   16  C10 UNL     1      23.927   2.818  53.079  1.00  0.00     0.029 A 
HETATM   17  C11 UNL     1      23.859   4.148  52.685  1.00  0.00     0.004 A 
HETATM   18  C12 UNL     1      23.611   4.537  51.392  1.00  0.00     0.019 A 
HETATM   19  C13 UNL     1      23.414   3.565  50.411  1.00  0.00     0.013 A 
HETATM   20 BR1  UNL     1      23.068   4.091  48.617  1.00  0.00    -0.051 Br
HETATM   21  C14 UNL     1      23.471   2.221  50.753  1.00  0.00     0.048 A 
ENDBRANCH  13  15
ENDBRANCH  11  13
TORSDOF 2
ENDMDL
MODEL 3
REMARK VINA RESULT:      -7.6      3.352      6.847
REMARK  2 active torsions:
REMARK  status: ('A' for Active; 'I' for Inactive)
REMARK    1  A    between atoms: C8_11  and  N4_12 
REMARK    2  A    between atoms: N4_12  and  C9_13 
ROOT
HETATM    1  C1  UNL     1      27.559   4.846  48.619  1.00  0.00     0.044 C 
HETATM    2  C2  UNL     1      26.262   4.943  49.338  1.00  0.00    -0.077 A 
HETATM    3  C3  UNL     1      25.491   3.931  49.701  1.00  0.00     0.019 A 
HETATM    4  C4  UNL     1      24.311   4.436  50.383  1.00  0.00     0.021 A 
HETATM    5  C5  UNL     1      24.407   5.812  50.412  1.00  0.00     0.073 A 
HETATM    6  N1  UNL     1      23.403   6.480  51.006  1.00  0.00    -0.152 NA
HETATM    7  N2  UNL     1      22.377   5.835  51.532  1.00  0.00    -0.137 NA
HETATM    8  C6  UNL     1      22.257   4.490  51.516  1.00  0.00     0.186 A 
HETATM    9  C7  UNL     1      21.134   3.809  52.093  1.00  0.00     0.124 C 
HETATM   10  N3  UNL     1      20.231   3.244  52.548  1.00  0.00    -0.190 NA
HETATM   11  C8  UNL     1      23.252   3.733  50.923  1.00  0.00     0.086 A 
HETATM   12  C15 UNL     1      25.659   6.253  49.750  1.00  0.00     0.096 A 
ENDROOT
BRANCH  11  13
HETATM   13  N4  UNL     1      23.137   2.319  50.899  1.00  0.00    -0.353 N 
HETATM   14  H5  UNL     1      22.586   2.088  50.057  1.00  0.00     0.166 HD
BRANCH  13  15
HETATM   15  C9  UNL     1      23.657   1.403  51.821  1.00  0.00     0.033 A 
HETATM   16  C10 UNL     1      25.028   1.270  51.933  1.00  0.00     0.029 A 
HETATM   17  C11 UNL     1      25.453   0.338  52.872  1.00  0.00     0.004 A 
HETATM   18  C12 UNL     1      24.589  -0.405  53.639  1.00  0.00     0.019 A 
HETATM   19  C13 UNL     1      23.214  -0.229  53.484  1.00  0.00     0.013 A 
HETATM   20 BR1  UNL     1      22.008  -1.252  54.540  1.00  0.00    -0.051 Br
HETATM   21  C14 UNL     1      22.737   0.689  52.559  1.00  0.00     0.048 A 
ENDBRANCH  13  15
ENDBRANCH  11  13
TORSDOF 2
ENDMDL
MODEL 4
REMARK VINA RESULT:      -7.5      2.694      4.386
REMARK  2 active torsions:
REMARK  status: ('A' for Active; 'I' for Inactive)
REMARK    1  A    between atoms: C8_11  and  N4_12 
REMARK    2  A    between atoms: N4_12  and  C9_13 
ROOT
HETATM    1  C1  UNL     1      26.836   0.306  53.311  1.00  0.00     0.044 C 
HETATM    2  C2  UNL     1      25.437  -0.094  53.612  1.00  0.00    -0.077 A 
HETATM    3  C3  UNL     1      24.372   0.166  52.871  1.00  0.00     0.019 A 
HETATM    4  C4  UNL     1      23.189  -0.394  53.503  1.00  0.00     0.021 A 
HETATM    5  C5  UNL     1      23.595  -1.008  54.670  1.00  0.00     0.073 A 
HETATM    6  N1  UNL     1      22.641  -1.595  55.412  1.00  0.00    -0.152 NA
HETATM    7  N2  UNL     1      21.377  -1.576  55.030  1.00  0.00    -0.137 NA
HETATM    8  C6  UNL     1      20.952  -0.982  53.894  1.00  0.00     0.186 A 
HETATM    9  C7  UNL     1      19.573  -0.972  53.498  1.00  0.00     0.124 C 
HETATM   10  N3  UNL     1      18.464  -0.949  53.166  1.00  0.00    -0.190 NA
HETATM   11  C8  UNL     1      21.877  -0.356  53.077  1.00  0.00     0.086 A 
HETATM   12  C15 UNL     1      25.062  -0.871  54.839  1.00  0.00     0.096 A 
ENDROOT
BRANCH  11  13
HETATM   13  N4  UNL     1      21.443   0.273  51.881  1.00  0.00    -0.353 N 
HETATM   14  H5  UNL     1      21.149  -0.486  51.246  1.00  0.00     0.166 HD
BRANCH  13  15
HETATM   15  C9  UNL     1      21.411   1.643  51.598  1.00  0.00     0.033 A 
HETATM   16  C10 UNL     1      20.562   2.458  52.323  1.00  0.00     0.029 A 
HETATM   17  C11 UNL     1      20.597   3.802  51.974  1.00  0.00     0.004 A 
HETATM   18  C12 UNL     1      21.410   4.301  50.985  1.00  0.00     0.019 A 
HETATM   19  C13 UNL     1      22.247   3.432  50.285  1.00  0.00     0.013 A 
HETATM   20 BR1  UNL     1      23.377   4.111  48.913  1.00  0.00    -0.051 Br
HETATM   21  C14 UNL     1      22.250   2.080  50.595  1.00  0.00     0.048 A 
ENDBRANCH  13  15
ENDBRANCH  11  13
TORSDOF 2
ENDMDL
MODEL 5
REMARK VINA RESULT:      -7.4      3.160      5.225
REMARK  2 active torsions:
REMARK  status: ('A' for Active; 'I' for Inactive)
REMARK    1  A    between atoms: C8_11  and  N4_12 
REMARK    2  A    between atoms: N4_12  and  C9_13 
ROOT
HETATM    1  C1  UNL     1      26.121   3.670  49.990  1.00  0.00     0.044 C 
HETATM    2  C2  UNL     1      25.764   2.576  50.932  1.00  0.00    -0.077 A 
HETATM    3  C3  UNL     1      24.581   2.380  51.489  1.00  0.00     0.019 A 
HETATM    4  C4  UNL     1      24.634   1.207  52.346  1.00  0.00     0.021 A 
HETATM    5  C5  UNL     1      25.916   0.703  52.279  1.00  0.00     0.073 A 
HETATM    6  N1  UNL     1      26.178  -0.395  53.008  1.00  0.00    -0.152 NA
HETATM    7  N2  UNL     1      25.240  -0.955  53.751  1.00  0.00    -0.137 NA
HETATM    8  C6  UNL     1      23.979  -0.482  53.837  1.00  0.00     0.186 A 
HETATM    9  C7  UNL     1      22.975  -1.105  54.651  1.00  0.00     0.124 C 
HETATM   10  N3  UNL     1      22.155  -1.591  55.308  1.00  0.00    -0.190 NA
HETATM   11  C8  UNL     1      23.633   0.646  53.113  1.00  0.00     0.086 A 
HETATM   12  C15 UNL     1      26.746   1.531  51.371  1.00  0.00     0.096 A 
ENDROOT
BRANCH  11  13
HETATM   13  N4  UNL     1      22.310   1.152  53.195  1.00  0.00    -0.353 N 
HETATM   14  H5  UNL     1      22.290   1.776  54.018  1.00  0.00     0.166 HD
BRANCH  13  15
HETATM   15  C9  UNL     1      21.233   0.876  52.344  1.00  0.00     0.033 A 
HETATM   16  C10 UNL     1      21.296   1.292  51.028  1.00  0.00     0.029 A 
HETATM   17  C11 UNL     1      20.184   0.974  50.258  1.00  0.00     0.004 A 
HETATM   18  C12 UNL     1      19.095   0.299  50.753  1.00  0.00     0.019 A 
HETATM   19  C13 UNL     1      19.086  -0.097  52.090  1.00  0.00     0.013 A 
HETATM   20 BR1  UNL     1      17.583  -1.033  52.786  1.00  0.00    -0.051 Br
HETATM   21  C14 UNL     1      20.172   0.196  52.902  1.00  0.00     0.048 A 
ENDBRANCH  13  15
ENDBRANCH  11  13
TORSDOF 2
ENDMDL
MODEL 6
REMARK VINA RESULT:      -7.4      1.586      2.072
REMARK  2 active torsions:
REMARK  status: ('A' for Active; 'I' for Inactive)
REMARK    1  A    between atoms: C8_11  and  N4_12 
REMARK    2  A    between atoms: N4_12  and  C9_13 
ROOT
HETATM    1  C1  UNL     1      20.313   0.137  52.268  1.00  0.00     0.044 C 
HETATM    2  C2  UNL     1      21.738   0.210  52.682  1.00  0.00    -0.077 A 
HETATM    3  C3  UNL     1      22.516   1.278  52.621  1.00  0.00     0.019 A 
HETATM    4  C4  UNL     1      23.841   0.946  53.120  1.00  0.00     0.021 A 
HETATM    5  C5  UNL     1      23.824  -0.384  53.486  1.00  0.00     0.073 A 
HETATM    6  N1  UNL     1      24.965  -0.894  53.978  1.00  0.00    -0.152 NA
HETATM    7  N2  UNL     1      26.046  -0.144  54.099  1.00  0.00    -0.137 NA
HETATM    8  C6  UNL     1      26.091   1.158  53.748  1.00  0.00     0.186 A 
HETATM    9  C7  UNL     1      27.276   1.955  53.887  1.00  0.00     0.124 C 
HETATM   10  N3  UNL     1      28.226   2.610  53.987  1.00  0.00    -0.190 NA
HETATM   11  C8  UNL     1      24.953   1.755  53.234  1.00  0.00     0.086 A 
HETATM   12  C15 UNL     1      22.483  -0.967  53.240  1.00  0.00     0.096 A 
ENDROOT
BRANCH  11  13
HETATM   13  N4  UNL     1      24.988   3.124  52.860  1.00  0.00    -0.353 N 
HETATM   14  H5  UNL     1      25.005   3.663  53.741  1.00  0.00     0.166 HD
BRANCH  13  15
HETATM   15  C9  UNL     1      24.997   3.658  51.566  1.00  0.00     0.033 A 
HETATM   16  C10 UNL     1      25.883   3.148  50.637  1.00  0.00     0.029 A 
HETATM   17  C11 UNL     1      25.822   3.738  49.381  1.00  0.00     0.004 A 
HETATM   18  C12 UNL     1      24.951   4.753  49.069  1.00  0.00     0.019 A 
HETATM   19  C13 UNL     1      24.078   5.229  50.046  1.00  0.00     0.013 A 
HETATM   20 BR1  UNL     1      22.868   6.635  49.626  1.00  0.00    -0.051 Br
HETATM   21  C14 UNL     1      24.099   4.675  51.318  1.00  0.00     0.048 A 
ENDBRANCH  13  15
ENDBRANCH  11  13
TORSDOF 2
ENDMDL
MODEL 7
REMARK VINA RESULT:      -7.2      3.066      4.816
REMARK  2 active torsions:
REMARK  status: ('A' for Active; 'I' for Inactive)
REMARK    1  A    between atoms: C8_11  and  N4_12 
REMARK    2  A    between atoms: N4_12  and  C9_13 
ROOT
HETATM    1  C1  UNL     1      23.143  -1.609  55.259  1.00  0.00     0.044 C 
HETATM    2  C2  UNL     1      23.085  -0.520  54.250  1.00  0.00    -0.077 A 
HETATM    3  C3  UNL     1      24.074  -0.130  53.462  1.00  0.00     0.019 A 
HETATM    4  C4  UNL     1      23.622   0.961  52.615  1.00  0.00     0.021 A 
HETATM    5  C5  UNL     1      22.303   1.213  52.933  1.00  0.00     0.073 A 
HETATM    6  N1  UNL     1      21.691   2.198  52.255  1.00  0.00    -0.152 NA
HETATM    7  N2  UNL     1      22.335   2.886  51.329  1.00  0.00    -0.137 NA
HETATM    8  C6  UNL     1      23.625   2.662  50.999  1.00  0.00     0.186 A 
HETATM    9  C7  UNL     1      24.306   3.421  49.990  1.00  0.00     0.124 C 
HETATM   10  N3  UNL     1      24.873   4.029  49.184  1.00  0.00    -0.190 NA
HETATM   11  C8  UNL     1      24.322   1.662  51.654  1.00  0.00     0.086 A 
HETATM   12  C15 UNL     1      21.847   0.290  54.001  1.00  0.00     0.096 A 
ENDROOT
BRANCH  11  13
HETATM   13  N4  UNL     1      25.679   1.417  51.317  1.00  0.00    -0.353 N 
HETATM   14  H5  UNL     1      25.707   1.315  50.290  1.00  0.00     0.166 HD
BRANCH  13  15
HETATM   15  C9  UNL     1      26.774   1.328  52.185  1.00  0.00     0.033 A 
HETATM   16  C10 UNL     1      27.211   2.467  52.832  1.00  0.00     0.029 A 
HETATM   17  C11 UNL     1      28.302   2.284  53.672  1.00  0.00     0.004 A 
HETATM   18  C12 UNL     1      28.912   1.067  53.857  1.00  0.00     0.019 A 
HETATM   19  C13 UNL     1      28.428  -0.050  53.178  1.00  0.00     0.013 A 
HETATM   20 BR1  UNL     1      29.266  -1.740  53.425  1.00  0.00    -0.051 Br
HETATM   21  C14 UNL     1      27.341   0.079  52.326  1.00  0.00     0.048 A 
ENDBRANCH  13  15
ENDBRANCH  11  13
TORSDOF 2
ENDMDL
MODEL 8
REMARK VINA RESULT:      -6.9      2.581      4.285
REMARK  2 active torsions:
REMARK  status: ('A' for Active; 'I' for Inactive)
REMARK    1  A    between atoms: C8_11  and  N4_12 
REMARK    2  A    between atoms: N4_12  and  C9_13 
ROOT
HETATM    1  C1  UNL     1      27.768  -0.365  53.079  1.00  0.00     0.044 C 
HETATM    2  C2  UNL     1      26.342   0.036  52.949  1.00  0.00    -0.077 A 
HETATM    3  C3  UNL     1      25.817   0.747  51.965  1.00  0.00     0.019 A 
HETATM    4  C4  UNL     1      24.394   0.927  52.199  1.00  0.00     0.021 A 
HETATM    5  C5  UNL     1      24.085   0.287  53.380  1.00  0.00     0.073 A 
HETATM    6  N1  UNL     1      22.803   0.335  53.782  1.00  0.00    -0.152 NA
HETATM    7  N2  UNL     1      21.892   0.971  53.066  1.00  0.00    -0.137 NA
HETATM    8  C6  UNL     1      22.168   1.607  51.908  1.00  0.00     0.186 A 
HETATM    9  C7  UNL     1      21.163   2.293  51.147  1.00  0.00     0.124 C 
HETATM   10  N3  UNL     1      20.366   2.856  50.524  1.00  0.00    -0.190 NA
HETATM   11  C8  UNL     1      23.466   1.600  51.430  1.00  0.00     0.086 A 
HETATM   12  C15 UNL     1      25.299  -0.337  53.959  1.00  0.00     0.096 A 
ENDROOT
BRANCH  11  13
HETATM   13  N4  UNL     1      23.768   2.266  50.213  1.00  0.00    -0.353 N 
HETATM   14  H5  UNL     1      23.307   1.724  49.465  1.00  0.00     0.166 HD
BRANCH  13  15
HETATM   15  C9  UNL     1      24.534   3.424  50.039  1.00  0.00     0.033 A 
HETATM   16  C10 UNL     1      25.796   3.316  49.488  1.00  0.00     0.029 A 
HETATM   17  C11 UNL     1      26.484   4.516  49.353  1.00  0.00     0.004 A 
HETATM   18  C12 UNL     1      25.962   5.728  49.735  1.00  0.00     0.019 A 
HETATM   19  C13 UNL     1      24.682   5.778  50.286  1.00  0.00     0.013 A 
HETATM   20 BR1  UNL     1      23.950   7.451  50.819  1.00  0.00    -0.051 Br
HETATM   21  C14 UNL     1      23.954   4.608  50.443  1.00  0.00     0.048 A 
ENDBRANCH  13  15
ENDBRANCH  11  13
TORSDOF 2
ENDMDL
MODEL 9
REMARK VINA RESULT:      -6.6      2.228      3.191
REMARK  2 active torsions:
REMARK  status: ('A' for Active; 'I' for Inactive)
REMARK    1  A    between atoms: C8_11  and  N4_12 
REMARK    2  A    between atoms: N4_12  and  C9_13 
ROOT
HETATM    1  C1  UNL     1      17.996  -1.057  53.160  1.00  0.00     0.044 C 
HETATM    2  C2  UNL     1      19.445  -0.737  53.243  1.00  0.00    -0.077 A 
HETATM    3  C3  UNL     1      20.045   0.315  52.710  1.00  0.00     0.019 A 
HETATM    4  C4  UNL     1      21.466   0.274  53.013  1.00  0.00     0.021 A 
HETATM    5  C5  UNL     1      21.695  -0.863  53.761  1.00  0.00     0.073 A 
HETATM    6  N1  UNL     1      22.962  -1.090  54.149  1.00  0.00    -0.152 NA
HETATM    7  N2  UNL     1      23.932  -0.255  53.821  1.00  0.00    -0.137 NA
HETATM    8  C6  UNL     1      23.735   0.863  53.091  1.00  0.00     0.186 A 
HETATM    9  C7  UNL     1      24.803   1.757  52.746  1.00  0.00     0.124 C 
HETATM   10  N3  UNL     1      25.654   2.485  52.452  1.00  0.00    -0.190 NA
HETATM   11  C8  UNL     1      22.457   1.165  52.655  1.00  0.00     0.086 A 
HETATM   12  C15 UNL     1      20.428  -1.603  53.972  1.00  0.00     0.096 A 
ENDROOT
BRANCH  11  13
HETATM   13  N4  UNL     1      22.237   2.337  51.886  1.00  0.00    -0.353 N 
HETATM   14  H5  UNL     1      22.073   3.100  52.562  1.00  0.00     0.166 HD
BRANCH  13  15
HETATM   15  C9  UNL     1      22.238   2.458  50.491  1.00  0.00     0.033 A 
HETATM   16  C10 UNL     1      21.909   1.357  49.723  1.00  0.00     0.029 A 
HETATM   17  C11 UNL     1      21.937   1.569  48.350  1.00  0.00     0.004 A 
HETATM   18  C12 UNL     1      22.264   2.777  47.782  1.00  0.00     0.019 A 
HETATM   19  C13 UNL     1      22.588   3.854  48.606  1.00  0.00     0.013 A 
HETATM   20 BR1  UNL     1      23.044   5.530  47.832  1.00  0.00    -0.051 Br
HETATM   21  C14 UNL     1      22.576   3.695  49.985  1.00  0.00     0.048 A 
ENDBRANCH  13  15
ENDBRANCH  11  13
TORSDOF 2
ENDMDL
