MODEL 1
REMARK VINA RESULT:      -7.7      0.000      0.000
REMARK  7 active torsions:
REMARK  status: ('A' for Active; 'I' for Inactive)
REMARK    1  A    between atoms: C2_2  and  C3_3 
REMARK    2  A    between atoms: C3_3  and  C4_4 
REMARK    3  A    between atoms: C4_4  and  N1_5 
REMARK    4  A    between atoms: N1_5  and  C5_6 
REMARK       I    between atoms: N1_5  and  C13_15 
REMARK    5  A    between atoms: C5_6  and  C6_7 
REMARK    6  A    between atoms: C12_13  and  O1_14 
REMARK       I    between atoms: C13_15  and  N2_17 
REMARK    7  A    between atoms: N2_17  and  C14_18 
ROOT
HETATM    1  N1  UNL     1      25.525   3.550  50.586  1.00  0.00    -0.330 N 
HETATM    2  C13 UNL     1      26.164   2.678  51.533  1.00  0.00     0.323 C 
HETATM    3  O2  UNL     1      27.407   2.691  51.228  1.00  0.00    -0.247 OA
HETATM    4  N2  UNL     1      25.797   1.869  52.632  1.00  0.00    -0.309 N 
HETATM    5  H19 UNL     1      24.761   1.959  52.749  1.00  0.00     0.170 HD
ENDROOT
BRANCH   1   6
HETATM    6  C4  UNL     1      26.474   4.103  49.643  1.00  0.00     0.128 C 
BRANCH   6   7
HETATM    7  C3  UNL     1      25.963   5.350  48.972  1.00  0.00     0.020 C 
BRANCH   7   8
HETATM    8  C2  UNL     1      27.199   6.133  48.507  1.00  0.00    -0.003 C 
HETATM    9  C1  UNL     1      28.408   5.233  48.399  1.00  0.00     0.005 C 
ENDBRANCH   7   8
ENDBRANCH   6   7
ENDBRANCH   1   6
BRANCH   1  10
HETATM   10  C5  UNL     1      24.154   3.993  50.390  1.00  0.00     0.169 C 
BRANCH  10  11
HETATM   11  C6  UNL     1      23.218   2.939  50.003  1.00  0.00    -0.006 A 
HETATM   12  C7  UNL     1      22.993   2.802  48.626  1.00  0.00     0.012 A 
HETATM   13  C8  UNL     1      22.133   1.864  48.095  1.00  0.00     0.001 A 
HETATM   14  C9  UNL     1      21.446   1.005  48.937  1.00  0.00     0.009 A 
HETATM   15  C10 UNL     1      21.635   1.104  50.292  1.00  0.00    -0.028 A 
HETATM   16  C11 UNL     1      20.920   0.198  51.224  1.00  0.00     0.051 C 
HETATM   17  C12 UNL     1      22.501   2.053  50.765  1.00  0.00     0.079 A 
BRANCH  17  18
HETATM   18  O1  UNL     1      22.699   2.160  52.133  1.00  0.00    -0.360 OA
HETATM   19  H18 UNL     1      22.583   1.311  52.672  1.00  0.00     0.217 HD
ENDBRANCH  17  18
ENDBRANCH  10  11
ENDBRANCH   1  10
BRANCH   4  20
HETATM   20  C14 UNL     1      27.016   1.288  53.084  1.00  0.00     0.036 A 
HETATM   21  C15 UNL     1      27.122  -0.071  52.780  1.00  0.00     0.029 A 
HETATM   22  C16 UNL     1      28.257  -0.754  53.165  1.00  0.00     0.002 A 
HETATM   23  C17 UNL     1      29.219  -0.032  53.832  1.00  0.00     0.000 A 
HETATM   24  C18 UNL     1      29.147   1.307  54.147  1.00  0.00     0.002 A 
HETATM   25  C19 UNL     1      28.008   1.965  53.755  1.00  0.00     0.029 A 
ENDBRANCH   4  20
TORSDOF 7
ENDMDL
MODEL 2
REMARK VINA RESULT:      -7.6      2.083      5.049
REMARK  7 active torsions:
REMARK  status: ('A' for Active; 'I' for Inactive)
REMARK    1  A    between atoms: C2_2  and  C3_3 
REMARK    2  A    between atoms: C3_3  and  C4_4 
REMARK    3  A    between atoms: C4_4  and  N1_5 
REMARK    4  A    between atoms: N1_5  and  C5_6 
REMARK       I    between atoms: N1_5  and  C13_15 
REMARK    5  A    between atoms: C5_6  and  C6_7 
REMARK    6  A    between atoms: C12_13  and  O1_14 
REMARK       I    between atoms: C13_15  and  N2_17 
REMARK    7  A    between atoms: N2_17  and  C14_18 
ROOT
HETATM    1  N1  UNL     1      23.352   0.364  53.486  1.00  0.00    -0.330 N 
HETATM    2  C13 UNL     1      24.785   0.328  53.412  1.00  0.00     0.323 C 
HETATM    3  O2  UNL     1      25.132  -0.768  53.976  1.00  0.00    -0.247 OA
HETATM    4  N2  UNL     1      25.834   1.134  52.913  1.00  0.00    -0.309 N 
HETATM    5  H19 UNL     1      25.395   1.986  52.493  1.00  0.00     0.170 HD
ENDROOT
BRANCH   1   6
HETATM    6  C4  UNL     1      22.821  -0.800  54.164  1.00  0.00     0.128 C 
BRANCH   6   7
HETATM    7  C3  UNL     1      21.466  -0.547  54.771  1.00  0.00     0.020 C 
BRANCH   7   8
HETATM    8  C2  UNL     1      20.503  -1.552  54.121  1.00  0.00    -0.003 C 
HETATM    9  C1  UNL     1      19.358  -0.846  53.432  1.00  0.00     0.005 C 
ENDBRANCH   7   8
ENDBRANCH   6   7
ENDBRANCH   1   6
BRANCH   1  10
HETATM   10  C5  UNL     1      22.341   1.302  53.020  1.00  0.00     0.169 C 
BRANCH  10  11
HETATM   11  C6  UNL     1      22.383   1.586  51.587  1.00  0.00    -0.006 A 
HETATM   12  C7  UNL     1      21.541   0.800  50.787  1.00  0.00     0.012 A 
HETATM   13  C8  UNL     1      21.468   0.933  49.416  1.00  0.00     0.001 A 
HETATM   14  C9  UNL     1      22.250   1.878  48.773  1.00  0.00     0.009 A 
HETATM   15  C10 UNL     1      23.088   2.670  49.517  1.00  0.00    -0.028 A 
HETATM   16  C11 UNL     1      23.937   3.697  48.863  1.00  0.00     0.051 C 
HETATM   17  C12 UNL     1      23.121   2.496  50.874  1.00  0.00     0.079 A 
BRANCH  17  18
HETATM   18  O1  UNL     1      23.965   3.292  51.634  1.00  0.00    -0.360 OA
HETATM   19  H18 UNL     1      23.519   3.973  52.236  1.00  0.00     0.217 HD
ENDBRANCH  17  18
ENDBRANCH  10  11
ENDBRANCH   1  10
BRANCH   4  20
HETATM   20  C14 UNL     1      27.026   0.415  53.216  1.00  0.00     0.036 A 
HETATM   21  C15 UNL     1      27.835   1.064  54.151  1.00  0.00     0.029 A 
HETATM   22  C16 UNL     1      29.022   0.473  54.530  1.00  0.00     0.002 A 
HETATM   23  C17 UNL     1      29.327  -0.736  53.949  1.00  0.00     0.000 A 
HETATM   24  C18 UNL     1      28.552  -1.403  53.025  1.00  0.00     0.002 A 
HETATM   25  C19 UNL     1      27.376  -0.795  52.663  1.00  0.00     0.029 A 
ENDBRANCH   4  20
TORSDOF 7
ENDMDL
MODEL 3
REMARK VINA RESULT:      -7.2      2.397      7.054
REMARK  7 active torsions:
REMARK  status: ('A' for Active; 'I' for Inactive)
REMARK    1  A    between atoms: C2_2  and  C3_3 
REMARK    2  A    between atoms: C3_3  and  C4_4 
REMARK    3  A    between atoms: C4_4  and  N1_5 
REMARK    4  A    between atoms: N1_5  and  C5_6 
REMARK       I    between atoms: N1_5  and  C13_15 
REMARK    5  A    between atoms: C5_6  and  C6_7 
REMARK    6  A    between atoms: C12_13  and  O1_14 
REMARK       I    between atoms: C13_15  and  N2_17 
REMARK    7  A    between atoms: N2_17  and  C14_18 
ROOT
HETATM    1  N1  UNL     1      23.762   0.220  53.143  1.00  0.00    -0.330 N 
HETATM    2  C13 UNL     1      23.909   1.513  52.535  1.00  0.00     0.323 C 
HETATM    3  O2  UNL     1      22.886   1.656  51.779  1.00  0.00    -0.247 OA
HETATM    4  N2  UNL     1      24.827   2.587  52.556  1.00  0.00    -0.309 N 
HETATM    5  H19 UNL     1      25.601   2.318  53.207  1.00  0.00     0.170 HD
ENDROOT
BRANCH   1   6
HETATM    6  C4  UNL     1      22.561  -0.451  52.690  1.00  0.00     0.128 C 
BRANCH   6   7
HETATM    7  C3  UNL     1      21.837  -1.156  53.806  1.00  0.00     0.020 C 
BRANCH   7   8
HETATM    8  C2  UNL     1      20.650  -0.260  54.190  1.00  0.00    -0.003 C 
HETATM    9  C1  UNL     1      19.857   0.150  52.970  1.00  0.00     0.005 C 
ENDBRANCH   7   8
ENDBRANCH   6   7
ENDBRANCH   1   6
BRANCH   1  10
HETATM   10  C5  UNL     1      24.545  -0.536  54.108  1.00  0.00     0.169 C 
BRANCH  10  11
HETATM   11  C6  UNL     1      25.983  -0.556  53.849  1.00  0.00    -0.006 A 
HETATM   12  C7  UNL     1      26.448  -1.638  53.087  1.00  0.00     0.012 A 
HETATM   13  C8  UNL     1      27.777  -1.812  52.762  1.00  0.00     0.001 A 
HETATM   14  C9  UNL     1      28.718  -0.891  53.193  1.00  0.00     0.009 A 
HETATM   15  C10 UNL     1      28.307   0.183  53.941  1.00  0.00    -0.028 A 
HETATM   16  C11 UNL     1      29.286   1.192  54.417  1.00  0.00     0.051 C 
HETATM   17  C12 UNL     1      26.976   0.307  54.235  1.00  0.00     0.079 A 
BRANCH  17  18
HETATM   18  O1  UNL     1      26.552   1.390  54.990  1.00  0.00    -0.360 OA
HETATM   19  H18 UNL     1      26.029   1.176  55.830  1.00  0.00     0.217 HD
ENDBRANCH  17  18
ENDBRANCH  10  11
ENDBRANCH   1  10
BRANCH   4  20
HETATM   20  C14 UNL     1      24.279   3.557  51.669  1.00  0.00     0.036 A 
HETATM   21  C15 UNL     1      24.721   3.408  50.352  1.00  0.00     0.029 A 
HETATM   22  C16 UNL     1      24.265   4.286  49.392  1.00  0.00     0.002 A 
HETATM   23  C17 UNL     1      23.391   5.263  49.810  1.00  0.00     0.000 A 
HETATM   24  C18 UNL     1      22.935   5.438  51.098  1.00  0.00     0.002 A 
HETATM   25  C19 UNL     1      23.403   4.552  52.036  1.00  0.00     0.029 A 
ENDBRANCH   4  20
TORSDOF 7
ENDMDL
MODEL 4
REMARK VINA RESULT:      -7.1      2.379      7.127
REMARK  7 active torsions:
REMARK  status: ('A' for Active; 'I' for Inactive)
REMARK    1  A    between atoms: C2_2  and  C3_3 
REMARK    2  A    between atoms: C3_3  and  C4_4 
REMARK    3  A    between atoms: C4_4  and  N1_5 
REMARK    4  A    between atoms: N1_5  and  C5_6 
REMARK       I    between atoms: N1_5  and  C13_15 
REMARK    5  A    between atoms: C5_6  and  C6_7 
REMARK    6  A    between atoms: C12_13  and  O1_14 
REMARK       I    between atoms: C13_15  and  N2_17 
REMARK    7  A    between atoms: N2_17  and  C14_18 
ROOT
HETATM    1  N1  UNL     1      23.730   0.233  53.147  1.00  0.00    -0.330 N 
HETATM    2  C13 UNL     1      23.930   1.452  52.414  1.00  0.00     0.323 C 
HETATM    3  O2  UNL     1      22.868   1.612  51.717  1.00  0.00    -0.247 OA
HETATM    4  N2  UNL     1      24.925   2.445  52.276  1.00  0.00    -0.309 N 
HETATM    5  H19 UNL     1      25.722   2.172  52.896  1.00  0.00     0.170 HD
ENDROOT
BRANCH   1   6
HETATM    6  C4  UNL     1      22.453  -0.375  52.838  1.00  0.00     0.128 C 
BRANCH   6   7
HETATM    7  C3  UNL     1      21.851  -1.088  54.019  1.00  0.00     0.020 C 
BRANCH   7   8
HETATM    8  C2  UNL     1      20.329  -1.061  53.816  1.00  0.00    -0.003 C 
HETATM    9  C1  UNL     1      19.923   0.044  52.867  1.00  0.00     0.005 C 
ENDBRANCH   7   8
ENDBRANCH   6   7
ENDBRANCH   1   6
BRANCH   1  10
HETATM   10  C5  UNL     1      24.523  -0.497  54.125  1.00  0.00     0.169 C 
BRANCH  10  11
HETATM   11  C6  UNL     1      25.959  -0.523  53.854  1.00  0.00    -0.006 A 
HETATM   12  C7  UNL     1      26.414  -1.611  53.095  1.00  0.00     0.012 A 
HETATM   13  C8  UNL     1      27.740  -1.790  52.760  1.00  0.00     0.001 A 
HETATM   14  C9  UNL     1      28.687  -0.870  53.177  1.00  0.00     0.009 A 
HETATM   15  C10 UNL     1      28.286   0.210  53.922  1.00  0.00    -0.028 A 
HETATM   16  C11 UNL     1      29.271   1.220  54.383  1.00  0.00     0.051 C 
HETATM   17  C12 UNL     1      26.957   0.340  54.226  1.00  0.00     0.079 A 
BRANCH  17  18
HETATM   18  O1  UNL     1      26.542   1.429  54.977  1.00  0.00    -0.360 OA
HETATM   19  H18 UNL     1      25.688   1.882  54.679  1.00  0.00     0.217 HD
ENDBRANCH  17  18
ENDBRANCH  10  11
ENDBRANCH   1  10
BRANCH   4  20
HETATM   20  C14 UNL     1      24.388   3.376  51.341  1.00  0.00     0.036 A 
HETATM   21  C15 UNL     1      23.691   4.423  51.947  1.00  0.00     0.029 A 
HETATM   22  C16 UNL     1      23.120   5.393  51.151  1.00  0.00     0.002 A 
HETATM   23  C17 UNL     1      23.282   5.256  49.792  1.00  0.00     0.000 A 
HETATM   24  C18 UNL     1      23.963   4.237  49.162  1.00  0.00     0.002 A 
HETATM   25  C19 UNL     1      24.522   3.284  49.975  1.00  0.00     0.029 A 
ENDBRANCH   4  20
TORSDOF 7
ENDMDL
MODEL 5
REMARK VINA RESULT:      -6.9      2.023      5.421
REMARK  7 active torsions:
REMARK  status: ('A' for Active; 'I' for Inactive)
REMARK    1  A    between atoms: C2_2  and  C3_3 
REMARK    2  A    between atoms: C3_3  and  C4_4 
REMARK    3  A    between atoms: C4_4  and  N1_5 
REMARK    4  A    between atoms: N1_5  and  C5_6 
REMARK       I    between atoms: N1_5  and  C13_15 
REMARK    5  A    between atoms: C5_6  and  C6_7 
REMARK    6  A    between atoms: C12_13  and  O1_14 
REMARK       I    between atoms: C13_15  and  N2_17 
REMARK    7  A    between atoms: N2_17  and  C14_18 
ROOT
HETATM    1  N1  UNL     1      25.685   0.900  52.618  1.00  0.00    -0.330 N 
HETATM    2  C13 UNL     1      25.637   1.972  51.664  1.00  0.00     0.323 C 
HETATM    3  O2  UNL     1      26.493   2.833  52.069  1.00  0.00    -0.247 OA
HETATM    4  N2  UNL     1      24.936   2.296  50.480  1.00  0.00    -0.309 N 
HETATM    5  H19 UNL     1      24.277   1.507  50.286  1.00  0.00     0.170 HD
ENDROOT
BRANCH   1   6
HETATM    6  C4  UNL     1      26.638   1.167  53.675  1.00  0.00     0.128 C 
BRANCH   6   7
HETATM    7  C3  UNL     1      27.419  -0.058  54.072  1.00  0.00     0.020 C 
BRANCH   7   8
HETATM    8  C2  UNL     1      28.695  -0.057  53.218  1.00  0.00    -0.003 C 
HETATM    9  C1  UNL     1      29.757  -0.950  53.820  1.00  0.00     0.005 C 
ENDBRANCH   7   8
ENDBRANCH   6   7
ENDBRANCH   1   6
BRANCH   1  10
HETATM   10  C5  UNL     1      24.999  -0.378  52.735  1.00  0.00     0.169 C 
BRANCH  10  11
HETATM   11  C6  UNL     1      23.639  -0.298  53.265  1.00  0.00    -0.006 A 
HETATM   12  C7  UNL     1      23.448  -0.860  54.535  1.00  0.00     0.012 A 
HETATM   13  C8  UNL     1      22.225  -0.876  55.173  1.00  0.00     0.001 A 
HETATM   14  C9  UNL     1      21.118  -0.319  54.555  1.00  0.00     0.009 A 
HETATM   15  C10 UNL     1      21.260   0.242  53.311  1.00  0.00    -0.028 A 
HETATM   16  C11 UNL     1      20.097   0.853  52.620  1.00  0.00     0.051 C 
HETATM   17  C12 UNL     1      22.496   0.232  52.723  1.00  0.00     0.079 A 
BRANCH  17  18
HETATM   18  O1  UNL     1      22.649   0.798  51.467  1.00  0.00    -0.360 OA
HETATM   19  H18 UNL     1      22.355   1.762  51.369  1.00  0.00     0.217 HD
ENDBRANCH  17  18
ENDBRANCH  10  11
ENDBRANCH   1  10
BRANCH   4  20
HETATM   20  C14 UNL     1      25.447   3.566  50.087  1.00  0.00     0.036 A 
HETATM   21  C15 UNL     1      26.625   3.476  49.342  1.00  0.00     0.029 A 
HETATM   22  C16 UNL     1      27.224   4.637  48.899  1.00  0.00     0.002 A 
HETATM   23  C17 UNL     1      26.605   5.820  49.230  1.00  0.00     0.000 A 
HETATM   24  C18 UNL     1      25.445   5.944  49.961  1.00  0.00     0.002 A 
HETATM   25  C19 UNL     1      24.867   4.775  50.391  1.00  0.00     0.029 A 
ENDBRANCH   4  20
TORSDOF 7
ENDMDL
MODEL 6
REMARK VINA RESULT:      -6.9      1.946      6.037
REMARK  7 active torsions:
REMARK  status: ('A' for Active; 'I' for Inactive)
REMARK    1  A    between atoms: C2_2  and  C3_3 
REMARK    2  A    between atoms: C3_3  and  C4_4 
REMARK    3  A    between atoms: C4_4  and  N1_5 
REMARK    4  A    between atoms: N1_5  and  C5_6 
REMARK       I    between atoms: N1_5  and  C13_15 
REMARK    5  A    between atoms: C5_6  and  C6_7 
REMARK    6  A    between atoms: C12_13  and  O1_14 
REMARK       I    between atoms: C13_15  and  N2_17 
REMARK    7  A    between atoms: N2_17  and  C14_18 
ROOT
HETATM    1  N1  UNL     1      25.049   2.492  51.906  1.00  0.00    -0.330 N 
HETATM    2  C13 UNL     1      24.074   1.518  52.309  1.00  0.00     0.323 C 
HETATM    3  O2  UNL     1      23.007   2.181  52.559  1.00  0.00    -0.247 OA
HETATM    4  N2  UNL     1      23.997   0.118  52.489  1.00  0.00    -0.309 N 
HETATM    5  H19 UNL     1      24.937  -0.275  52.254  1.00  0.00     0.170 HD
ENDROOT
BRANCH   1   6
HETATM    6  C4  UNL     1      24.509   3.835  51.939  1.00  0.00     0.128 C 
BRANCH   6   7
HETATM    7  C3  UNL     1      24.655   4.549  50.621  1.00  0.00     0.020 C 
BRANCH   7   8
HETATM    8  C2  UNL     1      23.321   4.376  49.881  1.00  0.00    -0.003 C 
HETATM    9  C1  UNL     1      23.392   3.242  48.884  1.00  0.00     0.005 C 
ENDBRANCH   7   8
ENDBRANCH   6   7
ENDBRANCH   1   6
BRANCH   1  10
HETATM   10  C5  UNL     1      26.434   2.411  51.468  1.00  0.00     0.169 C 
BRANCH  10  11
HETATM   11  C6  UNL     1      27.318   1.669  52.366  1.00  0.00    -0.006 A 
HETATM   12  C7  UNL     1      28.073   2.448  53.254  1.00  0.00     0.012 A 
HETATM   13  C8  UNL     1      28.962   1.906  54.159  1.00  0.00     0.001 A 
HETATM   14  C9  UNL     1      29.137   0.533  54.215  1.00  0.00     0.009 A 
HETATM   15  C10 UNL     1      28.418  -0.267  53.363  1.00  0.00    -0.028 A 
HETATM   16  C11 UNL     1      28.575  -1.743  53.398  1.00  0.00     0.051 C 
HETATM   17  C12 UNL     1      27.549   0.323  52.485  1.00  0.00     0.079 A 
BRANCH  17  18
HETATM   18  O1  UNL     1      26.818  -0.478  51.621  1.00  0.00    -0.360 OA
HETATM   19  H18 UNL     1      26.289   0.001  50.904  1.00  0.00     0.217 HD
ENDBRANCH  17  18
ENDBRANCH  10  11
ENDBRANCH   1  10
BRANCH   4  20
HETATM   20  C14 UNL     1      22.660  -0.125  52.916  1.00  0.00     0.036 A 
HETATM   21  C15 UNL     1      22.577  -0.548  54.245  1.00  0.00     0.029 A 
HETATM   22  C16 UNL     1      21.336  -0.818  54.783  1.00  0.00     0.002 A 
HETATM   23  C17 UNL     1      20.251  -0.649  53.955  1.00  0.00     0.000 A 
HETATM   24  C18 UNL     1      20.297  -0.234  52.643  1.00  0.00     0.002 A 
HETATM   25  C19 UNL     1      21.542   0.029  52.130  1.00  0.00     0.029 A 
ENDBRANCH   4  20
TORSDOF 7
ENDMDL
MODEL 7
REMARK VINA RESULT:      -6.9      1.625      6.555
REMARK  7 active torsions:
REMARK  status: ('A' for Active; 'I' for Inactive)
REMARK    1  A    between atoms: C2_2  and  C3_3 
REMARK    2  A    between atoms: C3_3  and  C4_4 
REMARK    3  A    between atoms: C4_4  and  N1_5 
REMARK    4  A    between atoms: N1_5  and  C5_6 
REMARK       I    between atoms: N1_5  and  C13_15 
REMARK    5  A    between atoms: C5_6  and  C6_7 
REMARK    6  A    between atoms: C12_13  and  O1_14 
REMARK       I    between atoms: C13_15  and  N2_17 
REMARK    7  A    between atoms: N2_17  and  C14_18 
ROOT
HETATM    1  N1  UNL     1      23.723   1.986  51.791  1.00  0.00    -0.330 N 
HETATM    2  C13 UNL     1      24.111   3.243  51.215  1.00  0.00     0.323 C 
HETATM    3  O2  UNL     1      23.479   3.323  50.105  1.00  0.00    -0.247 OA
HETATM    4  N2  UNL     1      24.952   4.332  51.535  1.00  0.00    -0.309 N 
HETATM    5  H19 UNL     1      25.399   4.117  52.457  1.00  0.00     0.170 HD
ENDROOT
BRANCH   1   6
HETATM    6  C4  UNL     1      22.799   1.268  50.937  1.00  0.00     0.128 C 
BRANCH   6   7
HETATM    7  C3  UNL     1      21.644   0.679  51.703  1.00  0.00     0.020 C 
BRANCH   7   8
HETATM    8  C2  UNL     1      20.479   0.558  50.709  1.00  0.00    -0.003 C 
HETATM    9  C1  UNL     1      20.842   1.150  49.366  1.00  0.00     0.005 C 
ENDBRANCH   7   8
ENDBRANCH   6   7
ENDBRANCH   1   6
BRANCH   1  10
HETATM   10  C5  UNL     1      24.048   1.303  53.034  1.00  0.00     0.169 C 
BRANCH  10  11
HETATM   11  C6  UNL     1      25.434   0.854  53.143  1.00  0.00    -0.006 A 
HETATM   12  C7  UNL     1      25.668  -0.484  52.792  1.00  0.00     0.012 A 
HETATM   13  C8  UNL     1      26.916  -1.067  52.847  1.00  0.00     0.001 A 
HETATM   14  C9  UNL     1      28.007  -0.323  53.265  1.00  0.00     0.009 A 
HETATM   15  C10 UNL     1      27.824   0.990  53.618  1.00  0.00    -0.028 A 
HETATM   16  C11 UNL     1      28.969   1.821  54.066  1.00  0.00     0.051 C 
HETATM   17  C12 UNL     1      26.564   1.520  53.544  1.00  0.00     0.079 A 
BRANCH  17  18
HETATM   18  O1  UNL     1      26.369   2.846  53.898  1.00  0.00    -0.360 OA
HETATM   19  H18 UNL     1      26.904   3.533  53.382  1.00  0.00     0.217 HD
ENDBRANCH  17  18
ENDBRANCH  10  11
ENDBRANCH   1  10
BRANCH   4  20
HETATM   20  C14 UNL     1      24.814   5.237  50.445  1.00  0.00     0.036 A 
HETATM   21  C15 UNL     1      25.895   5.202  49.561  1.00  0.00     0.029 A 
HETATM   22  C16 UNL     1      25.885   6.033  48.461  1.00  0.00     0.002 A 
HETATM   23  C17 UNL     1      24.789   6.852  48.311  1.00  0.00     0.000 A 
HETATM   24  C18 UNL     1      23.708   6.911  49.162  1.00  0.00     0.002 A 
HETATM   25  C19 UNL     1      23.741   6.075  50.250  1.00  0.00     0.029 A 
ENDBRANCH   4  20
TORSDOF 7
ENDMDL
MODEL 8
REMARK VINA RESULT:      -6.6      1.290      2.043
REMARK  7 active torsions:
REMARK  status: ('A' for Active; 'I' for Inactive)
REMARK    1  A    between atoms: C2_2  and  C3_3 
REMARK    2  A    between atoms: C3_3  and  C4_4 
REMARK    3  A    between atoms: C4_4  and  N1_5 
REMARK    4  A    between atoms: N1_5  and  C5_6 
REMARK       I    between atoms: N1_5  and  C13_15 
REMARK    5  A    between atoms: C5_6  and  C6_7 
REMARK    6  A    between atoms: C12_13  and  O1_14 
REMARK       I    between atoms: C13_15  and  N2_17 
REMARK    7  A    between atoms: N2_17  and  C14_18 
ROOT
HETATM    1  N1  UNL     1      25.560   3.639  50.473  1.00  0.00    -0.330 N 
HETATM    2  C13 UNL     1      25.966   2.618  51.398  1.00  0.00     0.323 C 
HETATM    3  O2  UNL     1      27.124   2.239  51.007  1.00  0.00    -0.247 OA
HETATM    4  N2  UNL     1      25.450   1.972  52.544  1.00  0.00    -0.309 N 
HETATM    5  H19 UNL     1      24.506   2.382  52.731  1.00  0.00     0.170 HD
ENDROOT
BRANCH   1   6
HETATM    6  C4  UNL     1      26.559   3.861  49.449  1.00  0.00     0.128 C 
BRANCH   6   7
HETATM    7  C3  UNL     1      26.564   5.280  48.944  1.00  0.00     0.020 C 
BRANCH   7   8
HETATM    8  C2  UNL     1      27.986   5.557  48.436  1.00  0.00    -0.003 C 
HETATM    9  C1  UNL     1      28.104   6.958  47.878  1.00  0.00     0.005 C 
ENDBRANCH   7   8
ENDBRANCH   6   7
ENDBRANCH   1   6
BRANCH   1  10
HETATM   10  C5  UNL     1      24.384   4.488  50.360  1.00  0.00     0.169 C 
BRANCH  10  11
HETATM   11  C6  UNL     1      23.112   3.809  50.602  1.00  0.00    -0.006 A 
HETATM   12  C7  UNL     1      22.460   4.149  51.796  1.00  0.00     0.012 A 
HETATM   13  C8  UNL     1      21.258   3.593  52.179  1.00  0.00     0.001 A 
HETATM   14  C9  UNL     1      20.643   2.653  51.369  1.00  0.00     0.009 A 
HETATM   15  C10 UNL     1      21.247   2.290  50.191  1.00  0.00    -0.028 A 
HETATM   16  C11 UNL     1      20.616   1.290  49.294  1.00  0.00     0.051 C 
HETATM   17  C12 UNL     1      22.440   2.874  49.858  1.00  0.00     0.079 A 
BRANCH  17  18
HETATM   18  O1  UNL     1      23.056   2.514  48.670  1.00  0.00    -0.360 OA
HETATM   19  H18 UNL     1      23.959   2.933  48.487  1.00  0.00     0.217 HD
ENDBRANCH  17  18
ENDBRANCH  10  11
ENDBRANCH   1  10
BRANCH   4  20
HETATM   20  C14 UNL     1      26.459   1.042  52.927  1.00  0.00     0.036 A 
HETATM   21  C15 UNL     1      27.403   1.586  53.802  1.00  0.00     0.029 A 
HETATM   22  C16 UNL     1      28.435   0.788  54.248  1.00  0.00     0.002 A 
HETATM   23  C17 UNL     1      28.460  -0.509  53.791  1.00  0.00     0.000 A 
HETATM   24  C18 UNL     1      27.547  -1.076  52.930  1.00  0.00     0.002 A 
HETATM   25  C19 UNL     1      26.529  -0.263  52.499  1.00  0.00     0.029 A 
ENDBRANCH   4  20
TORSDOF 7
ENDMDL
MODEL 9
REMARK VINA RESULT:      -6.5      2.175      4.844
REMARK  7 active torsions:
REMARK  status: ('A' for Active; 'I' for Inactive)
REMARK    1  A    between atoms: C2_2  and  C3_3 
REMARK    2  A    between atoms: C3_3  and  C4_4 
REMARK    3  A    between atoms: C4_4  and  N1_5 
REMARK    4  A    between atoms: N1_5  and  C5_6 
REMARK       I    between atoms: N1_5  and  C13_15 
REMARK    5  A    between atoms: C5_6  and  C6_7 
REMARK    6  A    between atoms: C12_13  and  O1_14 
REMARK       I    between atoms: C13_15  and  N2_17 
REMARK    7  A    between atoms: N2_17  and  C14_18 
ROOT
HETATM    1  N1  UNL     1      23.092   1.632  52.700  1.00  0.00    -0.330 N 
HETATM    2  C13 UNL     1      24.476   1.291  52.874  1.00  0.00     0.323 C 
HETATM    3  O2  UNL     1      24.489   0.045  53.169  1.00  0.00    -0.247 OA
HETATM    4  N2  UNL     1      25.734   1.931  52.806  1.00  0.00    -0.309 N 
HETATM    5  H19 UNL     1      25.557   2.934  52.564  1.00  0.00     0.170 HD
ENDROOT
BRANCH   1   6
HETATM    6  C4  UNL     1      22.227   0.494  52.931  1.00  0.00     0.128 C 
BRANCH   6   7
HETATM    7  C3  UNL     1      20.907   0.885  53.540  1.00  0.00     0.020 C 
BRANCH   7   8
HETATM    8  C2  UNL     1      19.829   0.083  52.796  1.00  0.00    -0.003 C 
HETATM    9  C1  UNL     1      19.844   0.389  51.315  1.00  0.00     0.005 C 
ENDBRANCH   7   8
ENDBRANCH   6   7
ENDBRANCH   1   6
BRANCH   1  10
HETATM   10  C5  UNL     1      22.393   2.855  52.337  1.00  0.00     0.169 C 
BRANCH  10  11
HETATM   11  C6  UNL     1      23.048   3.651  51.301  1.00  0.00    -0.006 A 
HETATM   12  C7  UNL     1      22.993   3.123  50.004  1.00  0.00     0.012 A 
HETATM   13  C8  UNL     1      23.569   3.744  48.915  1.00  0.00     0.001 A 
HETATM   14  C9  UNL     1      24.239   4.944  49.081  1.00  0.00     0.009 A 
HETATM   15  C10 UNL     1      24.318   5.498  50.334  1.00  0.00    -0.028 A 
HETATM   16  C11 UNL     1      25.023   6.785  50.550  1.00  0.00     0.051 C 
HETATM   17  C12 UNL     1      23.728   4.840  51.380  1.00  0.00     0.079 A 
BRANCH  17  18
HETATM   18  O1  UNL     1      23.801   5.392  52.650  1.00  0.00    -0.360 OA
HETATM   19  H18 UNL     1      24.414   6.190  52.758  1.00  0.00     0.217 HD
ENDBRANCH  17  18
ENDBRANCH  10  11
ENDBRANCH   1  10
BRANCH   4  20
HETATM   20  C14 UNL     1      26.682   0.912  53.107  1.00  0.00     0.036 A 
HETATM   21  C15 UNL     1      27.384   1.147  54.292  1.00  0.00     0.029 A 
HETATM   22  C16 UNL     1      28.334   0.234  54.697  1.00  0.00     0.002 A 
HETATM   23  C17 UNL     1      28.526  -0.863  53.889  1.00  0.00     0.000 A 
HETATM   24  C18 UNL     1      27.852  -1.125  52.716  1.00  0.00     0.002 A 
HETATM   25  C19 UNL     1      26.912  -0.202  52.334  1.00  0.00     0.029 A 
ENDBRANCH   4  20
TORSDOF 7
ENDMDL
