MODEL 1
REMARK VINA RESULT:      -8.4      0.000      0.000
REMARK  4 active torsions:
REMARK  status: ('A' for Active; 'I' for Inactive)
REMARK    1  A    between atoms: C2_2  and  C3_3 
REMARK    2  A    between atoms: C2_2  and  N1_8 
REMARK    3  A    between atoms: C3_3  and  C4_4 
REMARK    4  A    between atoms: N1_8  and  C6_9 
ROOT
HETATM    1  C6  UNL     1      25.716   3.227  50.046  1.00  0.00     0.130 C 
HETATM    2  C7  UNL     1      24.247   2.853  50.117  1.00  0.00     0.003 C 
HETATM    3  C8  UNL     1      23.528   2.474  51.183  1.00  0.00     0.009 C 
HETATM    4  C9  UNL     1      23.655   2.241  52.651  1.00  0.00    -0.009 C 
HETATM    5  C10 UNL     1      24.497   3.014  53.373  1.00  0.00     0.094 C 
HETATM    6  N2  UNL     1      25.632   2.378  53.375  1.00  0.00    -0.251 NA
HETATM    7  C11 UNL     1      26.345   1.851  52.223  1.00  0.00     0.034 C 
HETATM    8  C12 UNL     1      26.479   2.272  50.945  1.00  0.00     0.029 C 
HETATM    9  C13 UNL     1      27.134   0.590  52.303  1.00  0.00     0.064 C 
HETATM   10  C14 UNL     1      26.125  -0.465  52.684  1.00  0.00     0.006 C 
HETATM   11  C15 UNL     1      25.107   0.402  52.722  1.00  0.00     0.036 C 
HETATM   12  C16 UNL     1      23.700   0.185  53.029  1.00  0.00    -0.019 A 
HETATM   13 BR1  UNL     1      22.006  -0.626  53.528  1.00  0.00    -0.121 Br
HETATM   14  C17 UNL     1      22.794   1.113  53.027  1.00  0.00     0.122 A 
ENDROOT
BRANCH   1  15
HETATM   15  N1  UNL     1      25.823   4.551  50.610  1.00  0.00    -0.380 N 
HETATM   16  H6  UNL     1      26.039   4.686  51.620  1.00  0.00     0.160 HD
BRANCH  15  17
HETATM   17  C2  UNL     1      25.668   5.772  49.921  1.00  0.00     0.015 C 
HETATM   18  C1  UNL     1      24.991   6.763  50.463  1.00  0.00     0.042 C 
BRANCH  17  19
HETATM   19  C3  UNL     1      26.196   6.112  48.636  1.00  0.00     0.008 C 
BRANCH  19  20
HETATM   20  C4  UNL     1      27.451   6.262  48.357  1.00  0.00     0.030 A 
HETATM   21  C5  UNL     1      28.843   6.018  48.143  1.00  0.00    -0.003 A 
HETATM   22  O1  UNL     1      28.357   4.894  48.497  1.00  0.00     0.000 OA
HETATM   23  O2  UNL     1      29.697   4.961  48.220  1.00  0.00     0.000 OA
HETATM   24  H5  UNL     1      30.662   5.133  47.943  1.00  0.00     0.000 HD
ENDBRANCH  19  20
ENDBRANCH  17  19
ENDBRANCH  15  17
ENDBRANCH   1  15
TORSDOF 4
ENDMDL
MODEL 2
REMARK VINA RESULT:      -8.0      2.101      2.896
REMARK  4 active torsions:
REMARK  status: ('A' for Active; 'I' for Inactive)
REMARK    1  A    between atoms: C2_2  and  C3_3 
REMARK    2  A    between atoms: C2_2  and  N1_8 
REMARK    3  A    between atoms: C3_3  and  C4_4 
REMARK    4  A    between atoms: N1_8  and  C6_9 
ROOT
HETATM    1  C6  UNL     1      25.823   3.165  49.979  1.00  0.00     0.130 C 
HETATM    2  C7  UNL     1      24.344   2.831  50.013  1.00  0.00     0.003 C 
HETATM    3  C8  UNL     1      23.581   2.505  51.067  1.00  0.00     0.009 C 
HETATM    4  C9  UNL     1      23.656   2.318  52.545  1.00  0.00    -0.009 C 
HETATM    5  C10 UNL     1      24.495   3.091  53.269  1.00  0.00     0.094 C 
HETATM    6  N2  UNL     1      25.612   2.427  53.328  1.00  0.00    -0.251 NA
HETATM    7  C11 UNL     1      26.347   1.845  52.218  1.00  0.00     0.034 C 
HETATM    8  C12 UNL     1      26.532   2.221  50.931  1.00  0.00     0.029 C 
HETATM    9  C13 UNL     1      27.099   0.567  52.363  1.00  0.00     0.064 C 
HETATM   10  C14 UNL     1      26.051  -0.448  52.744  1.00  0.00     0.006 C 
HETATM   11  C15 UNL     1      25.055   0.445  52.722  1.00  0.00     0.036 C 
HETATM   12  C16 UNL     1      23.634   0.274  52.990  1.00  0.00    -0.019 A 
HETATM   13 BR1  UNL     1      21.904  -0.476  53.459  1.00  0.00    -0.121 Br
HETATM   14  C17 UNL     1      22.753   1.225  52.929  1.00  0.00     0.122 A 
ENDROOT
BRANCH   1  15
HETATM   15  N1  UNL     1      25.948   4.504  50.503  1.00  0.00    -0.380 N 
HETATM   16  H6  UNL     1      26.094   4.666  51.522  1.00  0.00     0.160 HD
BRANCH  15  17
HETATM   17  C2  UNL     1      25.900   5.702  49.763  1.00  0.00     0.015 C 
HETATM   18  C1  UNL     1      26.724   5.899  48.756  1.00  0.00     0.042 C 
BRANCH  17  19
HETATM   19  C3  UNL     1      25.005   6.803  49.956  1.00  0.00     0.008 C 
BRANCH  19  20
HETATM   20  C4  UNL     1      23.744   6.705  50.227  1.00  0.00     0.030 A 
HETATM   21  C5  UNL     1      22.503   6.407  50.870  1.00  0.00    -0.003 A 
HETATM   22  O1  UNL     1      23.402   5.953  51.652  1.00  0.00     0.000 OA
HETATM   23  O2  UNL     1      22.089   5.806  52.020  1.00  0.00     0.000 OA
HETATM   24  H5  UNL     1      21.087   5.802  52.197  1.00  0.00     0.000 HD
ENDBRANCH  19  20
ENDBRANCH  17  19
ENDBRANCH  15  17
ENDBRANCH   1  15
TORSDOF 4
ENDMDL
MODEL 3
REMARK VINA RESULT:      -7.9      1.757      2.103
REMARK  4 active torsions:
REMARK  status: ('A' for Active; 'I' for Inactive)
REMARK    1  A    between atoms: C2_2  and  C3_3 
REMARK    2  A    between atoms: C2_2  and  N1_8 
REMARK    3  A    between atoms: C3_3  and  C4_4 
REMARK    4  A    between atoms: N1_8  and  C6_9 
ROOT
HETATM    1  C6  UNL     1      25.688   3.337  50.005  1.00  0.00     0.130 C 
HETATM    2  C7  UNL     1      24.230   2.925  50.069  1.00  0.00     0.003 C 
HETATM    3  C8  UNL     1      23.520   2.510  51.129  1.00  0.00     0.009 C 
HETATM    4  C9  UNL     1      23.653   2.256  52.593  1.00  0.00    -0.009 C 
HETATM    5  C10 UNL     1      24.475   3.039  53.327  1.00  0.00     0.094 C 
HETATM    6  N2  UNL     1      25.625   2.432  53.320  1.00  0.00    -0.251 NA
HETATM    7  C11 UNL     1      26.352   1.943  52.160  1.00  0.00     0.034 C 
HETATM    8  C12 UNL     1      26.475   2.388  50.888  1.00  0.00     0.029 C 
HETATM    9  C13 UNL     1      27.173   0.701  52.220  1.00  0.00     0.064 C 
HETATM   10  C14 UNL     1      26.192  -0.385  52.583  1.00  0.00     0.006 C 
HETATM   11  C15 UNL     1      25.152   0.454  52.635  1.00  0.00     0.036 C 
HETATM   12  C16 UNL     1      23.751   0.196  52.938  1.00  0.00    -0.019 A 
HETATM   13 BR1  UNL     1      22.078  -0.666  53.422  1.00  0.00    -0.121 Br
HETATM   14  C17 UNL     1      22.821   1.101  52.951  1.00  0.00     0.122 A 
ENDROOT
BRANCH   1  15
HETATM   15  N1  UNL     1      25.761   4.654  50.591  1.00  0.00    -0.380 N 
HETATM   16  H6  UNL     1      25.786   4.779  51.624  1.00  0.00     0.160 HD
BRANCH  15  17
HETATM   17  C2  UNL     1      25.813   5.880  49.895  1.00  0.00     0.015 C 
HETATM   18  C1  UNL     1      26.250   5.925  48.654  1.00  0.00     0.042 C 
BRANCH  17  19
HETATM   19  C3  UNL     1      25.412   7.166  50.378  1.00  0.00     0.008 C 
BRANCH  19  20
HETATM   20  C4  UNL     1      25.790   8.302  49.887  1.00  0.00     0.030 A 
HETATM   21  C5  UNL     1      26.505   9.515  49.642  1.00  0.00    -0.003 A 
HETATM   22  O1  UNL     1      27.122   8.952  50.605  1.00  0.00     0.000 OA
HETATM   23  O2  UNL     1      27.594  10.155  50.149  1.00  0.00     0.000 OA
HETATM   24  H5  UNL     1      27.868  11.022  49.690  1.00  0.00     0.000 HD
ENDBRANCH  19  20
ENDBRANCH  17  19
ENDBRANCH  15  17
ENDBRANCH   1  15
TORSDOF 4
ENDMDL
MODEL 4
REMARK VINA RESULT:      -7.8      3.665      6.125
REMARK  4 active torsions:
REMARK  status: ('A' for Active; 'I' for Inactive)
REMARK    1  A    between atoms: C2_2  and  C3_3 
REMARK    2  A    between atoms: C2_2  and  N1_8 
REMARK    3  A    between atoms: C3_3  and  C4_4 
REMARK    4  A    between atoms: N1_8  and  C6_9 
ROOT
HETATM    1  C6  UNL     1      25.623   2.409  52.863  1.00  0.00     0.130 C 
HETATM    2  C7  UNL     1      24.551   3.394  53.289  1.00  0.00     0.003 C 
HETATM    3  C8  UNL     1      23.568   3.935  52.555  1.00  0.00     0.009 C 
HETATM    4  C9  UNL     1      23.002   3.920  51.174  1.00  0.00    -0.009 C 
HETATM    5  C10 UNL     1      23.041   2.776  50.456  1.00  0.00     0.094 C 
HETATM    6  N2  UNL     1      24.154   2.828  49.785  1.00  0.00    -0.251 NA
HETATM    7  C11 UNL     1      25.482   3.101  50.308  1.00  0.00     0.034 C 
HETATM    8  C12 UNL     1      26.095   2.810  51.479  1.00  0.00     0.029 C 
HETATM    9  C13 UNL     1      26.494   3.854  49.515  1.00  0.00     0.064 C 
HETATM   10  C14 UNL     1      25.859   5.201  49.271  1.00  0.00     0.006 C 
HETATM   11  C15 UNL     1      24.739   4.887  49.933  1.00  0.00     0.036 C 
HETATM   12  C16 UNL     1      23.543   5.679  50.181  1.00  0.00    -0.019 A 
HETATM   13 BR1  UNL     1      22.223   7.105  50.196  1.00  0.00    -0.121 Br
HETATM   14  C17 UNL     1      22.511   5.266  50.850  1.00  0.00     0.122 A 
ENDROOT
BRANCH   1  15
HETATM   15  N1  UNL     1      24.972   1.125  52.757  1.00  0.00    -0.380 N 
HETATM   16  H6  UNL     1      23.987   1.051  52.429  1.00  0.00     0.160 HD
BRANCH  15  17
HETATM   17  C2  UNL     1      25.540  -0.130  53.056  1.00  0.00     0.015 C 
HETATM   18  C1  UNL     1      25.151  -0.804  54.119  1.00  0.00     0.042 C 
BRANCH  17  19
HETATM   19  C3  UNL     1      26.536  -0.831  52.304  1.00  0.00     0.008 C 
BRANCH  19  20
HETATM   20  C4  UNL     1      27.664  -1.259  52.770  1.00  0.00     0.030 A 
HETATM   21  C5  UNL     1      28.712  -2.103  53.253  1.00  0.00    -0.003 A 
HETATM   22  O1  UNL     1      27.747  -2.890  52.983  1.00  0.00     0.000 OA
HETATM   23  O2  UNL     1      28.906  -3.432  53.473  1.00  0.00     0.000 OA
HETATM   24  H5  UNL     1      29.831  -3.711  53.796  1.00  0.00     0.000 HD
ENDBRANCH  19  20
ENDBRANCH  17  19
ENDBRANCH  15  17
ENDBRANCH   1  15
TORSDOF 4
ENDMDL
MODEL 5
REMARK VINA RESULT:      -7.7      3.917      6.039
REMARK  4 active torsions:
REMARK  status: ('A' for Active; 'I' for Inactive)
REMARK    1  A    between atoms: C2_2  and  C3_3 
REMARK    2  A    between atoms: C2_2  and  N1_8 
REMARK    3  A    between atoms: C3_3  and  C4_4 
REMARK    4  A    between atoms: N1_8  and  C6_9 
ROOT
HETATM    1  C6  UNL     1      23.563   1.573  52.948  1.00  0.00     0.130 C 
HETATM    2  C7  UNL     1      22.570   0.464  53.236  1.00  0.00     0.003 C 
HETATM    3  C8  UNL     1      21.531   0.053  52.494  1.00  0.00     0.009 C 
HETATM    4  C9  UNL     1      20.840   0.332  51.201  1.00  0.00    -0.009 C 
HETATM    5  C10 UNL     1      21.568   0.733  50.135  1.00  0.00     0.094 C 
HETATM    6  N2  UNL     1      21.569   2.032  50.187  1.00  0.00    -0.251 NA
HETATM    7  C11 UNL     1      21.908   2.865  51.329  1.00  0.00     0.034 C 
HETATM    8  C12 UNL     1      22.796   2.733  52.340  1.00  0.00     0.029 C 
HETATM    9  C13 UNL     1      21.218   4.161  51.582  1.00  0.00     0.064 C 
HETATM   10  C14 UNL     1      19.766   3.791  51.754  1.00  0.00     0.006 C 
HETATM   11  C15 UNL     1      19.989   2.485  51.567  1.00  0.00     0.036 C 
HETATM   12  C16 UNL     1      19.060   1.364  51.571  1.00  0.00    -0.019 A 
HETATM   13 BR1  UNL     1      17.449   0.280  51.653  1.00  0.00    -0.121 Br
HETATM   14  C17 UNL     1      19.398   0.126  51.382  1.00  0.00     0.122 A 
ENDROOT
BRANCH   1  15
HETATM   15  N1  UNL     1      24.463   1.059  51.943  1.00  0.00    -0.380 N 
HETATM   16  H6  UNL     1      24.098   0.667  51.050  1.00  0.00     0.160 HD
BRANCH  15  17
HETATM   17  C2  UNL     1      25.870   1.023  52.018  1.00  0.00     0.015 C 
HETATM   18  C1  UNL     1      26.596   1.924  51.390  1.00  0.00     0.042 C 
BRANCH  17  19
HETATM   19  C3  UNL     1      26.674   0.089  52.746  1.00  0.00     0.008 C 
BRANCH  19  20
HETATM   20  C4  UNL     1      26.776  -1.175  52.486  1.00  0.00     0.030 A 
HETATM   21  C5  UNL     1      27.233  -2.528  52.438  1.00  0.00    -0.003 A 
HETATM   22  O1  UNL     1      28.085  -1.913  53.160  1.00  0.00     0.000 OA
HETATM   23  O2  UNL     1      28.272  -3.252  52.937  1.00  0.00     0.000 OA
HETATM   24  H5  UNL     1      28.271  -4.250  52.736  1.00  0.00     0.000 HD
ENDBRANCH  19  20
ENDBRANCH  17  19
ENDBRANCH  15  17
ENDBRANCH   1  15
TORSDOF 4
ENDMDL
MODEL 6
REMARK VINA RESULT:      -7.5      3.976      6.499
REMARK  4 active torsions:
REMARK  status: ('A' for Active; 'I' for Inactive)
REMARK    1  A    between atoms: C2_2  and  C3_3 
REMARK    2  A    between atoms: C2_2  and  N1_8 
REMARK    3  A    between atoms: C3_3  and  C4_4 
REMARK    4  A    between atoms: N1_8  and  C6_9 
ROOT
HETATM    1  C6  UNL     1      24.795   1.909  52.558  1.00  0.00     0.130 C 
HETATM    2  C7  UNL     1      24.179   3.178  53.116  1.00  0.00     0.003 C 
HETATM    3  C8  UNL     1      23.555   4.168  52.460  1.00  0.00     0.009 C 
HETATM    4  C9  UNL     1      23.138   4.572  51.086  1.00  0.00    -0.009 C 
HETATM    5  C10 UNL     1      22.768   3.620  50.200  1.00  0.00     0.094 C 
HETATM    6  N2  UNL     1      23.856   3.303  49.561  1.00  0.00    -0.251 NA
HETATM    7  C11 UNL     1      25.138   2.937  50.139  1.00  0.00     0.034 C 
HETATM    8  C12 UNL     1      25.492   2.266  51.259  1.00  0.00     0.029 C 
HETATM    9  C13 UNL     1      26.424   3.311  49.486  1.00  0.00     0.064 C 
HETATM   10  C14 UNL     1      26.403   4.819  49.443  1.00  0.00     0.006 C 
HETATM   11  C15 UNL     1      25.206   4.904  50.033  1.00  0.00     0.036 C 
HETATM   12  C16 UNL     1      24.412   6.073  50.383  1.00  0.00    -0.019 A 
HETATM   13 BR1  UNL     1      23.779   7.898  50.599  1.00  0.00    -0.121 Br
HETATM   14  C17 UNL     1      23.254   6.030  50.966  1.00  0.00     0.122 A 
ENDROOT
BRANCH   1  15
HETATM   15  N1  UNL     1      23.694   1.030  52.246  1.00  0.00    -0.380 N 
HETATM   16  H6  UNL     1      23.471   0.784  51.259  1.00  0.00     0.160 HD
BRANCH  15  17
HETATM   17  C2  UNL     1      22.825   0.413  53.169  1.00  0.00     0.015 C 
HETATM   18  C1  UNL     1      23.248  -0.582  53.922  1.00  0.00     0.042 C 
BRANCH  17  19
HETATM   19  C3  UNL     1      21.461   0.752  53.433  1.00  0.00     0.008 C 
BRANCH  19  20
HETATM   20  C4  UNL     1      20.659   1.335  52.601  1.00  0.00     0.030 A 
HETATM   21  C5  UNL     1      19.819   2.295  51.956  1.00  0.00    -0.003 A 
HETATM   22  O1  UNL     1      20.260   2.882  52.997  1.00  0.00     0.000 OA
HETATM   23  O2  UNL     1      19.414   3.577  52.171  1.00  0.00     0.000 OA
HETATM   24  H5  UNL     1      18.821   3.994  51.456  1.00  0.00     0.000 HD
ENDBRANCH  19  20
ENDBRANCH  17  19
ENDBRANCH  15  17
ENDBRANCH   1  15
TORSDOF 4
ENDMDL
MODEL 7
REMARK VINA RESULT:      -7.4      1.492      2.701
REMARK  4 active torsions:
REMARK  status: ('A' for Active; 'I' for Inactive)
REMARK    1  A    between atoms: C2_2  and  C3_3 
REMARK    2  A    between atoms: C2_2  and  N1_8 
REMARK    3  A    between atoms: C3_3  and  C4_4 
REMARK    4  A    between atoms: N1_8  and  C6_9 
ROOT
HETATM    1  C6  UNL     1      23.633   5.716  50.971  1.00  0.00     0.130 C 
HETATM    2  C7  UNL     1      23.350   5.083  52.319  1.00  0.00     0.003 C 
HETATM    3  C8  UNL     1      23.668   3.854  52.754  1.00  0.00     0.009 C 
HETATM    4  C9  UNL     1      24.356   2.605  52.314  1.00  0.00    -0.009 C 
HETATM    5  C10 UNL     1      25.420   2.692  51.485  1.00  0.00     0.094 C 
HETATM    6  N2  UNL     1      24.929   2.608  50.284  1.00  0.00    -0.251 NA
HETATM    7  C11 UNL     1      23.832   3.383  49.727  1.00  0.00     0.034 C 
HETATM    8  C12 UNL     1      23.413   4.656  49.908  1.00  0.00     0.029 C 
HETATM    9  C13 UNL     1      22.879   2.793  48.746  1.00  0.00     0.064 C 
HETATM   10  C14 UNL     1      22.241   1.641  49.482  1.00  0.00     0.006 C 
HETATM   11  C15 UNL     1      22.943   1.856  50.600  1.00  0.00     0.036 C 
HETATM   12  C16 UNL     1      22.928   1.143  51.869  1.00  0.00    -0.019 A 
HETATM   13 BR1  UNL     1      22.545  -0.131  53.286  1.00  0.00    -0.121 Br
HETATM   14  C17 UNL     1      23.659   1.451  52.896  1.00  0.00     0.122 A 
ENDROOT
BRANCH   1  15
HETATM   15  N1  UNL     1      25.035   6.060  50.972  1.00  0.00    -0.380 N 
HETATM   16  H6  UNL     1      25.633   5.859  51.800  1.00  0.00     0.160 HD
BRANCH  15  17
HETATM   17  C2  UNL     1      25.749   6.671  49.922  1.00  0.00     0.015 C 
HETATM   18  C1  UNL     1      25.924   7.976  49.903  1.00  0.00     0.042 C 
BRANCH  17  19
HETATM   19  C3  UNL     1      26.370   6.024  48.806  1.00  0.00     0.008 C 
BRANCH  19  20
HETATM   20  C4  UNL     1      27.590   6.209  48.416  1.00  0.00     0.030 A 
HETATM   21  C5  UNL     1      28.962   6.003  48.074  1.00  0.00    -0.003 A 
HETATM   22  O1  UNL     1      28.540   4.866  48.463  1.00  0.00     0.000 OA
HETATM   23  O2  UNL     1      29.848   4.969  48.066  1.00  0.00     0.000 OA
HETATM   24  H5  UNL     1      30.778   5.169  47.704  1.00  0.00     0.000 HD
ENDBRANCH  19  20
ENDBRANCH  17  19
ENDBRANCH  15  17
ENDBRANCH   1  15
TORSDOF 4
ENDMDL
MODEL 8
REMARK VINA RESULT:      -7.4      4.301      6.627
REMARK  4 active torsions:
REMARK  status: ('A' for Active; 'I' for Inactive)
REMARK    1  A    between atoms: C2_2  and  C3_3 
REMARK    2  A    between atoms: C2_2  and  N1_8 
REMARK    3  A    between atoms: C3_3  and  C4_4 
REMARK    4  A    between atoms: N1_8  and  C6_9 
ROOT
HETATM    1  C6  UNL     1      22.395   1.184  50.996  1.00  0.00     0.130 C 
HETATM    2  C7  UNL     1      23.295   0.470  51.986  1.00  0.00     0.003 C 
HETATM    3  C8  UNL     1      24.256   0.982  52.768  1.00  0.00     0.009 C 
HETATM    4  C9  UNL     1      24.909   2.278  53.114  1.00  0.00    -0.009 C 
HETATM    5  C10 UNL     1      24.173   3.411  53.111  1.00  0.00     0.094 C 
HETATM    6  N2  UNL     1      24.293   3.898  51.912  1.00  0.00    -0.251 NA
HETATM    7  C11 UNL     1      24.084   3.198  50.655  1.00  0.00     0.034 C 
HETATM    8  C12 UNL     1      23.236   2.218  50.271  1.00  0.00     0.029 C 
HETATM    9  C13 UNL     1      24.900   3.504  49.447  1.00  0.00     0.064 C 
HETATM   10  C14 UNL     1      26.319   3.200  49.860  1.00  0.00     0.006 C 
HETATM   11  C15 UNL     1      25.970   2.834  51.098  1.00  0.00     0.036 C 
HETATM   12  C16 UNL     1      26.792   2.373  52.208  1.00  0.00    -0.019 A 
HETATM   13 BR1  UNL     1      28.299   1.860  53.322  1.00  0.00    -0.121 Br
HETATM   14  C17 UNL     1      26.334   2.035  53.374  1.00  0.00     0.122 A 
ENDROOT
BRANCH   1  15
HETATM   15  N1  UNL     1      21.407   1.885  51.781  1.00  0.00    -0.380 N 
HETATM   16  H6  UNL     1      21.574   2.861  52.103  1.00  0.00     0.160 HD
BRANCH  15  17
HETATM   17  C2  UNL     1      20.154   1.386  52.191  1.00  0.00     0.015 C 
HETATM   18  C1  UNL     1      19.046   1.814  51.622  1.00  0.00     0.042 C 
BRANCH  17  19
HETATM   19  C3  UNL     1      19.903   0.397  53.194  1.00  0.00     0.008 C 
BRANCH  19  20
HETATM   20  C4  UNL     1      20.715   0.074  54.148  1.00  0.00     0.030 A 
HETATM   21  C5  UNL     1      21.573  -0.662  55.022  1.00  0.00    -0.003 A 
HETATM   22  O1  UNL     1      21.147  -1.515  54.176  1.00  0.00     0.000 OA
HETATM   23  O2  UNL     1      22.006  -1.947  55.154  1.00  0.00     0.000 OA
HETATM   24  H5  UNL     1      22.680  -2.127  55.895  1.00  0.00     0.000 HD
ENDBRANCH  19  20
ENDBRANCH  17  19
ENDBRANCH  15  17
ENDBRANCH   1  15
TORSDOF 4
ENDMDL
MODEL 9
REMARK VINA RESULT:      -7.4      3.841      6.555
REMARK  4 active torsions:
REMARK  status: ('A' for Active; 'I' for Inactive)
REMARK    1  A    between atoms: C2_2  and  C3_3 
REMARK    2  A    between atoms: C2_2  and  N1_8 
REMARK    3  A    between atoms: C3_3  and  C4_4 
REMARK    4  A    between atoms: N1_8  and  C6_9 
ROOT
HETATM    1  C6  UNL     1      26.380   3.201  49.623  1.00  0.00     0.130 C 
HETATM    2  C7  UNL     1      27.103   4.357  48.960  1.00  0.00     0.003 C 
HETATM    3  C8  UNL     1      26.752   5.651  48.912  1.00  0.00     0.009 C 
HETATM    4  C9  UNL     1      25.687   6.587  49.379  1.00  0.00    -0.009 C 
HETATM    5  C10 UNL     1      25.091   6.368  50.572  1.00  0.00     0.094 C 
HETATM    6  N2  UNL     1      24.051   5.633  50.308  1.00  0.00    -0.251 NA
HETATM    7  C11 UNL     1      24.019   4.404  49.534  1.00  0.00     0.034 C 
HETATM    8  C12 UNL     1      24.894   3.384  49.378  1.00  0.00     0.029 C 
HETATM    9  C13 UNL     1      22.854   4.052  48.675  1.00  0.00     0.064 C 
HETATM   10  C14 UNL     1      22.767   5.177  47.673  1.00  0.00     0.006 C 
HETATM   11  C15 UNL     1      23.820   5.825  48.183  1.00  0.00     0.036 C 
HETATM   12  C16 UNL     1      24.439   7.078  47.774  1.00  0.00    -0.019 A 
HETATM   13 BR1  UNL     1      24.843   8.745  46.861  1.00  0.00    -0.121 Br
HETATM   14  C17 UNL     1      25.474   7.611  48.348  1.00  0.00     0.122 A 
ENDROOT
BRANCH   1  15
HETATM   15  N1  UNL     1      26.617   3.334  51.040  1.00  0.00    -0.380 N 
HETATM   16  H6  UNL     1      27.003   4.218  51.436  1.00  0.00     0.160 HD
BRANCH  15  17
HETATM   17  C2  UNL     1      26.373   2.358  52.027  1.00  0.00     0.015 C 
HETATM   18  C1  UNL     1      25.306   2.438  52.795  1.00  0.00     0.042 C 
BRANCH  17  19
HETATM   19  C3  UNL     1      27.167   1.204  52.319  1.00  0.00     0.008 C 
BRANCH  19  20
HETATM   20  C4  UNL     1      26.737  -0.016  52.339  1.00  0.00     0.030 A 
HETATM   21  C5  UNL     1      26.645  -1.430  52.524  1.00  0.00    -0.003 A 
HETATM   22  O1  UNL     1      27.809  -1.114  52.936  1.00  0.00     0.000 OA
HETATM   23  O2  UNL     1      27.437  -2.432  52.996  1.00  0.00     0.000 OA
HETATM   24  H5  UNL     1      27.024  -3.362  53.029  1.00  0.00     0.000 HD
ENDBRANCH  19  20
ENDBRANCH  17  19
ENDBRANCH  15  17
ENDBRANCH   1  15
TORSDOF 4
ENDMDL
