MODEL 1
REMARK VINA RESULT:      -9.4      0.000      0.000
REMARK  3 active torsions:
REMARK  status: ('A' for Active; 'I' for Inactive)
REMARK    1  A    between atoms: S1_2  and  C2_3 
REMARK    2  A    between atoms: C3_4  and  N1_5 
REMARK    3  A    between atoms: C8_10  and  C9_11 
ROOT
HETATM    1  N1  UNL     1      20.995   1.074  51.732  1.00  0.00    -0.268 N 
HETATM    2  C4  UNL     1      21.644   0.344  52.775  1.00  0.00     0.147 A 
HETATM    3  C5  UNL     1      22.960   0.284  52.848  1.00  0.00     0.066 A 
HETATM    4  C6  UNL     1      23.724   0.936  51.904  1.00  0.00     0.010 A 
HETATM    5  C7  UNL     1      25.097   0.892  51.954  1.00  0.00     0.033 A 
HETATM    6  C8  UNL     1      25.704   0.184  52.963  1.00  0.00     0.047 A 
HETATM    7  C15 UNL     1      24.912  -0.461  53.897  1.00  0.00     0.259 A 
HETATM    8  O1  UNL     1      25.341  -1.150  54.881  1.00  0.00    -0.267 OA
HETATM    9  N2  UNL     1      23.570  -0.418  53.847  1.00  0.00    -0.316 N 
HETATM   10  C16 UNL     1      22.696  -1.082  54.811  1.00  0.00     0.159 C 
HETATM   11  C17 UNL     1      23.217   1.636  50.903  1.00  0.00     0.121 A 
HETATM   12  N3  UNL     1      21.800   1.738  50.772  1.00  0.00    -0.305 N 
HETATM   13  H13 UNL     1      21.282   2.259  50.029  1.00  0.00     0.186 HD
ENDROOT
BRANCH   1  14
HETATM   14  C3  UNL     1      19.569   1.070  51.752  1.00  0.00     0.054 A 
HETATM   15  C2  UNL     1      18.627   1.981  51.563  1.00  0.00     0.025 A 
HETATM   16  C21 UNL     1      17.336   1.315  51.726  1.00  0.00     0.023 A 
HETATM   17  C19 UNL     1      17.527   0.025  52.007  1.00  0.00    -0.077 A 
HETATM   18  C18 UNL     1      18.965  -0.256  52.051  1.00  0.00     0.094 A 
HETATM   19  C20 UNL     1      16.476  -1.021  52.251  1.00  0.00     0.044 C 
BRANCH  15  20
HETATM   20  S1  UNL     1      18.669   3.723  51.179  1.00  0.00    -0.132 SA
HETATM   21  C1  UNL     1      16.970   4.280  50.924  1.00  0.00     0.095 C 
ENDBRANCH  15  20
ENDBRANCH   1  14
BRANCH   6  22
HETATM   22  C9  UNL     1      27.126  -0.013  53.231  1.00  0.00     0.023 A 
HETATM   23  C10 UNL     1      27.825  -1.172  52.974  1.00  0.00     0.046 A 
HETATM   24 CL1  UNL     1      26.948  -2.518  52.271  1.00  0.00    -0.083 Cl
HETATM   25  C11 UNL     1      29.168  -1.198  53.286  1.00  0.00     0.025 A 
HETATM   26  C12 UNL     1      29.818  -0.119  53.838  1.00  0.00     0.003 A 
HETATM   27  C13 UNL     1      29.083   1.044  54.088  1.00  0.00     0.025 A 
HETATM   28  C14 UNL     1      27.729   1.111  53.788  1.00  0.00     0.046 A 
HETATM   29 CL2  UNL     1      26.885   2.602  54.133  1.00  0.00    -0.083 Cl
ENDBRANCH   6  22
TORSDOF 3
ENDMDL
MODEL 2
REMARK VINA RESULT:      -9.1      1.412      2.746
REMARK  3 active torsions:
REMARK  status: ('A' for Active; 'I' for Inactive)
REMARK    1  A    between atoms: S1_2  and  C2_3 
REMARK    2  A    between atoms: C3_4  and  N1_5 
REMARK    3  A    between atoms: C8_10  and  C9_11 
ROOT
HETATM    1  N1  UNL     1      21.071   0.402  52.736  1.00  0.00    -0.268 N 
HETATM    2  C4  UNL     1      22.171   0.962  52.016  1.00  0.00     0.147 A 
HETATM    3  C5  UNL     1      23.416   0.694  52.358  1.00  0.00     0.066 A 
HETATM    4  C6  UNL     1      23.664  -0.139  53.428  1.00  0.00     0.010 A 
HETATM    5  C7  UNL     1      24.951  -0.436  53.809  1.00  0.00     0.033 A 
HETATM    6  C8  UNL     1      25.996   0.112  53.105  1.00  0.00     0.047 A 
HETATM    7  C15 UNL     1      25.718   0.945  52.036  1.00  0.00     0.259 A 
HETATM    8  O1  UNL     1      26.589   1.518  51.299  1.00  0.00    -0.267 OA
HETATM    9  N2  UNL     1      24.460   1.235  51.665  1.00  0.00    -0.316 N 
HETATM   10  C16 UNL     1      24.121   2.107  50.543  1.00  0.00     0.159 C 
HETATM   11  C17 UNL     1      22.714  -0.704  54.155  1.00  0.00     0.121 A 
HETATM   12  N3  UNL     1      21.348  -0.452  53.833  1.00  0.00    -0.305 N 
HETATM   13  H13 UNL     1      20.513  -0.838  54.329  1.00  0.00     0.186 HD
ENDROOT
BRANCH   1  14
HETATM   14  C3  UNL     1      19.768   0.760  52.278  1.00  0.00     0.054 A 
HETATM   15  C2  UNL     1      19.194   1.880  51.869  1.00  0.00     0.025 A 
HETATM   16  C21 UNL     1      17.808   1.562  51.530  1.00  0.00     0.023 A 
HETATM   17  C19 UNL     1      17.579   0.265  51.740  1.00  0.00    -0.077 A 
HETATM   18  C18 UNL     1      18.803  -0.371  52.236  1.00  0.00     0.094 A 
HETATM   19  C20 UNL     1      16.293  -0.482  51.524  1.00  0.00     0.044 C 
BRANCH  15  20
HETATM   20  S1  UNL     1      19.777   3.556  51.681  1.00  0.00    -0.132 SA
HETATM   21  C1  UNL     1      20.690   3.658  50.125  1.00  0.00     0.095 C 
ENDBRANCH  15  20
ENDBRANCH   1  14
BRANCH   6  22
HETATM   22  C9  UNL     1      27.434  -0.047  53.309  1.00  0.00     0.023 A 
HETATM   23  C10 UNL     1      28.275   0.929  53.797  1.00  0.00     0.046 A 
HETATM   24 CL1  UNL     1      27.574   2.484  54.207  1.00  0.00    -0.083 Cl
HETATM   25  C11 UNL     1      29.612   0.620  53.930  1.00  0.00     0.025 A 
HETATM   26  C12 UNL     1      30.121  -0.613  53.595  1.00  0.00     0.003 A 
HETATM   27  C13 UNL     1      29.244  -1.584  53.102  1.00  0.00     0.025 A 
HETATM   28  C14 UNL     1      27.891  -1.313  52.953  1.00  0.00     0.046 A 
HETATM   29 CL2  UNL     1      26.863  -2.583  52.330  1.00  0.00    -0.083 Cl
ENDBRANCH   6  22
TORSDOF 3
ENDMDL
MODEL 3
REMARK VINA RESULT:      -8.9      1.633      3.265
REMARK  3 active torsions:
REMARK  status: ('A' for Active; 'I' for Inactive)
REMARK    1  A    between atoms: S1_2  and  C2_3 
REMARK    2  A    between atoms: C3_4  and  N1_5 
REMARK    3  A    between atoms: C8_10  and  C9_11 
ROOT
HETATM    1  N1  UNL     1      21.062   0.953  52.683  1.00  0.00    -0.268 N 
HETATM    2  C4  UNL     1      22.200   1.409  51.949  1.00  0.00     0.147 A 
HETATM    3  C5  UNL     1      23.422   1.056  52.298  1.00  0.00     0.066 A 
HETATM    4  C6  UNL     1      23.608   0.233  53.388  1.00  0.00     0.010 A 
HETATM    5  C7  UNL     1      24.869  -0.152  53.776  1.00  0.00     0.033 A 
HETATM    6  C8  UNL     1      25.952   0.296  53.058  1.00  0.00     0.047 A 
HETATM    7  C15 UNL     1      25.736   1.121  51.968  1.00  0.00     0.259 A 
HETATM    8  O1  UNL     1      26.646   1.608  51.217  1.00  0.00    -0.267 OA
HETATM    9  N2  UNL     1      24.503   1.497  51.590  1.00  0.00    -0.316 N 
HETATM   10  C16 UNL     1      24.228   2.364  50.447  1.00  0.00     0.159 C 
HETATM   11  C17 UNL     1      22.620  -0.240  54.130  1.00  0.00     0.121 A 
HETATM   12  N3  UNL     1      21.276   0.108  53.801  1.00  0.00    -0.305 N 
HETATM   13  H13 UNL     1      20.415  -0.201  54.307  1.00  0.00     0.186 HD
ENDROOT
BRANCH   1  14
HETATM   14  C3  UNL     1      19.790   1.397  52.216  1.00  0.00     0.054 A 
HETATM   15  C2  UNL     1      18.601   0.837  52.062  1.00  0.00     0.025 A 
HETATM   16  C21 UNL     1      17.702   1.859  51.529  1.00  0.00     0.023 A 
HETATM   17  C19 UNL     1      18.365   3.007  51.375  1.00  0.00    -0.077 A 
HETATM   18  C18 UNL     1      19.757   2.824  51.797  1.00  0.00     0.094 A 
HETATM   19  C20 UNL     1      17.826   4.310  50.856  1.00  0.00     0.044 C 
BRANCH  15  20
HETATM   20  S1  UNL     1      17.973  -0.805  52.368  1.00  0.00    -0.132 SA
HETATM   21  C1  UNL     1      16.191  -0.681  52.634  1.00  0.00     0.095 C 
ENDBRANCH  15  20
ENDBRANCH   1  14
BRANCH   6  22
HETATM   22  C9  UNL     1      27.374   0.033  53.265  1.00  0.00     0.023 A 
HETATM   23  C10 UNL     1      28.280   0.943  53.766  1.00  0.00     0.046 A 
HETATM   24 CL1  UNL     1      27.690   2.539  54.190  1.00  0.00    -0.083 Cl
HETATM   25  C11 UNL     1      29.592   0.538  53.901  1.00  0.00     0.025 A 
HETATM   26  C12 UNL     1      30.013  -0.725  53.555  1.00  0.00     0.003 A 
HETATM   27  C13 UNL     1      29.071  -1.626  53.050  1.00  0.00     0.025 A 
HETATM   28  C14 UNL     1      27.741  -1.258  52.898  1.00  0.00     0.046 A 
HETATM   29 CL2  UNL     1      26.628  -2.445  52.259  1.00  0.00    -0.083 Cl
ENDBRANCH   6  22
TORSDOF 3
ENDMDL
MODEL 4
REMARK VINA RESULT:      -8.8      1.856      2.307
REMARK  3 active torsions:
REMARK  status: ('A' for Active; 'I' for Inactive)
REMARK    1  A    between atoms: S1_2  and  C2_3 
REMARK    2  A    between atoms: C3_4  and  N1_5 
REMARK    3  A    between atoms: C8_10  and  C9_11 
ROOT
HETATM    1  N1  UNL     1      22.281   2.994  50.997  1.00  0.00    -0.268 N 
HETATM    2  C4  UNL     1      22.543   2.027  52.016  1.00  0.00     0.147 A 
HETATM    3  C5  UNL     1      23.757   1.548  52.204  1.00  0.00     0.066 A 
HETATM    4  C6  UNL     1      24.793   1.985  51.407  1.00  0.00     0.010 A 
HETATM    5  C7  UNL     1      26.069   1.504  51.579  1.00  0.00     0.033 A 
HETATM    6  C8  UNL     1      26.303   0.574  52.563  1.00  0.00     0.047 A 
HETATM    7  C15 UNL     1      25.244   0.153  53.349  1.00  0.00     0.259 A 
HETATM    8  O1  UNL     1      25.319  -0.701  54.294  1.00  0.00    -0.267 OA
HETATM    9  N2  UNL     1      23.997   0.624  53.180  1.00  0.00    -0.316 N 
HETATM   10  C16 UNL     1      22.852   0.209  53.986  1.00  0.00     0.159 C 
HETATM   11  C17 UNL     1      24.650   2.875  50.439  1.00  0.00     0.121 A 
HETATM   12  N3  UNL     1      23.360   3.430  50.188  1.00  0.00    -0.305 N 
HETATM   13  H13 UNL     1      23.122   4.137  49.456  1.00  0.00     0.186 HD
ENDROOT
BRANCH   1  14
HETATM   14  C3  UNL     1      20.932   3.442  50.883  1.00  0.00     0.054 A 
HETATM   15  C2  UNL     1      20.341   4.520  50.393  1.00  0.00     0.025 A 
HETATM   16  C21 UNL     1      18.901   4.358  50.591  1.00  0.00     0.023 A 
HETATM   17  C19 UNL     1      18.658   3.192  51.192  1.00  0.00    -0.077 A 
HETATM   18  C18 UNL     1      19.925   2.496  51.436  1.00  0.00     0.094 A 
HETATM   19  C20 UNL     1      17.321   2.628  51.582  1.00  0.00     0.044 C 
BRANCH  15  20
HETATM   20  S1  UNL     1      20.953   5.999  49.605  1.00  0.00    -0.132 SA
HETATM   21  C1  UNL     1      21.888   6.939  50.833  1.00  0.00     0.095 C 
ENDBRANCH  15  20
ENDBRANCH   1  14
BRANCH   6  22
HETATM   22  C9  UNL     1      27.552  -0.082  52.941  1.00  0.00     0.023 A 
HETATM   23  C10 UNL     1      27.839  -1.414  52.733  1.00  0.00     0.046 A 
HETATM   24 CL1  UNL     1      26.616  -2.403  51.957  1.00  0.00    -0.083 Cl
HETATM   25  C11 UNL     1      29.068  -1.881  53.149  1.00  0.00     0.025 A 
HETATM   26  C12 UNL     1      29.998  -1.069  53.755  1.00  0.00     0.003 A 
HETATM   27  C13 UNL     1      29.680   0.278  53.952  1.00  0.00     0.025 A 
HETATM   28  C14 UNL     1      28.453   0.787  53.548  1.00  0.00     0.046 A 
HETATM   29 CL2  UNL     1      28.135   2.482  53.833  1.00  0.00    -0.083 Cl
ENDBRANCH   6  22
TORSDOF 3
ENDMDL
MODEL 5
REMARK VINA RESULT:      -8.6      6.851      9.699
REMARK  3 active torsions:
REMARK  status: ('A' for Active; 'I' for Inactive)
REMARK    1  A    between atoms: S1_2  and  C2_3 
REMARK    2  A    between atoms: C3_4  and  N1_5 
REMARK    3  A    between atoms: C8_10  and  C9_11 
ROOT
HETATM    1  N1  UNL     1      27.347   7.160  49.047  1.00  0.00    -0.268 N 
HETATM    2  C4  UNL     1      26.041   7.134  49.625  1.00  0.00     0.147 A 
HETATM    3  C5  UNL     1      25.407   5.995  49.827  1.00  0.00     0.066 A 
HETATM    4  C6  UNL     1      26.012   4.807  49.475  1.00  0.00     0.010 A 
HETATM    5  C7  UNL     1      25.377   3.605  49.672  1.00  0.00     0.033 A 
HETATM    6  C8  UNL     1      24.121   3.599  50.229  1.00  0.00     0.047 A 
HETATM    7  C15 UNL     1      23.537   4.806  50.572  1.00  0.00     0.259 A 
HETATM    8  O1  UNL     1      22.381   4.946  51.094  1.00  0.00    -0.267 OA
HETATM    9  N2  UNL     1      24.159   5.981  50.378  1.00  0.00    -0.316 N 
HETATM   10  C16 UNL     1      23.581   7.277  50.727  1.00  0.00     0.159 C 
HETATM   11  C17 UNL     1      27.217   4.729  48.934  1.00  0.00     0.121 A 
HETATM   12  N3  UNL     1      27.952   5.927  48.693  1.00  0.00    -0.305 N 
HETATM   13  H13 UNL     1      28.907   5.995  48.274  1.00  0.00     0.186 HD
ENDROOT
BRANCH   1  14
HETATM   14  C3  UNL     1      27.937   8.447  48.876  1.00  0.00     0.054 A 
HETATM   15  C2  UNL     1      29.176   8.913  48.840  1.00  0.00     0.025 A 
HETATM   16  C21 UNL     1      29.093  10.357  48.628  1.00  0.00     0.023 A 
HETATM   17  C19 UNL     1      27.815  10.728  48.540  1.00  0.00    -0.077 A 
HETATM   18  C18 UNL     1      26.955   9.549  48.690  1.00  0.00     0.094 A 
HETATM   19  C20 UNL     1      27.279  12.115  48.325  1.00  0.00     0.044 C 
BRANCH  15  20
HETATM   20  S1  UNL     1      30.777   8.142  48.994  1.00  0.00    -0.132 SA
HETATM   21  C1  UNL     1      31.137   7.288  47.443  1.00  0.00     0.095 C 
ENDBRANCH  15  20
ENDBRANCH   1  14
BRANCH   6  22
HETATM   22  C9  UNL     1      23.249   2.468  50.536  1.00  0.00     0.023 A 
HETATM   23  C10 UNL     1      23.203   1.812  51.747  1.00  0.00     0.046 A 
HETATM   24 CL1  UNL     1      24.269   2.372  53.022  1.00  0.00    -0.083 Cl
HETATM   25  C11 UNL     1      22.322   0.760  51.877  1.00  0.00     0.025 A 
HETATM   26  C12 UNL     1      21.503   0.352  50.850  1.00  0.00     0.003 A 
HETATM   27  C13 UNL     1      21.571   1.037  49.632  1.00  0.00     0.025 A 
HETATM   28  C14 UNL     1      22.445   2.102  49.460  1.00  0.00     0.046 A 
HETATM   29 CL2  UNL     1      22.467   2.903  47.907  1.00  0.00    -0.083 Cl
ENDBRANCH   6  22
TORSDOF 3
ENDMDL
MODEL 6
REMARK VINA RESULT:      -8.5      4.179      5.892
REMARK  3 active torsions:
REMARK  status: ('A' for Active; 'I' for Inactive)
REMARK    1  A    between atoms: S1_2  and  C2_3 
REMARK    2  A    between atoms: C3_4  and  N1_5 
REMARK    3  A    between atoms: C8_10  and  C9_11 
ROOT
HETATM    1  N1  UNL     1      20.709   1.159  50.714  1.00  0.00    -0.268 N 
HETATM    2  C4  UNL     1      21.310   2.294  51.339  1.00  0.00     0.147 A 
HETATM    3  C5  UNL     1      22.196   3.034  50.701  1.00  0.00     0.066 A 
HETATM    4  C6  UNL     1      22.550   2.710  49.409  1.00  0.00     0.010 A 
HETATM    5  C7  UNL     1      23.469   3.462  48.718  1.00  0.00     0.033 A 
HETATM    6  C8  UNL     1      24.038   4.550  49.335  1.00  0.00     0.047 A 
HETATM    7  C15 UNL     1      23.664   4.852  50.633  1.00  0.00     0.259 A 
HETATM    8  O1  UNL     1      24.111   5.829  51.323  1.00  0.00    -0.267 OA
HETATM    9  N2  UNL     1      22.765   4.116  51.308  1.00  0.00    -0.316 N 
HETATM   10  C16 UNL     1      22.341   4.399  52.677  1.00  0.00     0.159 C 
HETATM   11  C17 UNL     1      22.049   1.680  48.746  1.00  0.00     0.121 A 
HETATM   12  N3  UNL     1      21.086   0.843  49.384  1.00  0.00    -0.305 N 
HETATM   13  H13 UNL     1      20.621   0.005  48.968  1.00  0.00     0.186 HD
ENDROOT
BRANCH   1  14
HETATM   14  C3  UNL     1      19.765   0.432  51.497  1.00  0.00     0.054 A 
HETATM   15  C2  UNL     1      19.775  -0.125  52.699  1.00  0.00     0.025 A 
HETATM   16  C21 UNL     1      18.460  -0.726  52.913  1.00  0.00     0.023 A 
HETATM   17  C19 UNL     1      17.690  -0.520  51.843  1.00  0.00    -0.077 A 
HETATM   18  C18 UNL     1      18.445   0.237  50.839  1.00  0.00     0.094 A 
HETATM   19  C20 UNL     1      16.270  -0.967  51.640  1.00  0.00     0.044 C 
BRANCH  15  20
HETATM   20  S1  UNL     1      21.013  -0.251  53.978  1.00  0.00    -0.132 SA
HETATM   21  C1  UNL     1      22.552  -0.807  53.212  1.00  0.00     0.095 C 
ENDBRANCH  15  20
ENDBRANCH   1  14
BRANCH   6  22
HETATM   22  C9  UNL     1      25.027   5.495  48.822  1.00  0.00     0.023 A 
HETATM   23  C10 UNL     1      24.731   6.701  48.226  1.00  0.00     0.046 A 
HETATM   24 CL1  UNL     1      23.041   7.144  48.068  1.00  0.00    -0.083 Cl
HETATM   25  C11 UNL     1      25.783   7.481  47.793  1.00  0.00     0.025 A 
HETATM   26  C12 UNL     1      27.095   7.095  47.936  1.00  0.00     0.003 A 
HETATM   27  C13 UNL     1      27.365   5.865  48.545  1.00  0.00     0.025 A 
HETATM   28  C14 UNL     1      26.334   5.051  48.994  1.00  0.00     0.046 A 
HETATM   29 CL2  UNL     1      26.758   3.529  49.744  1.00  0.00    -0.083 Cl
ENDBRANCH   6  22
TORSDOF 3
ENDMDL
MODEL 7
REMARK VINA RESULT:      -8.5      6.642      9.454
REMARK  3 active torsions:
REMARK  status: ('A' for Active; 'I' for Inactive)
REMARK    1  A    between atoms: S1_2  and  C2_3 
REMARK    2  A    between atoms: C3_4  and  N1_5 
REMARK    3  A    between atoms: C8_10  and  C9_11 
ROOT
HETATM    1  N1  UNL     1      27.305   7.258  48.900  1.00  0.00    -0.268 N 
HETATM    2  C4  UNL     1      26.043   7.230  49.571  1.00  0.00     0.147 A 
HETATM    3  C5  UNL     1      25.467   6.088  49.893  1.00  0.00     0.066 A 
HETATM    4  C6  UNL     1      26.091   4.899  49.578  1.00  0.00     0.010 A 
HETATM    5  C7  UNL     1      25.516   3.693  49.900  1.00  0.00     0.033 A 
HETATM    6  C8  UNL     1      24.302   3.685  50.544  1.00  0.00     0.047 A 
HETATM    7  C15 UNL     1      23.699   4.894  50.847  1.00  0.00     0.259 A 
HETATM    8  O1  UNL     1      22.577   5.032  51.441  1.00  0.00    -0.267 OA
HETATM    9  N2  UNL     1      24.262   6.072  50.532  1.00  0.00    -0.316 N 
HETATM   10  C16 UNL     1      23.662   7.370  50.834  1.00  0.00     0.159 C 
HETATM   11  C17 UNL     1      27.258   4.822  48.959  1.00  0.00     0.121 A 
HETATM   12  N3  UNL     1      27.929   6.024  48.587  1.00  0.00    -0.305 N 
HETATM   13  H13 UNL     1      28.849   6.093  48.097  1.00  0.00     0.186 HD
ENDROOT
BRANCH   1  14
HETATM   14  C3  UNL     1      27.833   8.548  48.602  1.00  0.00     0.054 A 
HETATM   15  C2  UNL     1      27.423   9.588  47.892  1.00  0.00     0.025 A 
HETATM   16  C21 UNL     1      28.452  10.621  47.995  1.00  0.00     0.023 A 
HETATM   17  C19 UNL     1      29.453  10.186  48.762  1.00  0.00    -0.077 A 
HETATM   18  C18 UNL     1      29.157   8.825  49.222  1.00  0.00     0.094 A 
HETATM   19  C20 UNL     1      30.709  10.923  49.130  1.00  0.00     0.044 C 
BRANCH  15  20
HETATM   20  S1  UNL     1      25.961   9.904  46.920  1.00  0.00    -0.132 SA
HETATM   21  C1  UNL     1      25.634   8.442  45.910  1.00  0.00     0.095 C 
ENDBRANCH  15  20
ENDBRANCH   1  14
BRANCH   6  22
HETATM   22  C9  UNL     1      23.495   2.551  50.988  1.00  0.00     0.023 A 
HETATM   23  C10 UNL     1      23.548   1.988  52.244  1.00  0.00     0.046 A 
HETATM   24 CL1  UNL     1      24.665   2.681  53.406  1.00  0.00    -0.083 Cl
HETATM   25  C11 UNL     1      22.719   0.918  52.506  1.00  0.00     0.025 A 
HETATM   26  C12 UNL     1      21.858   0.404  51.565  1.00  0.00     0.003 A 
HETATM   27  C13 UNL     1      21.826   0.996  50.298  1.00  0.00     0.025 A 
HETATM   28  C14 UNL     1      22.645   2.075  49.994  1.00  0.00     0.046 A 
HETATM   29 CL2  UNL     1      22.543   2.756  48.387  1.00  0.00    -0.083 Cl
ENDBRANCH   6  22
TORSDOF 3
ENDMDL
MODEL 8
REMARK VINA RESULT:      -8.4      5.754      8.338
REMARK  3 active torsions:
REMARK  status: ('A' for Active; 'I' for Inactive)
REMARK    1  A    between atoms: S1_2  and  C2_3 
REMARK    2  A    between atoms: C3_4  and  N1_5 
REMARK    3  A    between atoms: C8_10  and  C9_11 
ROOT
HETATM    1  N1  UNL     1      25.449   2.163  51.545  1.00  0.00    -0.268 N 
HETATM    2  C4  UNL     1      24.511   3.239  51.602  1.00  0.00     0.147 A 
HETATM    3  C5  UNL     1      24.619   4.281  50.801  1.00  0.00     0.066 A 
HETATM    4  C6  UNL     1      25.654   4.336  49.891  1.00  0.00     0.010 A 
HETATM    5  C7  UNL     1      25.793   5.408  49.043  1.00  0.00     0.033 A 
HETATM    6  C8  UNL     1      24.882   6.434  49.113  1.00  0.00     0.047 A 
HETATM    7  C15 UNL     1      23.854   6.353  50.035  1.00  0.00     0.259 A 
HETATM    8  O1  UNL     1      22.943   7.231  50.206  1.00  0.00    -0.267 OA
HETATM    9  N2  UNL     1      23.719   5.305  50.864  1.00  0.00    -0.316 N 
HETATM   10  C16 UNL     1      22.649   5.177  51.851  1.00  0.00     0.159 C 
HETATM   11  C17 UNL     1      26.570   3.390  49.763  1.00  0.00     0.121 A 
HETATM   12  N3  UNL     1      26.505   2.239  50.602  1.00  0.00    -0.305 N 
HETATM   13  H13 UNL     1      27.166   1.429  50.596  1.00  0.00     0.186 HD
ENDROOT
BRANCH   1  14
HETATM   14  C3  UNL     1      25.234   1.089  52.458  1.00  0.00     0.054 A 
HETATM   15  C2  UNL     1      26.015   0.233  53.098  1.00  0.00     0.025 A 
HETATM   16  C21 UNL     1      25.151  -0.633  53.898  1.00  0.00     0.023 A 
HETATM   17  C19 UNL     1      23.875  -0.282  53.725  1.00  0.00    -0.077 A 
HETATM   18  C18 UNL     1      23.805   0.847  52.792  1.00  0.00     0.094 A 
HETATM   19  C20 UNL     1      22.663  -0.906  54.355  1.00  0.00     0.044 C 
BRANCH  15  20
HETATM   20  S1  UNL     1      27.781  -0.016  53.140  1.00  0.00    -0.132 SA
HETATM   21  C1  UNL     1      28.330   0.173  54.851  1.00  0.00     0.095 C 
ENDBRANCH  15  20
ENDBRANCH   1  14
BRANCH   6  22
HETATM   22  C9  UNL     1      24.814   7.667  48.332  1.00  0.00     0.023 A 
HETATM   23  C10 UNL     1      24.030   7.850  47.213  1.00  0.00     0.046 A 
HETATM   24 CL1  UNL     1      23.035   6.507  46.681  1.00  0.00    -0.083 Cl
HETATM   25  C11 UNL     1      24.078   9.078  46.586  1.00  0.00     0.025 A 
HETATM   26  C12 UNL     1      24.874  10.105  47.037  1.00  0.00     0.003 A 
HETATM   27  C13 UNL     1      25.659   9.890  48.174  1.00  0.00     0.025 A 
HETATM   28  C14 UNL     1      25.638   8.669  48.834  1.00  0.00     0.046 A 
HETATM   29 CL2  UNL     1      26.650   8.483  50.248  1.00  0.00    -0.083 Cl
ENDBRANCH   6  22
TORSDOF 3
ENDMDL
MODEL 9
REMARK VINA RESULT:      -8.4      5.653      8.366
REMARK  3 active torsions:
REMARK  status: ('A' for Active; 'I' for Inactive)
REMARK    1  A    between atoms: S1_2  and  C2_3 
REMARK    2  A    between atoms: C3_4  and  N1_5 
REMARK    3  A    between atoms: C8_10  and  C9_11 
ROOT
HETATM    1  N1  UNL     1      25.462   2.042  51.676  1.00  0.00    -0.268 N 
HETATM    2  C4  UNL     1      24.556   3.143  51.769  1.00  0.00     0.147 A 
HETATM    3  C5  UNL     1      24.674   4.191  50.978  1.00  0.00     0.066 A 
HETATM    4  C6  UNL     1      25.687   4.229  50.044  1.00  0.00     0.010 A 
HETATM    5  C7  UNL     1      25.836   5.308  49.206  1.00  0.00     0.033 A 
HETATM    6  C8  UNL     1      24.956   6.358  49.310  1.00  0.00     0.047 A 
HETATM    7  C15 UNL     1      23.948   6.293  50.257  1.00  0.00     0.259 A 
HETATM    8  O1  UNL     1      23.066   7.193  50.460  1.00  0.00    -0.267 OA
HETATM    9  N2  UNL     1      23.804   5.238  51.076  1.00  0.00    -0.316 N 
HETATM   10  C16 UNL     1      22.755   5.128  52.087  1.00  0.00     0.159 C 
HETATM   11  C17 UNL     1      26.574   3.260  49.882  1.00  0.00     0.121 A 
HETATM   12  N3  UNL     1      26.497   2.101  50.709  1.00  0.00    -0.305 N 
HETATM   13  H13 UNL     1      27.135   1.274  50.677  1.00  0.00     0.186 HD
ENDROOT
BRANCH   1  14
HETATM   14  C3  UNL     1      25.240   0.962  52.581  1.00  0.00     0.054 A 
HETATM   15  C2  UNL     1      26.012   0.078  53.193  1.00  0.00     0.025 A 
HETATM   16  C21 UNL     1      25.144  -0.775  54.003  1.00  0.00     0.023 A 
HETATM   17  C19 UNL     1      23.875  -0.388  53.863  1.00  0.00    -0.077 A 
HETATM   18  C18 UNL     1      23.813   0.754  52.946  1.00  0.00     0.094 A 
HETATM   19  C20 UNL     1      22.661  -0.987  54.515  1.00  0.00     0.044 C 
BRANCH  15  20
HETATM   20  S1  UNL     1      27.772  -0.217  53.191  1.00  0.00    -0.132 SA
HETATM   21  C1  UNL     1      28.417   0.245  54.814  1.00  0.00     0.095 C 
ENDBRANCH  15  20
ENDBRANCH   1  14
BRANCH   6  22
HETATM   22  C9  UNL     1      24.902   7.602  48.546  1.00  0.00     0.023 A 
HETATM   23  C10 UNL     1      25.634   8.735  48.830  1.00  0.00     0.046 A 
HETATM   24 CL1  UNL     1      26.713   8.688  50.211  1.00  0.00    -0.083 Cl
HETATM   25  C11 UNL     1      25.469   9.830  48.009  1.00  0.00     0.025 A 
HETATM   26  C12 UNL     1      24.609   9.825  46.935  1.00  0.00     0.003 A 
HETATM   27  C13 UNL     1      23.881   8.661  46.671  1.00  0.00     0.025 A 
HETATM   28  C14 UNL     1      24.018   7.536  47.474  1.00  0.00     0.046 A 
HETATM   29 CL2  UNL     1      23.069   6.123  47.075  1.00  0.00    -0.083 Cl
ENDBRANCH   6  22
TORSDOF 3
ENDMDL
