MODEL 1
REMARK VINA RESULT:      -8.9      0.000      0.000
REMARK  5 active torsions:
REMARK  status: ('A' for Active; 'I' for Inactive)
REMARK    1  A    between atoms: C6_7  and  N2_8 
REMARK       I    between atoms: N2_8  and  C7_9 
REMARK    2  A    between atoms: C7_9  and  C8_11 
REMARK    3  A    between atoms: C12_16  and  N4_17 
REMARK    4  A    between atoms: N4_17  and  C13_18 
REMARK    5  A    between atoms: C13_18  and  C14_19 
ROOT
HETATM    1  C8  UNL     1      26.437   1.412  53.542  1.00  0.00     0.077 A 
HETATM    2  C9  UNL     1      26.894   0.508  54.476  1.00  0.00     0.022 A 
HETATM    3  C10 UNL     1      28.231   0.246  54.702  1.00  0.00     0.020 A 
HETATM    4  C11 UNL     1      29.132   0.942  53.936  1.00  0.00     0.119 A 
HETATM    5  N3  UNL     1      28.683   1.818  53.031  1.00  0.00    -0.243 NA
HETATM    6  C12 UNL     1      27.383   2.081  52.804  1.00  0.00     0.139 A 
ENDROOT
BRANCH   1   7
HETATM    7  C7  UNL     1      25.023   1.660  53.333  1.00  0.00     0.260 C 
HETATM    8  N2  UNL     1      24.063   0.672  53.033  1.00  0.00    -0.323 N 
HETATM    9  H9  UNL     1      24.508  -0.295  52.978  1.00  0.00     0.169 HD
HETATM   10  O1  UNL     1      24.492   2.779  53.395  1.00  0.00    -0.267 OA
BRANCH   8  11
HETATM   11  C6  UNL     1      22.686   0.696  52.802  1.00  0.00     0.033 A 
HETATM   12  C5  UNL     1      21.791  -0.104  53.629  1.00  0.00     0.054 A 
HETATM   13  C4  UNL     1      20.493  -0.050  53.385  1.00  0.00     0.012 A 
HETATM   14  N1  UNL     1      19.404  -0.733  54.037  1.00  0.00    -0.392 N 
HETATM   15  C21 UNL     1      19.698   0.761  52.393  1.00  0.00     0.044 A 
HETATM   16  C3  UNL     1      18.328  -0.990  53.055  1.00  0.00     0.124 C 
HETATM   17  H7  UNL     1      19.349  -1.024  55.050  1.00  0.00     0.159 HD
HETATM   18  C2  UNL     1      18.890  -0.338  51.776  1.00  0.00     0.009 C 
HETATM   19  C1  UNL     1      17.745   0.177  50.940  1.00  0.00     0.012 C 
HETATM   20  C20 UNL     1      20.595   1.524  51.501  1.00  0.00     0.040 A 
HETATM   21  C19 UNL     1      22.013   1.372  51.893  1.00  0.00     0.004 A 
ENDBRANCH   8  11
ENDBRANCH   1   7
BRANCH   6  22
HETATM   22  N4  UNL     1      27.074   3.049  51.797  1.00  0.00    -0.370 N 
HETATM   23  H13 UNL     1      27.126   4.060  51.746  1.00  0.00     0.161 HD
BRANCH  22  24
HETATM   24  C13 UNL     1      26.566   2.583  50.524  1.00  0.00     0.160 C 
BRANCH  24  25
HETATM   25  C14 UNL     1      25.607   3.489  49.869  1.00  0.00    -0.038 A 
HETATM   26  C15 UNL     1      24.278   3.254  49.601  1.00  0.00     0.028 A 
HETATM   27  C16 UNL     1      23.519   4.219  48.976  1.00  0.00     0.116 A 
HETATM   28  N5  UNL     1      24.049   5.408  48.611  1.00  0.00    -0.273 NA
HETATM   29  C17 UNL     1      25.333   5.672  48.854  1.00  0.00     0.116 A 
HETATM   30  C18 UNL     1      26.116   4.727  49.477  1.00  0.00     0.028 A 
ENDBRANCH  24  25
ENDBRANCH  22  24
ENDBRANCH   6  22
TORSDOF 5
ENDMDL
MODEL 2
REMARK VINA RESULT:      -8.9      2.053      7.045
REMARK  5 active torsions:
REMARK  status: ('A' for Active; 'I' for Inactive)
REMARK    1  A    between atoms: C6_7  and  N2_8 
REMARK       I    between atoms: N2_8  and  C7_9 
REMARK    2  A    between atoms: C7_9  and  C8_11 
REMARK    3  A    between atoms: C12_16  and  N4_17 
REMARK    4  A    between atoms: N4_17  and  C13_18 
REMARK    5  A    between atoms: C13_18  and  C14_19 
ROOT
HETATM    1  C8  UNL     1      22.664   0.749  52.784  1.00  0.00     0.077 A 
HETATM    2  C9  UNL     1      21.393   0.828  53.313  1.00  0.00     0.022 A 
HETATM    3  C10 UNL     1      20.958   0.072  54.383  1.00  0.00     0.020 A 
HETATM    4  C11 UNL     1      21.866  -0.797  54.932  1.00  0.00     0.119 A 
HETATM    5  N3  UNL     1      23.098  -0.869  54.415  1.00  0.00    -0.243 NA
HETATM    6  C12 UNL     1      23.532  -0.138  53.373  1.00  0.00     0.139 A 
ENDROOT
BRANCH   1   7
HETATM    7  C7  UNL     1      23.084   1.560  51.657  1.00  0.00     0.260 C 
HETATM    8  N2  UNL     1      23.883   2.718  51.744  1.00  0.00    -0.323 N 
HETATM    9  H9  UNL     1      24.147   2.930  52.755  1.00  0.00     0.169 HD
HETATM   10  O1  UNL     1      22.785   1.325  50.477  1.00  0.00    -0.267 OA
BRANCH   8  11
HETATM   11  C6  UNL     1      24.389   3.620  50.805  1.00  0.00     0.033 A 
HETATM   12  C5  UNL     1      25.772   3.510  50.357  1.00  0.00     0.054 A 
HETATM   13  C4  UNL     1      26.213   4.377  49.463  1.00  0.00     0.012 A 
HETATM   14  N1  UNL     1      27.519   4.497  48.862  1.00  0.00    -0.392 N 
HETATM   15  C21 UNL     1      25.517   5.496  48.731  1.00  0.00     0.044 A 
HETATM   16  C3  UNL     1      27.792   5.918  48.562  1.00  0.00     0.124 C 
HETATM   17  H7  UNL     1      28.200   3.717  48.657  1.00  0.00     0.159 HD
HETATM   18  C2  UNL     1      26.486   6.604  49.008  1.00  0.00     0.009 C 
HETATM   19  C1  UNL     1      26.246   7.819  48.147  1.00  0.00     0.012 C 
HETATM   20  C20 UNL     1      24.136   5.666  49.225  1.00  0.00     0.040 A 
HETATM   21  C19 UNL     1      23.779   4.628  50.215  1.00  0.00     0.004 A 
ENDBRANCH   8  11
ENDBRANCH   1   7
BRANCH   6  22
HETATM   22  N4  UNL     1      24.882  -0.339  52.944  1.00  0.00    -0.370 N 
HETATM   23  H13 UNL     1      25.355  -0.294  52.048  1.00  0.00     0.161 HD
BRANCH  22  24
HETATM   24  C13 UNL     1      25.877  -0.686  53.936  1.00  0.00     0.160 C 
BRANCH  24  25
HETATM   25  C14 UNL     1      27.012   0.249  54.031  1.00  0.00    -0.038 A 
HETATM   26  C15 UNL     1      28.222   0.039  54.649  1.00  0.00     0.028 A 
HETATM   27  C16 UNL     1      29.180   1.029  54.643  1.00  0.00     0.116 A 
HETATM   28  N5  UNL     1      28.963   2.219  54.039  1.00  0.00    -0.273 NA
HETATM   29  C17 UNL     1      27.802   2.458  53.430  1.00  0.00     0.116 A 
HETATM   30  C18 UNL     1      26.825   1.489  53.419  1.00  0.00     0.028 A 
ENDBRANCH  24  25
ENDBRANCH  22  24
ENDBRANCH   6  22
TORSDOF 5
ENDMDL
MODEL 3
REMARK VINA RESULT:      -8.8      1.995      7.071
REMARK  5 active torsions:
REMARK  status: ('A' for Active; 'I' for Inactive)
REMARK    1  A    between atoms: C6_7  and  N2_8 
REMARK       I    between atoms: N2_8  and  C7_9 
REMARK    2  A    between atoms: C7_9  and  C8_11 
REMARK    3  A    between atoms: C12_16  and  N4_17 
REMARK    4  A    between atoms: N4_17  and  C13_18 
REMARK    5  A    between atoms: C13_18  and  C14_19 
ROOT
HETATM    1  C8  UNL     1      23.012   0.881  53.211  1.00  0.00     0.077 A 
HETATM    2  C9  UNL     1      21.647   0.806  53.033  1.00  0.00     0.022 A 
HETATM    3  C10 UNL     1      20.883  -0.283  53.402  1.00  0.00     0.020 A 
HETATM    4  C11 UNL     1      21.549  -1.335  53.978  1.00  0.00     0.119 A 
HETATM    5  N3  UNL     1      22.873  -1.256  54.148  1.00  0.00    -0.243 NA
HETATM    6  C12 UNL     1      23.627  -0.201  53.792  1.00  0.00     0.139 A 
ENDROOT
BRANCH   1   7
HETATM    7  C7  UNL     1      23.781   2.044  52.808  1.00  0.00     0.260 C 
HETATM    8  N2  UNL     1      23.549   2.805  51.644  1.00  0.00    -0.323 N 
HETATM    9  H9  UNL     1      22.727   2.418  51.086  1.00  0.00     0.169 HD
HETATM   10  O1  UNL     1      24.739   2.504  53.446  1.00  0.00    -0.267 OA
BRANCH   8  11
HETATM   11  C6  UNL     1      24.157   3.932  51.085  1.00  0.00     0.033 A 
HETATM   12  C5  UNL     1      23.771   5.266  51.530  1.00  0.00     0.054 A 
HETATM   13  C4  UNL     1      24.373   6.308  50.984  1.00  0.00     0.012 A 
HETATM   14  N1  UNL     1      24.182   7.716  51.232  1.00  0.00    -0.392 N 
HETATM   15  C21 UNL     1      25.481   6.399  49.966  1.00  0.00     0.044 A 
HETATM   16  C3  UNL     1      24.438   8.471  49.987  1.00  0.00     0.124 C 
HETATM   17  H7  UNL     1      23.901   8.171  52.141  1.00  0.00     0.159 HD
HETATM   18  C2  UNL     1      24.846   7.356  49.004  1.00  0.00     0.009 C 
HETATM   19  C1  UNL     1      25.826   7.914  48.002  1.00  0.00     0.012 C 
HETATM   20  C20 UNL     1      25.834   5.060  49.453  1.00  0.00     0.040 A 
HETATM   21  C19 UNL     1      25.088   3.993  50.155  1.00  0.00     0.004 A 
ENDBRANCH   8  11
ENDBRANCH   1   7
BRANCH   6  22
HETATM   22  N4  UNL     1      25.033  -0.280  54.045  1.00  0.00    -0.370 N 
HETATM   23  H13 UNL     1      25.633   0.015  54.807  1.00  0.00     0.161 HD
BRANCH  22  24
HETATM   24  C13 UNL     1      25.879  -0.907  53.052  1.00  0.00     0.160 C 
BRANCH  24  25
HETATM   25  C14 UNL     1      27.323  -0.677  53.232  1.00  0.00    -0.038 A 
HETATM   26  C15 UNL     1      28.337  -1.601  53.144  1.00  0.00     0.028 A 
HETATM   27  C16 UNL     1      29.644  -1.212  53.342  1.00  0.00     0.116 A 
HETATM   28  N5  UNL     1      29.964   0.070  53.626  1.00  0.00    -0.273 NA
HETATM   29  C17 UNL     1      29.008   0.994  53.720  1.00  0.00     0.116 A 
HETATM   30  C18 UNL     1      27.693   0.635  53.527  1.00  0.00     0.028 A 
ENDBRANCH  24  25
ENDBRANCH  22  24
ENDBRANCH   6  22
TORSDOF 5
ENDMDL
MODEL 4
REMARK VINA RESULT:      -8.7      2.414      4.984
REMARK  5 active torsions:
REMARK  status: ('A' for Active; 'I' for Inactive)
REMARK    1  A    between atoms: C6_7  and  N2_8 
REMARK       I    between atoms: N2_8  and  C7_9 
REMARK    2  A    between atoms: C7_9  and  C8_11 
REMARK    3  A    between atoms: C12_16  and  N4_17 
REMARK    4  A    between atoms: N4_17  and  C13_18 
REMARK    5  A    between atoms: C13_18  and  C14_19 
ROOT
HETATM    1  C8  UNL     1      26.834   1.538  53.196  1.00  0.00     0.077 A 
HETATM    2  C9  UNL     1      28.000   2.219  53.472  1.00  0.00     0.022 A 
HETATM    3  C10 UNL     1      29.058   1.677  54.176  1.00  0.00     0.020 A 
HETATM    4  C11 UNL     1      28.909   0.385  54.612  1.00  0.00     0.119 A 
HETATM    5  N3  UNL     1      27.775  -0.271  54.341  1.00  0.00    -0.243 NA
HETATM    6  C12 UNL     1      26.740   0.247  53.656  1.00  0.00     0.139 A 
ENDROOT
BRANCH   1   7
HETATM    7  C7  UNL     1      25.743   2.142  52.454  1.00  0.00     0.260 C 
HETATM    8  N2  UNL     1      24.914   3.178  52.931  1.00  0.00    -0.323 N 
HETATM    9  H9  UNL     1      25.189   3.468  53.919  1.00  0.00     0.169 HD
HETATM   10  O1  UNL     1      25.413   1.814  51.305  1.00  0.00    -0.267 OA
BRANCH   8  11
HETATM   11  C6  UNL     1      23.836   3.884  52.391  1.00  0.00     0.033 A 
HETATM   12  C5  UNL     1      22.489   3.332  52.469  1.00  0.00     0.054 A 
HETATM   13  C4  UNL     1      21.493   4.033  51.954  1.00  0.00     0.012 A 
HETATM   14  N1  UNL     1      20.086   3.724  51.890  1.00  0.00    -0.392 N 
HETATM   15  C21 UNL     1      21.462   5.393  51.306  1.00  0.00     0.044 A 
HETATM   16  C3  UNL     1      19.509   4.318  50.666  1.00  0.00     0.124 C 
HETATM   17  H7  UNL     1      19.525   3.162  52.585  1.00  0.00     0.159 HD
HETATM   18  C2  UNL     1      20.721   5.046  50.052  1.00  0.00     0.009 C 
HETATM   19  C1  UNL     1      20.239   6.263  49.302  1.00  0.00     0.012 C 
HETATM   20  C20 UNL     1      22.828   5.935  51.157  1.00  0.00     0.040 A 
HETATM   21  C19 UNL     1      23.836   5.051  51.780  1.00  0.00     0.004 A 
ENDBRANCH   8  11
ENDBRANCH   1   7
BRANCH   6  22
HETATM   22  N4  UNL     1      25.598  -0.592  53.454  1.00  0.00    -0.370 N 
HETATM   23  H13 UNL     1      25.248  -1.135  52.673  1.00  0.00     0.161 HD
BRANCH  22  24
HETATM   24  C13 UNL     1      24.673  -0.775  54.551  1.00  0.00     0.160 C 
BRANCH  24  25
HETATM   25  C14 UNL     1      23.249  -0.740  54.175  1.00  0.00    -0.038 A 
HETATM   26  C15 UNL     1      22.170  -1.127  54.935  1.00  0.00     0.028 A 
HETATM   27  C16 UNL     1      20.895  -1.027  54.425  1.00  0.00     0.116 A 
HETATM   28  N5  UNL     1      20.668  -0.553  53.179  1.00  0.00    -0.273 NA
HETATM   29  C17 UNL     1      21.688  -0.169  52.413  1.00  0.00     0.116 A 
HETATM   30  C18 UNL     1      22.974  -0.257  52.896  1.00  0.00     0.028 A 
ENDBRANCH  24  25
ENDBRANCH  22  24
ENDBRANCH   6  22
TORSDOF 5
ENDMDL
MODEL 5
REMARK VINA RESULT:      -8.7      4.236      7.404
REMARK  5 active torsions:
REMARK  status: ('A' for Active; 'I' for Inactive)
REMARK    1  A    between atoms: C6_7  and  N2_8 
REMARK       I    between atoms: N2_8  and  C7_9 
REMARK    2  A    between atoms: C7_9  and  C8_11 
REMARK    3  A    between atoms: C12_16  and  N4_17 
REMARK    4  A    between atoms: N4_17  and  C13_18 
REMARK    5  A    between atoms: C13_18  and  C14_19 
ROOT
HETATM    1  C8  UNL     1      25.563   4.942  49.453  1.00  0.00     0.077 A 
HETATM    2  C9  UNL     1      24.188   5.030  49.421  1.00  0.00     0.022 A 
HETATM    3  C10 UNL     1      23.499   6.132  48.955  1.00  0.00     0.020 A 
HETATM    4  C11 UNL     1      24.255   7.184  48.503  1.00  0.00     0.119 A 
HETATM    5  N3  UNL     1      25.589   7.093  48.536  1.00  0.00    -0.243 NA
HETATM    6  C12 UNL     1      26.270   6.025  48.988  1.00  0.00     0.139 A 
ENDROOT
BRANCH   1   7
HETATM    7  C7  UNL     1      26.252   3.767  49.952  1.00  0.00     0.260 C 
HETATM    8  N2  UNL     1      26.007   3.152  51.197  1.00  0.00    -0.323 N 
HETATM    9  H9  UNL     1      25.243   3.663  51.736  1.00  0.00     0.169 HD
HETATM   10  O1  UNL     1      27.142   3.163  49.335  1.00  0.00    -0.267 OA
BRANCH   8  11
HETATM   11  C6  UNL     1      26.544   2.041  51.852  1.00  0.00     0.033 A 
HETATM   12  C5  UNL     1      27.671   2.203  52.762  1.00  0.00     0.054 A 
HETATM   13  C4  UNL     1      28.146   1.129  53.369  1.00  0.00     0.012 A 
HETATM   14  N1  UNL     1      29.241   1.007  54.300  1.00  0.00    -0.392 N 
HETATM   15  C21 UNL     1      27.699  -0.310  53.346  1.00  0.00     0.044 A 
HETATM   16  C3  UNL     1      29.881  -0.315  54.132  1.00  0.00     0.124 C 
HETATM   17  H7  UNL     1      29.565   1.726  55.001  1.00  0.00     0.159 HD
HETATM   18  C2  UNL     1      29.010  -0.965  53.039  1.00  0.00     0.009 C 
HETATM   19  C1  UNL     1      28.982  -2.458  53.253  1.00  0.00     0.012 C 
HETATM   20  C20 UNL     1      26.603  -0.503  52.375  1.00  0.00     0.040 A 
HETATM   21  C19 UNL     1      26.172   0.779  51.777  1.00  0.00     0.004 A 
ENDBRANCH   8  11
ENDBRANCH   1   7
BRANCH   6  22
HETATM   22  N4  UNL     1      27.699   6.093  48.955  1.00  0.00    -0.370 N 
HETATM   23  H13 UNL     1      28.442   5.620  49.457  1.00  0.00     0.161 HD
BRANCH  22  24
HETATM   24  C13 UNL     1      28.325   7.009  48.026  1.00  0.00     0.160 C 
BRANCH  24  25
HETATM   25  C14 UNL     1      29.686   6.633  47.604  1.00  0.00    -0.038 A 
HETATM   26  C15 UNL     1      30.597   7.406  46.924  1.00  0.00     0.028 A 
HETATM   27  C16 UNL     1      31.836   6.893  46.607  1.00  0.00     0.116 A 
HETATM   28  N5  UNL     1      32.187   5.633  46.947  1.00  0.00    -0.273 NA
HETATM   29  C17 UNL     1      31.330   4.854  47.607  1.00  0.00     0.116 A 
HETATM   30  C18 UNL     1      30.085   5.339  47.938  1.00  0.00     0.028 A 
ENDBRANCH  24  25
ENDBRANCH  22  24
ENDBRANCH   6  22
TORSDOF 5
ENDMDL
MODEL 6
REMARK VINA RESULT:      -8.7      1.936      5.520
REMARK  5 active torsions:
REMARK  status: ('A' for Active; 'I' for Inactive)
REMARK    1  A    between atoms: C6_7  and  N2_8 
REMARK       I    between atoms: N2_8  and  C7_9 
REMARK    2  A    between atoms: C7_9  and  C8_11 
REMARK    3  A    between atoms: C12_16  and  N4_17 
REMARK    4  A    between atoms: N4_17  and  C13_18 
REMARK    5  A    between atoms: C13_18  and  C14_19 
ROOT
HETATM    1  C8  UNL     1      27.493   0.914  53.040  1.00  0.00     0.077 A 
HETATM    2  C9  UNL     1      28.820   1.251  53.196  1.00  0.00     0.022 A 
HETATM    3  C10 UNL     1      29.787   0.376  53.649  1.00  0.00     0.020 A 
HETATM    4  C11 UNL     1      29.373  -0.895  53.952  1.00  0.00     0.119 A 
HETATM    5  N3  UNL     1      28.083  -1.218  53.799  1.00  0.00    -0.243 NA
HETATM    6  C12 UNL     1      27.133  -0.374  53.359  1.00  0.00     0.139 A 
ENDROOT
BRANCH   1   7
HETATM    7  C7  UNL     1      26.504   1.862  52.563  1.00  0.00     0.260 C 
HETATM    8  N2  UNL     1      26.315   2.225  51.213  1.00  0.00    -0.323 N 
HETATM    9  H9  UNL     1      26.996   1.710  50.576  1.00  0.00     0.169 HD
HETATM   10  O1  UNL     1      25.706   2.468  53.293  1.00  0.00    -0.267 OA
BRANCH   8  11
HETATM   11  C6  UNL     1      25.442   3.095  50.556  1.00  0.00     0.033 A 
HETATM   12  C5  UNL     1      24.015   2.801  50.509  1.00  0.00     0.054 A 
HETATM   13  C4  UNL     1      23.219   3.652  49.884  1.00  0.00     0.012 A 
HETATM   14  N1  UNL     1      21.791   3.602  49.686  1.00  0.00    -0.392 N 
HETATM   15  C21 UNL     1      23.501   4.971  49.212  1.00  0.00     0.044 A 
HETATM   16  C3  UNL     1      21.453   4.246  48.399  1.00  0.00     0.124 C 
HETATM   17  H7  UNL     1      21.073   3.177  50.332  1.00  0.00     0.159 HD
HETATM   18  C2  UNL     1      22.831   4.719  47.896  1.00  0.00     0.009 C 
HETATM   19  C1  UNL     1      22.655   5.975  47.080  1.00  0.00     0.012 C 
HETATM   20  C20 UNL     1      24.951   5.249  49.190  1.00  0.00     0.040 A 
HETATM   21  C19 UNL     1      25.715   4.220  49.926  1.00  0.00     0.004 A 
ENDBRANCH   8  11
ENDBRANCH   1   7
BRANCH   6  22
HETATM   22  N4  UNL     1      25.800  -0.880  53.254  1.00  0.00    -0.370 N 
HETATM   23  H13 UNL     1      25.263  -1.314  52.510  1.00  0.00     0.161 HD
BRANCH  22  24
HETATM   24  C13 UNL     1      24.939  -0.807  54.415  1.00  0.00     0.160 C 
BRANCH  24  25
HETATM   25  C14 UNL     1      23.501  -0.687  54.116  1.00  0.00    -0.038 A 
HETATM   26  C15 UNL     1      22.447  -1.164  54.859  1.00  0.00     0.028 A 
HETATM   27  C16 UNL     1      21.154  -0.962  54.431  1.00  0.00     0.116 A 
HETATM   28  N5  UNL     1      20.885  -0.299  53.283  1.00  0.00    -0.273 NA
HETATM   29  C17 UNL     1      21.881   0.177  52.537  1.00  0.00     0.116 A 
HETATM   30  C18 UNL     1      23.184  -0.009  52.939  1.00  0.00     0.028 A 
ENDBRANCH  24  25
ENDBRANCH  22  24
ENDBRANCH   6  22
TORSDOF 5
ENDMDL
MODEL 7
REMARK VINA RESULT:      -8.2      2.057      7.394
REMARK  5 active torsions:
REMARK  status: ('A' for Active; 'I' for Inactive)
REMARK    1  A    between atoms: C6_7  and  N2_8 
REMARK       I    between atoms: N2_8  and  C7_9 
REMARK    2  A    between atoms: C7_9  and  C8_11 
REMARK    3  A    between atoms: C12_16  and  N4_17 
REMARK    4  A    between atoms: N4_17  and  C13_18 
REMARK    5  A    between atoms: C13_18  and  C14_19 
ROOT
HETATM    1  C8  UNL     1      23.284   4.007  51.371  1.00  0.00     0.077 A 
HETATM    2  C9  UNL     1      23.374   5.382  51.399  1.00  0.00     0.022 A 
HETATM    3  C10 UNL     1      22.582   6.219  50.638  1.00  0.00     0.020 A 
HETATM    4  C11 UNL     1      21.663   5.618  49.817  1.00  0.00     0.119 A 
HETATM    5  N3  UNL     1      21.580   4.283  49.794  1.00  0.00    -0.243 NA
HETATM    6  C12 UNL     1      22.345   3.459  50.530  1.00  0.00     0.139 A 
ENDROOT
BRANCH   1   7
HETATM    7  C7  UNL     1      24.135   3.160  52.185  1.00  0.00     0.260 C 
HETATM    8  N2  UNL     1      25.077   2.238  51.685  1.00  0.00    -0.323 N 
HETATM    9  H9  UNL     1      25.090   2.238  50.619  1.00  0.00     0.169 HD
HETATM   10  O1  UNL     1      24.131   3.149  53.425  1.00  0.00    -0.267 OA
BRANCH   8  11
HETATM   11  C6  UNL     1      25.975   1.349  52.281  1.00  0.00     0.033 A 
HETATM   12  C5  UNL     1      27.280   1.819  52.730  1.00  0.00     0.054 A 
HETATM   13  C4  UNL     1      28.100   0.950  53.296  1.00  0.00     0.012 A 
HETATM   14  N1  UNL     1      29.430   1.144  53.817  1.00  0.00    -0.392 N 
HETATM   15  C21 UNL     1      27.927  -0.508  53.636  1.00  0.00     0.044 A 
HETATM   16  C3  UNL     1      30.210  -0.099  53.643  1.00  0.00     0.124 C 
HETATM   17  H7  UNL     1      29.821   2.020  54.256  1.00  0.00     0.159 HD
HETATM   18  C2  UNL     1      29.175  -1.050  53.011  1.00  0.00     0.009 C 
HETATM   19  C1  UNL     1      29.477  -2.465  53.439  1.00  0.00     0.012 C 
HETATM   20  C20 UNL     1      26.638  -1.017  53.124  1.00  0.00     0.040 A 
HETATM   21  C19 UNL     1      25.826   0.062  52.522  1.00  0.00     0.004 A 
ENDBRANCH   8  11
ENDBRANCH   1   7
BRANCH   6  22
HETATM   22  N4  UNL     1      22.128   2.052  50.385  1.00  0.00    -0.370 N 
HETATM   23  H13 UNL     1      22.637   1.299  49.937  1.00  0.00     0.161 HD
BRANCH  22  24
HETATM   24  C13 UNL     1      20.941   1.472  50.977  1.00  0.00     0.160 C 
BRANCH  24  25
HETATM   25  C14 UNL     1      21.159   0.793  52.266  1.00  0.00    -0.038 A 
HETATM   26  C15 UNL     1      20.480   0.992  53.445  1.00  0.00     0.028 A 
HETATM   27  C16 UNL     1      20.815   0.265  54.566  1.00  0.00     0.116 A 
HETATM   28  N5  UNL     1      21.808  -0.653  54.542  1.00  0.00    -0.273 NA
HETATM   29  C17 UNL     1      22.489  -0.873  53.418  1.00  0.00     0.116 A 
HETATM   30  C18 UNL     1      22.176  -0.162  52.282  1.00  0.00     0.028 A 
ENDBRANCH  24  25
ENDBRANCH  22  24
ENDBRANCH   6  22
TORSDOF 5
ENDMDL
MODEL 8
REMARK VINA RESULT:      -8.1      3.271      9.162
REMARK  5 active torsions:
REMARK  status: ('A' for Active; 'I' for Inactive)
REMARK    1  A    between atoms: C6_7  and  N2_8 
REMARK       I    between atoms: N2_8  and  C7_9 
REMARK    2  A    between atoms: C7_9  and  C8_11 
REMARK    3  A    between atoms: C12_16  and  N4_17 
REMARK    4  A    between atoms: N4_17  and  C13_18 
REMARK    5  A    between atoms: C13_18  and  C14_19 
ROOT
HETATM    1  C8  UNL     1      24.722   3.181  50.041  1.00  0.00     0.077 A 
HETATM    2  C9  UNL     1      23.772   2.999  49.059  1.00  0.00     0.022 A 
HETATM    3  C10 UNL     1      22.564   2.361  49.268  1.00  0.00     0.020 A 
HETATM    4  C11 UNL     1      22.326   1.894  50.536  1.00  0.00     0.119 A 
HETATM    5  N3  UNL     1      23.252   2.074  51.484  1.00  0.00    -0.243 NA
HETATM    6  C12 UNL     1      24.431   2.693  51.292  1.00  0.00     0.139 A 
ENDROOT
BRANCH   1   7
HETATM    7  C7  UNL     1      25.981   3.855  49.782  1.00  0.00     0.260 C 
HETATM    8  N2  UNL     1      26.144   4.970  48.934  1.00  0.00    -0.323 N 
HETATM    9  H9  UNL     1      25.216   5.263  48.499  1.00  0.00     0.169 HD
HETATM   10  O1  UNL     1      27.066   3.525  50.281  1.00  0.00    -0.267 OA
BRANCH   8  11
HETATM   11  C6  UNL     1      27.239   5.750  48.558  1.00  0.00     0.033 A 
HETATM   12  C5  UNL     1      28.538   5.126  48.334  1.00  0.00     0.054 A 
HETATM   13  C4  UNL     1      29.550   5.896  47.972  1.00  0.00     0.012 A 
HETATM   14  N1  UNL     1      30.921   5.545  47.696  1.00  0.00    -0.392 N 
HETATM   15  C21 UNL     1      29.624   7.372  47.677  1.00  0.00     0.044 A 
HETATM   16  C3  UNL     1      31.800   6.673  48.070  1.00  0.00     0.124 C 
HETATM   17  H7  UNL     1      31.278   4.637  47.295  1.00  0.00     0.159 HD
HETATM   18  C2  UNL     1      30.788   7.733  48.547  1.00  0.00     0.009 C 
HETATM   19  C1  UNL     1      31.335   9.108  48.250  1.00  0.00     0.012 C 
HETATM   20  C20 UNL     1      28.333   8.030  47.966  1.00  0.00     0.040 A 
HETATM   21  C19 UNL     1      27.297   7.051  48.356  1.00  0.00     0.004 A 
ENDBRANCH   8  11
ENDBRANCH   1   7
BRANCH   6  22
HETATM   22  N4  UNL     1      25.310   2.800  52.415  1.00  0.00    -0.370 N 
HETATM   23  H13 UNL     1      26.062   3.431  52.669  1.00  0.00     0.161 HD
BRANCH  22  24
HETATM   24  C13 UNL     1      25.176   1.841  53.491  1.00  0.00     0.160 C 
BRANCH  24  25
HETATM   25  C14 UNL     1      26.218   0.800  53.527  1.00  0.00    -0.038 A 
HETATM   26  C15 UNL     1      27.418   0.837  54.198  1.00  0.00     0.028 A 
HETATM   27  C16 UNL     1      28.283  -0.233  54.124  1.00  0.00     0.116 A 
HETATM   28  N5  UNL     1      27.983  -1.335  53.400  1.00  0.00    -0.273 NA
HETATM   29  C17 UNL     1      26.829  -1.407  52.737  1.00  0.00     0.116 A 
HETATM   30  C18 UNL     1      25.945  -0.353  52.792  1.00  0.00     0.028 A 
ENDBRANCH  24  25
ENDBRANCH  22  24
ENDBRANCH   6  22
TORSDOF 5
ENDMDL
MODEL 9
REMARK VINA RESULT:      -8.0      2.646      5.091
REMARK  5 active torsions:
REMARK  status: ('A' for Active; 'I' for Inactive)
REMARK    1  A    between atoms: C6_7  and  N2_8 
REMARK       I    between atoms: N2_8  and  C7_9 
REMARK    2  A    between atoms: C7_9  and  C8_11 
REMARK    3  A    between atoms: C12_16  and  N4_17 
REMARK    4  A    between atoms: N4_17  and  C13_18 
REMARK    5  A    between atoms: C13_18  and  C14_19 
ROOT
HETATM    1  C8  UNL     1      25.962   5.408  49.604  1.00  0.00     0.077 A 
HETATM    2  C9  UNL     1      26.982   5.350  48.678  1.00  0.00     0.022 A 
HETATM    3  C10 UNL     1      27.749   6.438  48.310  1.00  0.00     0.020 A 
HETATM    4  C11 UNL     1      27.457   7.631  48.920  1.00  0.00     0.119 A 
HETATM    5  N3  UNL     1      26.466   7.682  49.818  1.00  0.00    -0.243 NA
HETATM    6  C12 UNL     1      25.713   6.629  50.183  1.00  0.00     0.139 A 
ENDROOT
BRANCH   1   7
HETATM    7  C7  UNL     1      25.176   4.243  49.963  1.00  0.00     0.260 C 
HETATM    8  N2  UNL     1      25.161   3.637  51.236  1.00  0.00    -0.323 N 
HETATM    9  H9  UNL     1      25.807   4.146  51.914  1.00  0.00     0.169 HD
HETATM   10  O1  UNL     1      24.422   3.641  49.185  1.00  0.00    -0.267 OA
BRANCH   8  11
HETATM   11  C6  UNL     1      24.492   2.537  51.778  1.00  0.00     0.033 A 
HETATM   12  C5  UNL     1      23.056   2.386  51.583  1.00  0.00     0.054 A 
HETATM   13  C4  UNL     1      22.458   1.329  52.105  1.00  0.00     0.012 A 
HETATM   14  N1  UNL     1      21.069   0.944  52.068  1.00  0.00    -0.392 N 
HETATM   15  C21 UNL     1      23.006   0.150  52.868  1.00  0.00     0.044 A 
HETATM   16  C3  UNL     1      20.730   0.215  53.308  1.00  0.00     0.124 C 
HETATM   17  H7  UNL     1      20.374   1.138  51.298  1.00  0.00     0.159 HD
HETATM   18  C2  UNL     1      22.083   0.175  54.046  1.00  0.00     0.009 C 
HETATM   19  C1  UNL     1      22.157  -1.084  54.874  1.00  0.00     0.012 C 
HETATM   20  C20 UNL     1      24.449   0.322  53.135  1.00  0.00     0.040 A 
HETATM   21  C19 UNL     1      24.981   1.541  52.490  1.00  0.00     0.004 A 
ENDBRANCH   8  11
ENDBRANCH   1   7
BRANCH   6  22
HETATM   22  N4  UNL     1      24.692   6.857  51.159  1.00  0.00    -0.370 N 
HETATM   23  H13 UNL     1      24.490   6.473  52.076  1.00  0.00     0.161 HD
BRANCH  22  24
HETATM   24  C13 UNL     1      23.669   7.839  50.872  1.00  0.00     0.160 C 
BRANCH  24  25
HETATM   25  C14 UNL     1      22.359   7.280  50.495  1.00  0.00    -0.038 A 
HETATM   26  C15 UNL     1      21.372   7.883  49.752  1.00  0.00     0.028 A 
HETATM   27  C16 UNL     1      20.198   7.211  49.491  1.00  0.00     0.116 A 
HETATM   28  N5  UNL     1      19.983   5.958  49.950  1.00  0.00    -0.273 NA
HETATM   29  C17 UNL     1      20.917   5.342  50.675  1.00  0.00     0.116 A 
HETATM   30  C18 UNL     1      22.101   5.988  50.952  1.00  0.00     0.028 A 
ENDBRANCH  24  25
ENDBRANCH  22  24
ENDBRANCH   6  22
TORSDOF 5
ENDMDL
