MODEL 1
REMARK VINA RESULT:      -8.3      0.000      0.000
REMARK  1 active torsions:
REMARK  status: ('A' for Active; 'I' for Inactive)
REMARK    1  A    between atoms: C8_9  and  C9_10 
ROOT
HETATM    1  C1  UNL     1      29.160   2.218  54.366  1.00  0.00     0.068 C 
HETATM    2  C2  UNL     1      27.930   2.002  53.642  1.00  0.00     0.003 C 
HETATM    3  C3  UNL     1      27.376   2.128  52.455  1.00  0.00     0.010 C 
HETATM    4  C4  UNL     1      26.182   1.950  51.673  1.00  0.00     0.009 A 
HETATM    5  O1  UNL     1      25.658   1.598  52.866  1.00  0.00     0.000 OA
HETATM    6  C5  UNL     1      24.942   1.639  51.434  1.00  0.00     0.010 A 
HETATM    7  C6  UNL     1      23.558   1.134  51.835  1.00  0.00     0.051 C 
HETATM    8  C7  UNL     1      23.579   0.307  53.056  1.00  0.00     0.017 C 
HETATM    9  C8  UNL     1      22.363   0.252  53.571  1.00  0.00     0.050 C 
HETATM   10  N1  UNL     1      22.125  -0.481  54.801  1.00  0.00    -0.371 N 
HETATM   11  C14 UNL     1      23.037  -1.359  55.475  1.00  0.00     0.273 C 
HETATM   12  N2  UNL     1      24.330  -1.231  54.826  1.00  0.00    -0.251 NA
HETATM   13  C15 UNL     1      24.566  -0.522  53.797  1.00  0.00     0.155 C 
HETATM   14  N3  UNL     1      25.902  -0.976  53.854  1.00  0.00    -0.224 NA
HETATM   15  C16 UNL     1      26.818  -0.109  54.221  1.00  0.00     0.209 C 
HETATM   16  N4  UNL     1      27.136   1.262  54.638  1.00  0.00    -0.355 N 
HETATM   17  H5  UNL     1      25.265   2.258  53.567  1.00  0.00     0.000 HD
HETATM   18  H12 UNL     1      21.268  -0.516  55.426  1.00  0.00     0.161 HD
HETATM   19  H16 UNL     1      26.729   1.410  55.579  1.00  0.00     0.166 HD
ENDROOT
BRANCH   9  20
HETATM   20  C9  UNL     1      21.096   0.814  53.168  1.00  0.00     0.002 C 
HETATM   21  C10 UNL     1      19.935   0.226  52.872  1.00  0.00    -0.013 C 
HETATM   22  C11 UNL     1      19.554   0.527  51.640  1.00  0.00     0.013 C 
HETATM   23  C12 UNL     1      19.546   1.977  51.961  1.00  0.00     0.002 C 
HETATM   24  C13 UNL     1      20.507   2.150  52.917  1.00  0.00     0.014 C 
ENDBRANCH   9  20
TORSDOF 1
ENDMDL
MODEL 2
REMARK VINA RESULT:      -8.2      2.448      5.783
REMARK  1 active torsions:
REMARK  status: ('A' for Active; 'I' for Inactive)
REMARK    1  A    between atoms: C8_9  and  C9_10 
ROOT
HETATM    1  C1  UNL     1      22.022   2.851  48.004  1.00  0.00     0.068 C 
HETATM    2  C2  UNL     1      23.108   2.823  48.954  1.00  0.00     0.003 C 
HETATM    3  C3  UNL     1      24.198   3.464  49.320  1.00  0.00     0.010 C 
HETATM    4  C4  UNL     1      25.313   3.495  50.228  1.00  0.00     0.009 A 
HETATM    5  O1  UNL     1      24.798   2.316  50.633  1.00  0.00     0.000 OA
HETATM    6  C5  UNL     1      26.084   3.088  51.192  1.00  0.00     0.010 A 
HETATM    7  C6  UNL     1      26.488   2.122  52.304  1.00  0.00     0.051 C 
HETATM    8  C7  UNL     1      25.359   1.314  52.802  1.00  0.00     0.017 C 
HETATM    9  C8  UNL     1      25.823   0.251  53.433  1.00  0.00     0.050 C 
HETATM   10  N1  UNL     1      24.905  -0.723  53.994  1.00  0.00    -0.371 N 
HETATM   11  C14 UNL     1      23.483  -0.594  54.129  1.00  0.00     0.273 C 
HETATM   12  N2  UNL     1      23.082   0.605  53.414  1.00  0.00    -0.251 NA
HETATM   13  C15 UNL     1      23.876   1.420  52.846  1.00  0.00     0.155 C 
HETATM   14  N3  UNL     1      22.748   2.191  52.489  1.00  0.00    -0.224 NA
HETATM   15  C16 UNL     1      22.403   2.202  51.222  1.00  0.00     0.209 C 
HETATM   16  N4  UNL     1      22.676   1.741  49.855  1.00  0.00    -0.355 N 
HETATM   17  H5  UNL     1      25.000   1.393  50.199  1.00  0.00     0.000 HD
HETATM   18  H12 UNL     1      25.087  -1.688  54.398  1.00  0.00     0.161 HD
HETATM   19  H16 UNL     1      22.485   0.724  49.819  1.00  0.00     0.166 HD
ENDROOT
BRANCH   9  20
HETATM   20  C9  UNL     1      27.157  -0.225  53.714  1.00  0.00     0.002 C 
HETATM   21  C10 UNL     1      27.980   0.032  54.733  1.00  0.00    -0.013 C 
HETATM   22  C11 UNL     1      29.117   0.555  54.302  1.00  0.00     0.013 C 
HETATM   23  C12 UNL     1      29.388  -0.641  53.465  1.00  0.00     0.002 C 
HETATM   24  C13 UNL     1      28.162  -1.125  53.103  1.00  0.00     0.014 C 
ENDBRANCH   9  20
TORSDOF 1
ENDMDL
MODEL 3
REMARK VINA RESULT:      -7.9      3.359      4.853
REMARK  1 active torsions:
REMARK  status: ('A' for Active; 'I' for Inactive)
REMARK    1  A    between atoms: C8_9  and  C9_10 
ROOT
HETATM    1  C1  UNL     1      25.668   7.496  48.721  1.00  0.00     0.068 C 
HETATM    2  C2  UNL     1      25.033   6.232  49.010  1.00  0.00     0.003 C 
HETATM    3  C3  UNL     1      24.082   5.419  48.602  1.00  0.00     0.010 C 
HETATM    4  C4  UNL     1      23.396   4.177  48.837  1.00  0.00     0.009 A 
HETATM    5  O1  UNL     1      24.185   4.143  49.930  1.00  0.00     0.000 OA
HETATM    6  C5  UNL     1      23.108   3.063  49.443  1.00  0.00     0.010 A 
HETATM    7  C6  UNL     1      23.290   2.019  50.543  1.00  0.00     0.051 C 
HETATM    8  C7  UNL     1      24.625   2.070  51.168  1.00  0.00     0.017 C 
HETATM    9  C8  UNL     1      24.584   1.461  52.340  1.00  0.00     0.050 C 
HETATM   10  N1  UNL     1      25.773   1.401  53.172  1.00  0.00    -0.371 N 
HETATM   11  C14 UNL     1      27.108   1.768  52.800  1.00  0.00     0.273 C 
HETATM   12  N2  UNL     1      27.040   2.414  51.501  1.00  0.00    -0.251 NA
HETATM   13  C15 UNL     1      25.985   2.546  50.803  1.00  0.00     0.155 C 
HETATM   14  N3  UNL     1      26.777   3.178  49.819  1.00  0.00    -0.224 NA
HETATM   15  C16 UNL     1      26.616   4.471  49.656  1.00  0.00     0.209 C 
HETATM   16  N4  UNL     1      25.918   5.698  50.059  1.00  0.00    -0.355 N 
HETATM   17  H5  UNL     1      23.966   4.594  50.842  1.00  0.00     0.000 HD
HETATM   18  H12 UNL     1      25.892   1.090  54.180  1.00  0.00     0.161 HD
HETATM   19  H16 UNL     1      26.221   5.934  51.021  1.00  0.00     0.166 HD
ENDROOT
BRANCH   9  20
HETATM   20  C9  UNL     1      23.534   0.787  53.066  1.00  0.00     0.002 C 
HETATM   21  C10 UNL     1      23.516  -0.400  53.675  1.00  0.00    -0.013 C 
HETATM   22  C11 UNL     1      22.572  -1.178  53.167  1.00  0.00     0.013 C 
HETATM   23  C12 UNL     1      21.521  -0.190  53.522  1.00  0.00     0.002 C 
HETATM   24  C13 UNL     1      22.128   1.034  53.461  1.00  0.00     0.014 C 
ENDBRANCH   9  20
TORSDOF 1
ENDMDL
MODEL 4
REMARK VINA RESULT:      -7.8      2.501      5.749
REMARK  1 active torsions:
REMARK  status: ('A' for Active; 'I' for Inactive)
REMARK    1  A    between atoms: C8_9  and  C9_10 
ROOT
HETATM    1  C1  UNL     1      20.449   2.561  47.891  1.00  0.00     0.068 C 
HETATM    2  C2  UNL     1      21.603   2.540  48.758  1.00  0.00     0.003 C 
HETATM    3  C3  UNL     1      22.759   3.130  48.981  1.00  0.00     0.010 C 
HETATM    4  C4  UNL     1      23.942   3.160  49.797  1.00  0.00     0.009 A 
HETATM    5  O1  UNL     1      23.384   2.062  50.348  1.00  0.00     0.000 OA
HETATM    6  C5  UNL     1      24.759   2.785  50.737  1.00  0.00     0.010 A 
HETATM    7  C6  UNL     1      25.185   1.895  51.902  1.00  0.00     0.051 C 
HETATM    8  C7  UNL     1      24.049   1.220  52.555  1.00  0.00     0.017 C 
HETATM    9  C8  UNL     1      24.492   0.186  53.249  1.00  0.00     0.050 C 
HETATM   10  N1  UNL     1      23.559  -0.665  53.965  1.00  0.00    -0.371 N 
HETATM   11  C14 UNL     1      22.164  -0.421  54.190  1.00  0.00     0.273 C 
HETATM   12  N2  UNL     1      21.786   0.735  53.397  1.00  0.00    -0.251 NA
HETATM   13  C15 UNL     1      22.585   1.437  52.698  1.00  0.00     0.155 C 
HETATM   14  N3  UNL     1      21.486   2.252  52.353  1.00  0.00    -0.224 NA
HETATM   15  C16 UNL     1      21.042   2.175  51.119  1.00  0.00     0.209 C 
HETATM   16  N4  UNL     1      21.174   1.577  49.786  1.00  0.00    -0.355 N 
HETATM   17  H5  UNL     1      23.490   1.092  49.990  1.00  0.00     0.000 HD
HETATM   18  H12 UNL     1      23.709  -1.601  54.443  1.00  0.00     0.161 HD
HETATM   19  H16 UNL     1      20.915   0.576  49.860  1.00  0.00     0.166 HD
ENDROOT
BRANCH   9  20
HETATM   20  C9  UNL     1      25.810  -0.359  53.474  1.00  0.00     0.002 C 
HETATM   21  C10 UNL     1      26.681  -0.156  54.465  1.00  0.00    -0.013 C 
HETATM   22  C11 UNL     1      27.826   0.316  53.998  1.00  0.00     0.013 C 
HETATM   23  C12 UNL     1      28.007  -0.881  53.138  1.00  0.00     0.002 C 
HETATM   24  C13 UNL     1      26.746  -1.300  52.817  1.00  0.00     0.014 C 
ENDBRANCH   9  20
TORSDOF 1
ENDMDL
MODEL 5
REMARK VINA RESULT:      -7.7      7.597     11.223
REMARK  1 active torsions:
REMARK  status: ('A' for Active; 'I' for Inactive)
REMARK    1  A    between atoms: C8_9  and  C9_10 
ROOT
HETATM    1  C1  UNL     1      24.194   6.996  51.207  1.00  0.00     0.068 C 
HETATM    2  C2  UNL     1      25.349   6.673  50.405  1.00  0.00     0.003 C 
HETATM    3  C3  UNL     1      25.800   5.818  49.512  1.00  0.00     0.010 C 
HETATM    4  C4  UNL     1      26.916   5.430  48.691  1.00  0.00     0.009 A 
HETATM    5  O1  UNL     1      27.534   6.427  49.357  1.00  0.00     0.000 OA
HETATM    6  C5  UNL     1      28.121   5.482  48.207  1.00  0.00     0.010 A 
HETATM    7  C6  UNL     1      29.523   6.077  48.089  1.00  0.00     0.051 C 
HETATM    8  C7  UNL     1      29.589   7.483  48.529  1.00  0.00     0.017 C 
HETATM    9  C8  UNL     1      30.843   7.802  48.793  1.00  0.00     0.050 C 
HETATM   10  N1  UNL     1      31.171   9.132  49.275  1.00  0.00    -0.371 N 
HETATM   11  C14 UNL     1      30.300  10.270  49.333  1.00  0.00     0.273 C 
HETATM   12  N2  UNL     1      28.959   9.813  49.016  1.00  0.00    -0.251 NA
HETATM   13  C15 UNL     1      28.650   8.627  48.674  1.00  0.00     0.155 C 
HETATM   14  N3  UNL     1      27.314   9.065  48.549  1.00  0.00    -0.224 NA
HETATM   15  C16 UNL     1      26.456   8.646  49.451  1.00  0.00     0.209 C 
HETATM   16  N4  UNL     1      26.209   7.843  50.654  1.00  0.00    -0.355 N 
HETATM   17  H5  UNL     1      28.003   6.331  50.280  1.00  0.00     0.000 HD
HETATM   18  H12 UNL     1      32.078   9.517  49.670  1.00  0.00     0.161 HD
HETATM   19  H16 UNL     1      26.701   8.296  51.445  1.00  0.00     0.166 HD
ENDROOT
BRANCH   9  20
HETATM   20  C9  UNL     1      32.084   7.068  48.722  1.00  0.00     0.002 C 
HETATM   21  C10 UNL     1      33.186   7.283  48.000  1.00  0.00    -0.013 C 
HETATM   22  C11 UNL     1      33.451   6.245  47.222  1.00  0.00     0.013 C 
HETATM   23  C12 UNL     1      33.547   5.345  48.399  1.00  0.00     0.002 C 
HETATM   24  C13 UNL     1      32.694   5.865  49.333  1.00  0.00     0.014 C 
ENDBRANCH   9  20
TORSDOF 1
ENDMDL
MODEL 6
REMARK VINA RESULT:      -7.5      3.014      4.303
REMARK  1 active torsions:
REMARK  status: ('A' for Active; 'I' for Inactive)
REMARK    1  A    between atoms: C8_9  and  C9_10 
ROOT
HETATM    1  C1  UNL     1      27.032   4.614  48.672  1.00  0.00     0.068 C 
HETATM    2  C2  UNL     1      26.510   3.862  49.788  1.00  0.00     0.003 C 
HETATM    3  C3  UNL     1      26.872   3.156  50.838  1.00  0.00     0.010 C 
HETATM    4  C4  UNL     1      26.424   2.383  51.965  1.00  0.00     0.009 A 
HETATM    5  O1  UNL     1      25.210   2.604  51.418  1.00  0.00     0.000 OA
HETATM    6  C5  UNL     1      25.570   1.808  52.760  1.00  0.00     0.010 A 
HETATM    7  C6  UNL     1      24.160   1.438  53.214  1.00  0.00     0.051 C 
HETATM    8  C7  UNL     1      23.130   2.358  52.696  1.00  0.00     0.017 C 
HETATM    9  C8  UNL     1      21.946   1.775  52.766  1.00  0.00     0.050 C 
HETATM   10  N1  UNL     1      20.763   2.468  52.287  1.00  0.00    -0.371 N 
HETATM   11  C14 UNL     1      20.666   3.845  51.897  1.00  0.00     0.273 C 
HETATM   12  N2  UNL     1      22.013   4.388  51.864  1.00  0.00    -0.251 NA
HETATM   13  C15 UNL     1      23.065   3.759  52.203  1.00  0.00     0.155 C 
HETATM   14  N3  UNL     1      23.797   4.931  51.914  1.00  0.00    -0.224 NA
HETATM   15  C16 UNL     1      24.563   4.916  50.847  1.00  0.00     0.209 C 
HETATM   16  N4  UNL     1      25.072   4.167  49.693  1.00  0.00    -0.355 N 
HETATM   17  H5  UNL     1      24.774   2.024  50.673  1.00  0.00     0.000 HD
HETATM   18  H12 UNL     1      19.775   2.115  52.131  1.00  0.00     0.161 HD
HETATM   19  H16 UNL     1      24.284   4.022  49.036  1.00  0.00     0.166 HD
ENDROOT
BRANCH   9  20
HETATM   20  C9  UNL     1      21.508   0.484  53.240  1.00  0.00     0.002 C 
HETATM   21  C10 UNL     1      20.937   0.123  54.391  1.00  0.00    -0.013 C 
HETATM   22  C11 UNL     1      21.671  -0.783  55.019  1.00  0.00     0.013 C 
HETATM   23  C12 UNL     1      21.571  -1.711  53.864  1.00  0.00     0.002 C 
HETATM   24  C13 UNL     1      21.467  -0.916  52.757  1.00  0.00     0.014 C 
ENDBRANCH   9  20
TORSDOF 1
ENDMDL
MODEL 7
REMARK VINA RESULT:      -7.5      2.200      3.299
REMARK  1 active torsions:
REMARK  status: ('A' for Active; 'I' for Inactive)
REMARK    1  A    between atoms: C8_9  and  C9_10 
ROOT
HETATM    1  C1  UNL     1      29.263   0.238  53.455  1.00  0.00     0.068 C 
HETATM    2  C2  UNL     1      27.828   0.081  53.453  1.00  0.00     0.003 C 
HETATM    3  C3  UNL     1      26.853  -0.655  53.944  1.00  0.00     0.010 C 
HETATM    4  C4  UNL     1      25.433  -0.879  53.981  1.00  0.00     0.009 A 
HETATM    5  O1  UNL     1      25.425   0.104  53.057  1.00  0.00     0.000 OA
HETATM    6  C5  UNL     1      24.182  -0.688  53.681  1.00  0.00     0.010 A 
HETATM    7  C6  UNL     1      23.044   0.027  52.957  1.00  0.00     0.051 C 
HETATM    8  C7  UNL     1      23.404   1.391  52.526  1.00  0.00     0.017 C 
HETATM    9  C8  UNL     1      22.571   1.787  51.579  1.00  0.00     0.050 C 
HETATM   10  N1  UNL     1      22.734   3.092  50.965  1.00  0.00    -0.371 N 
HETATM   11  C14 UNL     1      23.607   4.146  51.392  1.00  0.00     0.273 C 
HETATM   12  N2  UNL     1      24.464   3.611  52.434  1.00  0.00    -0.251 NA
HETATM   13  C15 UNL     1      24.383   2.438  52.920  1.00  0.00     0.155 C 
HETATM   14  N3  UNL     1      25.450   2.775  53.781  1.00  0.00    -0.224 NA
HETATM   15  C16 UNL     1      26.613   2.211  53.548  1.00  0.00     0.209 C 
HETATM   16  N4  UNL     1      27.406   1.290  52.726  1.00  0.00    -0.355 N 
HETATM   17  H5  UNL     1      25.558  -0.033  52.035  1.00  0.00     0.000 HD
HETATM   18  H12 UNL     1      22.265   3.514  50.111  1.00  0.00     0.161 HD
HETATM   19  H16 UNL     1      27.509   1.712  51.786  1.00  0.00     0.166 HD
ENDROOT
BRANCH   9  20
HETATM   20  C9  UNL     1      21.436   1.165  50.941  1.00  0.00     0.002 C 
HETATM   21  C10 UNL     1      21.235   0.809  49.670  1.00  0.00    -0.013 C 
HETATM   22  C11 UNL     1      20.171   1.419  49.171  1.00  0.00     0.013 C 
HETATM   23  C12 UNL     1      19.299   0.822  50.214  1.00  0.00     0.002 C 
HETATM   24  C13 UNL     1      20.094   0.662  51.315  1.00  0.00     0.014 C 
ENDBRANCH   9  20
TORSDOF 1
ENDMDL
MODEL 8
REMARK VINA RESULT:      -7.4      2.231      3.737
REMARK  1 active torsions:
REMARK  status: ('A' for Active; 'I' for Inactive)
REMARK    1  A    between atoms: C8_9  and  C9_10 
ROOT
HETATM    1  C1  UNL     1      27.467  -0.475  52.992  1.00  0.00     0.068 C 
HETATM    2  C2  UNL     1      26.086  -0.518  53.409  1.00  0.00     0.003 C 
HETATM    3  C3  UNL     1      25.299  -0.893  54.396  1.00  0.00     0.010 C 
HETATM    4  C4  UNL     1      23.945  -0.978  54.872  1.00  0.00     0.009 A 
HETATM    5  O1  UNL     1      23.662  -0.505  53.641  1.00  0.00     0.000 OA
HETATM    6  C5  UNL     1      22.651  -0.853  54.833  1.00  0.00     0.010 A 
HETATM    7  C6  UNL     1      21.336  -0.452  54.167  1.00  0.00     0.051 C 
HETATM    8  C7  UNL     1      21.513   0.553  53.104  1.00  0.00     0.017 C 
HETATM    9  C8  UNL     1      20.454   0.549  52.314  1.00  0.00     0.050 C 
HETATM   10  N1  UNL     1      20.397   1.435  51.166  1.00  0.00    -0.371 N 
HETATM   11  C14 UNL     1      21.298   2.507  50.855  1.00  0.00     0.273 C 
HETATM   12  N2  UNL     1      22.412   2.427  51.783  1.00  0.00    -0.251 NA
HETATM   13  C15 UNL     1      22.509   1.597  52.742  1.00  0.00     0.155 C 
HETATM   14  N3  UNL     1      23.739   2.203  53.075  1.00  0.00    -0.224 NA
HETATM   15  C16 UNL     1      24.833   1.516  52.842  1.00  0.00     0.209 C 
HETATM   16  N4  UNL     1      25.440   0.274  52.348  1.00  0.00    -0.355 N 
HETATM   17  H5  UNL     1      23.543  -1.087  52.787  1.00  0.00     0.000 HD
HETATM   18  H12 UNL     1      19.711   1.470  50.356  1.00  0.00     0.161 HD
HETATM   19  H16 UNL     1      25.286   0.231  51.325  1.00  0.00     0.166 HD
ENDROOT
BRANCH   9  20
HETATM   20  C9  UNL     1      19.226  -0.210  52.315  1.00  0.00     0.002 C 
HETATM   21  C10 UNL     1      18.231  -0.263  51.427  1.00  0.00    -0.013 C 
HETATM   22  C11 UNL     1      17.081   0.085  51.985  1.00  0.00     0.013 C 
HETATM   23  C12 UNL     1      17.194  -1.011  52.980  1.00  0.00     0.002 C 
HETATM   24  C13 UNL     1      18.534  -1.194  53.180  1.00  0.00     0.014 C 
ENDBRANCH   9  20
TORSDOF 1
ENDMDL
MODEL 9
REMARK VINA RESULT:      -7.3      1.842      6.099
REMARK  1 active torsions:
REMARK  status: ('A' for Active; 'I' for Inactive)
REMARK    1  A    between atoms: C8_9  and  C9_10 
ROOT
HETATM    1  C1  UNL     1      17.435  -0.209  50.752  1.00  0.00     0.068 C 
HETATM    2  C2  UNL     1      18.687   0.422  51.100  1.00  0.00     0.003 C 
HETATM    3  C3  UNL     1      19.369   1.540  50.972  1.00  0.00     0.010 C 
HETATM    4  C4  UNL     1      20.596   2.227  51.273  1.00  0.00     0.009 A 
HETATM    5  O1  UNL     1      20.942   1.030  51.789  1.00  0.00     0.000 OA
HETATM    6  C5  UNL     1      21.795   2.384  51.751  1.00  0.00     0.010 A 
HETATM    7  C6  UNL     1      23.044   1.910  52.491  1.00  0.00     0.051 C 
HETATM    8  C7  UNL     1      22.781   0.774  53.393  1.00  0.00     0.017 C 
HETATM    9  C8  UNL     1      23.919   0.162  53.672  1.00  0.00     0.050 C 
HETATM   10  N1  UNL     1      23.924  -1.014  54.523  1.00  0.00    -0.371 N 
HETATM   11  C14 UNL     1      22.832  -1.526  55.298  1.00  0.00     0.273 C 
HETATM   12  N2  UNL     1      21.642  -0.781  54.925  1.00  0.00    -0.251 NA
HETATM   13  C15 UNL     1      21.615   0.199  54.114  1.00  0.00     0.155 C 
HETATM   14  N3  UNL     1      20.228   0.299  54.361  1.00  0.00    -0.224 NA
HETATM   15  C16 UNL     1      19.417  -0.062  53.393  1.00  0.00     0.209 C 
HETATM   16  N4  UNL     1      19.261  -0.570  52.025  1.00  0.00    -0.355 N 
HETATM   17  H5  UNL     1      21.355   0.242  51.250  1.00  0.00     0.000 HD
HETATM   18  H12 UNL     1      24.700  -1.707  54.735  1.00  0.00     0.161 HD
HETATM   19  H16 UNL     1      19.590  -1.552  52.012  1.00  0.00     0.166 HD
ENDROOT
BRANCH   9  20
HETATM   20  C9  UNL     1      25.288   0.401  53.283  1.00  0.00     0.002 C 
HETATM   21  C10 UNL     1      26.302   0.955  53.951  1.00  0.00    -0.013 C 
HETATM   22  C11 UNL     1      26.772   2.011  53.305  1.00  0.00     0.013 C 
HETATM   23  C12 UNL     1      27.085   1.184  52.112  1.00  0.00     0.002 C 
HETATM   24  C13 UNL     1      26.158   0.179  52.105  1.00  0.00     0.014 C 
ENDBRANCH   9  20
TORSDOF 1
ENDMDL
