MODEL 1
REMARK VINA RESULT:      -7.3      0.000      0.000
REMARK  7 active torsions:
REMARK  status: ('A' for Active; 'I' for Inactive)
REMARK    1  A    between atoms: C2_2  and  C3_3 
REMARK    2  A    between atoms: C4_4  and  C5_5 
REMARK    3  A    between atoms: C4_4  and  C14_15 
REMARK    4  A    between atoms: C6_6  and  O1_7 
REMARK    5  A    between atoms: O1_7  and  C7_8 
REMARK    6  A    between atoms: C7_8  and  C8_9 
REMARK    7  A    between atoms: C14_15  and  C16_18 
REMARK       I    between atoms: C16_18  and  N2_19 
ROOT
HETATM    1  C14 UNL     1      26.741  -0.381  53.873  1.00  0.00     0.217 C 
HETATM    2  C15 UNL     1      27.829   0.373  54.515  1.00  0.00     0.078 C 
HETATM    3  N1  UNL     1      28.684   0.981  55.011  1.00  0.00    -0.196 NA
ENDROOT
BRANCH   1   4
HETATM    4  C4  UNL     1      25.929   0.500  53.006  1.00  0.00    -0.034 C 
HETATM    5  C3  UNL     1      24.614   0.622  52.968  1.00  0.00    -0.018 C 
BRANCH   5   6
HETATM    6  C2  UNL     1      23.654  -0.108  53.768  1.00  0.00     0.023 C 
HETATM    7  C1  UNL     1      22.676  -0.822  52.821  1.00  0.00     0.009 C 
ENDBRANCH   5   6
BRANCH   4   8
HETATM    8  C5  UNL     1      26.550   1.396  52.059  1.00  0.00     0.033 C 
HETATM    9  C6  UNL     1      26.483   2.166  51.021  1.00  0.00     0.135 C 
BRANCH   9  10
HETATM   10  O1  UNL     1      26.877   3.031  50.031  1.00  0.00    -0.359 OA
BRANCH  10  11
HETATM   11  C7  UNL     1      25.886   3.978  49.588  1.00  0.00     0.213 C 
BRANCH  11  12
HETATM   12  C8  UNL     1      26.654   5.077  48.957  1.00  0.00    -0.034 A 
HETATM   13  C9  UNL     1      26.119   6.328  48.643  1.00  0.00     0.009 A 
HETATM   14  C10 UNL     1      26.949   7.280  48.046  1.00  0.00     0.001 A 
HETATM   15  C11 UNL     1      28.260   7.061  47.749  1.00  0.00     0.000 A 
HETATM   16  C12 UNL     1      28.847   5.825  48.043  1.00  0.00     0.001 A 
HETATM   17  C13 UNL     1      27.981   4.924  48.630  1.00  0.00     0.009 A 
ENDBRANCH  11  12
ENDBRANCH  10  11
ENDBRANCH   9  10
ENDBRANCH   4   8
ENDBRANCH   1   4
BRANCH   1  18
HETATM   18  C16 UNL     1      27.363  -1.503  53.125  1.00  0.00     0.237 C 
HETATM   19  N2  UNL     1      28.622  -2.126  53.250  1.00  0.00    -0.369 N 
HETATM   20  H17 UNL     1      29.224  -2.438  52.466  1.00  0.00     0.159 HD
HETATM   21  H18 UNL     1      29.369  -2.482  53.868  1.00  0.00     0.159 HD
HETATM   22  O2  UNL     1      26.713  -2.066  52.182  1.00  0.00    -0.272 OA
ENDBRANCH   1  18
TORSDOF 7
ENDMDL
MODEL 2
REMARK VINA RESULT:      -7.1      2.794      5.617
REMARK  7 active torsions:
REMARK  status: ('A' for Active; 'I' for Inactive)
REMARK    1  A    between atoms: C2_2  and  C3_3 
REMARK    2  A    between atoms: C4_4  and  C5_5 
REMARK    3  A    between atoms: C4_4  and  C14_15 
REMARK    4  A    between atoms: C6_6  and  O1_7 
REMARK    5  A    between atoms: O1_7  and  C7_8 
REMARK    6  A    between atoms: C7_8  and  C8_9 
REMARK    7  A    between atoms: C14_15  and  C16_18 
REMARK       I    between atoms: C16_18  and  N2_19 
ROOT
HETATM    1  C14 UNL     1      27.573   0.035  52.904  1.00  0.00     0.217 C 
HETATM    2  C15 UNL     1      27.591  -1.437  52.916  1.00  0.00     0.078 C 
HETATM    3  N1  UNL     1      27.588  -2.598  52.923  1.00  0.00    -0.196 NA
ENDROOT
BRANCH   1   4
HETATM    4  C4  UNL     1      26.217   0.543  52.606  1.00  0.00    -0.034 C 
HETATM    5  C3  UNL     1      25.880   1.614  51.909  1.00  0.00    -0.018 C 
BRANCH   5   6
HETATM    6  C2  UNL     1      26.782   2.557  51.284  1.00  0.00     0.023 C 
HETATM    7  C1  UNL     1      26.151   3.029  49.964  1.00  0.00     0.009 C 
ENDBRANCH   5   6
BRANCH   4   8
HETATM    8  C5  UNL     1      25.039  -0.152  53.070  1.00  0.00     0.033 C 
HETATM    9  C6  UNL     1      23.832  -0.142  53.539  1.00  0.00     0.135 C 
BRANCH   9  10
HETATM   10  O1  UNL     1      22.629  -0.604  54.011  1.00  0.00    -0.359 OA
BRANCH  10  11
HETATM   11  C7  UNL     1      21.503   0.278  53.842  1.00  0.00     0.213 C 
BRANCH  11  12
HETATM   12  C8  UNL     1      21.650   0.840  52.480  1.00  0.00    -0.034 A 
HETATM   13  C9  UNL     1      21.296   0.164  51.310  1.00  0.00     0.009 A 
HETATM   14  C10 UNL     1      21.487   0.805  50.083  1.00  0.00     0.001 A 
HETATM   15  C11 UNL     1      22.001   2.060  49.957  1.00  0.00     0.000 A 
HETATM   16  C12 UNL     1      22.371   2.782  51.097  1.00  0.00     0.001 A 
HETATM   17  C13 UNL     1      22.162   2.100  52.280  1.00  0.00     0.009 A 
ENDBRANCH  11  12
ENDBRANCH  10  11
ENDBRANCH   9  10
ENDBRANCH   4   8
ENDBRANCH   1   4
BRANCH   1  18
HETATM   18  C16 UNL     1      28.078   0.491  54.224  1.00  0.00     0.237 C 
HETATM   19  N2  UNL     1      28.798   1.642  54.603  1.00  0.00    -0.369 N 
HETATM   20  H17 UNL     1      29.575   1.672  55.289  1.00  0.00     0.159 HD
HETATM   21  H18 UNL     1      28.950   2.658  54.499  1.00  0.00     0.159 HD
HETATM   22  O2  UNL     1      27.866  -0.226  55.259  1.00  0.00    -0.272 OA
ENDBRANCH   1  18
TORSDOF 7
ENDMDL
MODEL 3
REMARK VINA RESULT:      -7.1      3.525      7.456
REMARK  7 active torsions:
REMARK  status: ('A' for Active; 'I' for Inactive)
REMARK    1  A    between atoms: C2_2  and  C3_3 
REMARK    2  A    between atoms: C4_4  and  C5_5 
REMARK    3  A    between atoms: C4_4  and  C14_15 
REMARK    4  A    between atoms: C6_6  and  O1_7 
REMARK    5  A    between atoms: O1_7  and  C7_8 
REMARK    6  A    between atoms: C7_8  and  C8_9 
REMARK    7  A    between atoms: C14_15  and  C16_18 
REMARK       I    between atoms: C16_18  and  N2_19 
ROOT
HETATM    1  C14 UNL     1      25.359   5.604  49.221  1.00  0.00     0.217 C 
HETATM    2  C15 UNL     1      26.666   5.936  48.632  1.00  0.00     0.078 C 
HETATM    3  N1  UNL     1      27.702   6.182  48.171  1.00  0.00    -0.196 NA
ENDROOT
BRANCH   1   4
HETATM    4  C4  UNL     1      25.285   4.167  49.564  1.00  0.00    -0.034 C 
HETATM    5  C3  UNL     1      24.323   3.307  49.279  1.00  0.00    -0.018 C 
BRANCH   5   6
HETATM    6  C2  UNL     1      23.094   3.589  48.570  1.00  0.00     0.023 C 
HETATM    7  C1  UNL     1      22.222   2.322  48.588  1.00  0.00     0.009 C 
ENDBRANCH   5   6
BRANCH   4   8
HETATM    8  C5  UNL     1      26.354   3.514  50.282  1.00  0.00     0.033 C 
HETATM    9  C6  UNL     1      26.770   2.756  51.246  1.00  0.00     0.135 C 
BRANCH   9  10
HETATM   10  O1  UNL     1      27.630   2.059  52.057  1.00  0.00    -0.359 OA
BRANCH  10  11
HETATM   11  C7  UNL     1      27.025   1.337  53.147  1.00  0.00     0.213 C 
BRANCH  11  12
HETATM   12  C8  UNL     1      27.683   0.009  53.147  1.00  0.00    -0.034 A 
HETATM   13  C9  UNL     1      28.993  -0.216  53.575  1.00  0.00     0.009 A 
HETATM   14  C10 UNL     1      29.499  -1.518  53.521  1.00  0.00     0.001 A 
HETATM   15  C11 UNL     1      28.786  -2.589  53.075  1.00  0.00     0.000 A 
HETATM   16  C12 UNL     1      27.468  -2.418  52.635  1.00  0.00     0.001 A 
HETATM   17  C13 UNL     1      27.022  -1.114  52.708  1.00  0.00     0.009 A 
ENDBRANCH  11  12
ENDBRANCH  10  11
ENDBRANCH   9  10
ENDBRANCH   4   8
ENDBRANCH   1   4
BRANCH   1  18
HETATM   18  C16 UNL     1      25.172   6.484  50.402  1.00  0.00     0.237 C 
HETATM   19  N2  UNL     1      25.981   7.502  50.948  1.00  0.00    -0.369 N 
HETATM   20  H17 UNL     1      26.143   7.671  51.958  1.00  0.00     0.159 HD
HETATM   21  H18 UNL     1      26.608   8.306  50.788  1.00  0.00     0.159 HD
HETATM   22  O2  UNL     1      24.116   6.368  51.110  1.00  0.00    -0.272 OA
ENDBRANCH   1  18
TORSDOF 7
ENDMDL
MODEL 4
REMARK VINA RESULT:      -6.9      3.334      6.390
REMARK  7 active torsions:
REMARK  status: ('A' for Active; 'I' for Inactive)
REMARK    1  A    between atoms: C2_2  and  C3_3 
REMARK    2  A    between atoms: C4_4  and  C5_5 
REMARK    3  A    between atoms: C4_4  and  C14_15 
REMARK    4  A    between atoms: C6_6  and  O1_7 
REMARK    5  A    between atoms: O1_7  and  C7_8 
REMARK    6  A    between atoms: C7_8  and  C8_9 
REMARK    7  A    between atoms: C14_15  and  C16_18 
REMARK       I    between atoms: C16_18  and  N2_19 
ROOT
HETATM    1  C14 UNL     1      27.007   0.294  52.923  1.00  0.00     0.217 C 
HETATM    2  C15 UNL     1      27.368  -1.130  53.020  1.00  0.00     0.078 C 
HETATM    3  N1  UNL     1      27.636  -2.256  53.100  1.00  0.00    -0.196 NA
ENDROOT
BRANCH   1   4
HETATM    4  C4  UNL     1      25.540   0.470  52.981  1.00  0.00    -0.034 C 
HETATM    5  C3  UNL     1      24.786   1.288  52.267  1.00  0.00    -0.018 C 
BRANCH   5   6
HETATM    6  C2  UNL     1      25.239   2.225  51.261  1.00  0.00     0.023 C 
HETATM    7  C1  UNL     1      24.238   3.390  51.198  1.00  0.00     0.009 C 
ENDBRANCH   5   6
BRANCH   4   8
HETATM    8  C5  UNL     1      24.727  -0.312  53.882  1.00  0.00     0.033 C 
HETATM    9  C6  UNL     1      23.571  -0.741  54.278  1.00  0.00     0.135 C 
BRANCH   9  10
HETATM   10  O1  UNL     1      22.631  -1.413  55.017  1.00  0.00    -0.359 OA
BRANCH  10  11
HETATM   11  C7  UNL     1      21.358  -1.629  54.377  1.00  0.00     0.213 C 
BRANCH  11  12
HETATM   12  C8  UNL     1      21.177  -0.470  53.473  1.00  0.00    -0.034 A 
HETATM   13  C9  UNL     1      20.693   0.775  53.882  1.00  0.00     0.009 A 
HETATM   14  C10 UNL     1      20.564   1.789  52.929  1.00  0.00     0.001 A 
HETATM   15  C11 UNL     1      20.886   1.636  51.614  1.00  0.00     0.000 A 
HETATM   16  C12 UNL     1      21.376   0.409  51.152  1.00  0.00     0.001 A 
HETATM   17  C13 UNL     1      21.480  -0.554  52.135  1.00  0.00     0.009 A 
ENDBRANCH  11  12
ENDBRANCH  10  11
ENDBRANCH   9  10
ENDBRANCH   4   8
ENDBRANCH   1   4
BRANCH   1  18
HETATM   18  C16 UNL     1      27.712   1.003  54.020  1.00  0.00     0.237 C 
HETATM   19  N2  UNL     1      28.566   0.535  55.040  1.00  0.00    -0.369 N 
HETATM   20  H17 UNL     1      28.567   0.857  56.025  1.00  0.00     0.159 HD
HETATM   21  H18 UNL     1      29.330  -0.099  55.324  1.00  0.00     0.159 HD
HETATM   22  O2  UNL     1      27.580   2.267  54.137  1.00  0.00    -0.272 OA
ENDBRANCH   1  18
TORSDOF 7
ENDMDL
MODEL 5
REMARK VINA RESULT:      -6.9      2.073      3.037
REMARK  7 active torsions:
REMARK  status: ('A' for Active; 'I' for Inactive)
REMARK    1  A    between atoms: C2_2  and  C3_3 
REMARK    2  A    between atoms: C4_4  and  C5_5 
REMARK    3  A    between atoms: C4_4  and  C14_15 
REMARK    4  A    between atoms: C6_6  and  O1_7 
REMARK    5  A    between atoms: O1_7  and  C7_8 
REMARK    6  A    between atoms: C7_8  and  C8_9 
REMARK    7  A    between atoms: C14_15  and  C16_18 
REMARK       I    between atoms: C16_18  and  N2_19 
ROOT
HETATM    1  C14 UNL     1      25.240  -0.669  53.542  1.00  0.00     0.217 C 
HETATM    2  C15 UNL     1      24.025   0.131  53.324  1.00  0.00     0.078 C 
HETATM    3  N1  UNL     1      23.075   0.772  53.141  1.00  0.00    -0.196 NA
ENDROOT
BRANCH   1   4
HETATM    4  C4  UNL     1      26.302  -0.286  52.587  1.00  0.00    -0.034 C 
HETATM    5  C3  UNL     1      27.457  -0.888  52.364  1.00  0.00    -0.018 C 
BRANCH   5   6
HETATM    6  C2  UNL     1      27.958  -2.071  53.030  1.00  0.00     0.023 C 
HETATM    7  C1  UNL     1      29.442  -1.848  53.363  1.00  0.00     0.009 C 
ENDBRANCH   5   6
BRANCH   4   8
HETATM    8  C5  UNL     1      26.154   0.864  51.726  1.00  0.00     0.033 C 
HETATM    9  C6  UNL     1      26.315   2.127  51.490  1.00  0.00     0.135 C 
BRANCH   9  10
HETATM   10  O1  UNL     1      26.271   3.330  50.831  1.00  0.00    -0.359 OA
BRANCH  10  11
HETATM   11  C7  UNL     1      26.602   3.296  49.429  1.00  0.00     0.213 C 
BRANCH  11  12
HETATM   12  C8  UNL     1      26.933   4.696  49.075  1.00  0.00    -0.034 A 
HETATM   13  C9  UNL     1      26.096   5.786  49.322  1.00  0.00     0.009 A 
HETATM   14  C10 UNL     1      26.523   7.059  48.935  1.00  0.00     0.001 A 
HETATM   15  C11 UNL     1      27.717   7.304  48.327  1.00  0.00     0.000 A 
HETATM   16  C12 UNL     1      28.594   6.247  48.056  1.00  0.00     0.001 A 
HETATM   17  C13 UNL     1      28.120   5.014  48.458  1.00  0.00     0.009 A 
ENDBRANCH  11  12
ENDBRANCH  10  11
ENDBRANCH   9  10
ENDBRANCH   4   8
ENDBRANCH   1   4
BRANCH   1  18
HETATM   18  C16 UNL     1      25.646  -0.476  54.957  1.00  0.00     0.237 C 
HETATM   19  N2  UNL     1      25.316  -1.184  56.130  1.00  0.00    -0.369 N 
HETATM   20  H17 UNL     1      25.116  -0.764  57.057  1.00  0.00     0.159 HD
HETATM   21  H18 UNL     1      25.142  -2.093  56.589  1.00  0.00     0.159 HD
HETATM   22  O2  UNL     1      26.437   0.480  55.258  1.00  0.00    -0.272 OA
ENDBRANCH   1  18
TORSDOF 7
ENDMDL
MODEL 6
REMARK VINA RESULT:      -6.8      3.731      6.869
REMARK  7 active torsions:
REMARK  status: ('A' for Active; 'I' for Inactive)
REMARK    1  A    between atoms: C2_2  and  C3_3 
REMARK    2  A    between atoms: C4_4  and  C5_5 
REMARK    3  A    between atoms: C4_4  and  C14_15 
REMARK    4  A    between atoms: C6_6  and  O1_7 
REMARK    5  A    between atoms: O1_7  and  C7_8 
REMARK    6  A    between atoms: C7_8  and  C8_9 
REMARK    7  A    between atoms: C14_15  and  C16_18 
REMARK       I    between atoms: C16_18  and  N2_19 
ROOT
HETATM    1  C14 UNL     1      23.573   4.083  50.686  1.00  0.00     0.217 C 
HETATM    2  C15 UNL     1      24.846   4.459  50.051  1.00  0.00     0.078 C 
HETATM    3  N1  UNL     1      25.856   4.741  49.554  1.00  0.00    -0.196 NA
ENDROOT
BRANCH   1   4
HETATM    4  C4  UNL     1      23.605   2.675  51.136  1.00  0.00    -0.034 C 
HETATM    5  C3  UNL     1      22.726   1.719  50.893  1.00  0.00    -0.018 C 
BRANCH   5   6
HETATM    6  C2  UNL     1      21.502   1.843  50.132  1.00  0.00     0.023 C 
HETATM    7  C1  UNL     1      21.756   1.309  48.713  1.00  0.00     0.009 C 
ENDBRANCH   5   6
BRANCH   4   8
HETATM    8  C5  UNL     1      24.699   2.168  51.931  1.00  0.00     0.033 C 
HETATM    9  C6  UNL     1      25.420   2.190  53.006  1.00  0.00     0.135 C 
BRANCH   9  10
HETATM   10  O1  UNL     1      26.401   1.858  53.907  1.00  0.00    -0.359 OA
BRANCH  10  11
HETATM   11  C7  UNL     1      27.758   1.997  53.444  1.00  0.00     0.213 C 
BRANCH  11  12
HETATM   12  C8  UNL     1      28.298   0.618  53.402  1.00  0.00    -0.034 A 
HETATM   13  C9  UNL     1      29.607   0.277  53.748  1.00  0.00     0.009 A 
HETATM   14  C10 UNL     1      29.995  -1.063  53.662  1.00  0.00     0.001 A 
HETATM   15  C11 UNL     1      29.166  -2.066  53.259  1.00  0.00     0.000 A 
HETATM   16  C12 UNL     1      27.843  -1.779  52.901  1.00  0.00     0.001 A 
HETATM   17  C13 UNL     1      27.517  -0.442  53.004  1.00  0.00     0.009 A 
ENDBRANCH  11  12
ENDBRANCH  10  11
ENDBRANCH   9  10
ENDBRANCH   4   8
ENDBRANCH   1   4
BRANCH   1  18
HETATM   18  C16 UNL     1      23.339   5.035  51.801  1.00  0.00     0.237 C 
HETATM   19  N2  UNL     1      24.096   6.126  52.274  1.00  0.00    -0.369 N 
HETATM   20  H17 UNL     1      24.246   6.374  53.270  1.00  0.00     0.159 HD
HETATM   21  H18 UNL     1      24.686   6.946  52.059  1.00  0.00     0.159 HD
HETATM   22  O2  UNL     1      22.286   4.920  52.513  1.00  0.00    -0.272 OA
ENDBRANCH   1  18
TORSDOF 7
ENDMDL
MODEL 7
REMARK VINA RESULT:      -6.6      3.531      7.915
REMARK  7 active torsions:
REMARK  status: ('A' for Active; 'I' for Inactive)
REMARK    1  A    between atoms: C2_2  and  C3_3 
REMARK    2  A    between atoms: C4_4  and  C5_5 
REMARK    3  A    between atoms: C4_4  and  C14_15 
REMARK    4  A    between atoms: C6_6  and  O1_7 
REMARK    5  A    between atoms: O1_7  and  C7_8 
REMARK    6  A    between atoms: C7_8  and  C8_9 
REMARK    7  A    between atoms: C14_15  and  C16_18 
REMARK       I    between atoms: C16_18  and  N2_19 
ROOT
HETATM    1  C14 UNL     1      27.300   6.949  48.287  1.00  0.00     0.217 C 
HETATM    2  C15 UNL     1      28.621   6.359  48.018  1.00  0.00     0.078 C 
HETATM    3  N1  UNL     1      29.657   5.879  47.813  1.00  0.00    -0.196 NA
ENDROOT
BRANCH   1   4
HETATM    4  C4  UNL     1      26.339   5.913  48.724  1.00  0.00    -0.034 C 
HETATM    5  C3  UNL     1      25.028   5.894  48.561  1.00  0.00    -0.018 C 
BRANCH   5   6
HETATM    6  C2  UNL     1      24.221   6.912  47.923  1.00  0.00     0.023 C 
HETATM    7  C1  UNL     1      23.517   7.730  49.018  1.00  0.00     0.009 C 
ENDBRANCH   5   6
BRANCH   4   8
HETATM    8  C5  UNL     1      26.784   4.720  49.405  1.00  0.00     0.033 C 
HETATM    9  C6  UNL     1      26.553   3.539  49.882  1.00  0.00     0.135 C 
BRANCH   9  10
HETATM   10  O1  UNL     1      26.773   2.334  50.501  1.00  0.00    -0.359 OA
BRANCH  10  11
HETATM   11  C7  UNL     1      26.249   2.206  51.837  1.00  0.00     0.213 C 
BRANCH  11  12
HETATM   12  C8  UNL     1      27.238   1.376  52.564  1.00  0.00    -0.034 A 
HETATM   13  C9  UNL     1      28.289   1.893  53.323  1.00  0.00     0.009 A 
HETATM   14  C10 UNL     1      29.158   1.002  53.959  1.00  0.00     0.001 A 
HETATM   15  C11 UNL     1      29.039  -0.353  53.884  1.00  0.00     0.000 A 
HETATM   16  C12 UNL     1      28.002  -0.924  53.137  1.00  0.00     0.001 A 
HETATM   17  C13 UNL     1      27.178   0.002  52.530  1.00  0.00     0.009 A 
ENDBRANCH  11  12
ENDBRANCH  10  11
ENDBRANCH   9  10
ENDBRANCH   4   8
ENDBRANCH   1   4
BRANCH   1  18
HETATM   18  C16 UNL     1      27.492   8.015  49.303  1.00  0.00     0.237 C 
HETATM   19  N2  UNL     1      26.816   8.292  50.509  1.00  0.00    -0.369 N 
HETATM   20  H17 UNL     1      26.562   9.234  50.859  1.00  0.00     0.159 HD
HETATM   21  H18 UNL     1      26.367   7.933  51.367  1.00  0.00     0.159 HD
HETATM   22  O2  UNL     1      28.414   8.881  49.135  1.00  0.00    -0.272 OA
ENDBRANCH   1  18
TORSDOF 7
ENDMDL
MODEL 8
REMARK VINA RESULT:      -6.6      3.297      7.742
REMARK  7 active torsions:
REMARK  status: ('A' for Active; 'I' for Inactive)
REMARK    1  A    between atoms: C2_2  and  C3_3 
REMARK    2  A    between atoms: C4_4  and  C5_5 
REMARK    3  A    between atoms: C4_4  and  C14_15 
REMARK    4  A    between atoms: C6_6  and  O1_7 
REMARK    5  A    between atoms: O1_7  and  C7_8 
REMARK    6  A    between atoms: C7_8  and  C8_9 
REMARK    7  A    between atoms: C14_15  and  C16_18 
REMARK       I    between atoms: C16_18  and  N2_19 
ROOT
HETATM    1  C14 UNL     1      25.198   5.234  49.360  1.00  0.00     0.217 C 
HETATM    2  C15 UNL     1      26.607   5.124  48.949  1.00  0.00     0.078 C 
HETATM    3  N1  UNL     1      27.718   5.021  48.632  1.00  0.00    -0.196 NA
ENDROOT
BRANCH   1   4
HETATM    4  C4  UNL     1      24.699   3.944  49.882  1.00  0.00    -0.034 C 
HETATM    5  C3  UNL     1      23.722   3.192  49.406  1.00  0.00    -0.018 C 
BRANCH   5   6
HETATM    6  C2  UNL     1      22.894   3.477  48.254  1.00  0.00     0.023 C 
HETATM    7  C1  UNL     1      22.352   2.148  47.704  1.00  0.00     0.009 C 
ENDBRANCH   5   6
BRANCH   4   8
HETATM    8  C5  UNL     1      25.295   3.326  51.043  1.00  0.00     0.033 C 
HETATM    9  C6  UNL     1      25.419   2.321  51.851  1.00  0.00     0.135 C 
BRANCH   9  10
HETATM   10  O1  UNL     1      25.862   1.563  52.905  1.00  0.00    -0.359 OA
BRANCH  10  11
HETATM   11  C7  UNL     1      25.786   0.135  52.734  1.00  0.00     0.213 C 
BRANCH  11  12
HETATM   12  C8  UNL     1      24.560  -0.279  53.453  1.00  0.00    -0.034 A 
HETATM   13  C9  UNL     1      23.265  -0.107  52.960  1.00  0.00     0.009 A 
HETATM   14  C10 UNL     1      22.188  -0.538  53.739  1.00  0.00     0.001 A 
HETATM   15  C11 UNL     1      22.326  -1.123  54.961  1.00  0.00     0.000 A 
HETATM   16  C12 UNL     1      23.602  -1.320  55.503  1.00  0.00     0.001 A 
HETATM   17  C13 UNL     1      24.626  -0.874  54.691  1.00  0.00     0.009 A 
ENDBRANCH  11  12
ENDBRANCH  10  11
ENDBRANCH   9  10
ENDBRANCH   4   8
ENDBRANCH   1   4
BRANCH   1  18
HETATM   18  C16 UNL     1      25.116   6.327  50.361  1.00  0.00     0.237 C 
HETATM   19  N2  UNL     1      26.051   7.303  50.760  1.00  0.00    -0.369 N 
HETATM   20  H17 UNL     1      26.215   7.625  51.731  1.00  0.00     0.159 HD
HETATM   21  H18 UNL     1      26.790   7.973  50.492  1.00  0.00     0.159 HD
HETATM   22  O2  UNL     1      24.040   6.485  51.030  1.00  0.00    -0.272 OA
ENDBRANCH   1  18
TORSDOF 7
ENDMDL
MODEL 9
REMARK VINA RESULT:      -6.5      4.623      7.433
REMARK  7 active torsions:
REMARK  status: ('A' for Active; 'I' for Inactive)
REMARK    1  A    between atoms: C2_2  and  C3_3 
REMARK    2  A    between atoms: C4_4  and  C5_5 
REMARK    3  A    between atoms: C4_4  and  C14_15 
REMARK    4  A    between atoms: C6_6  and  O1_7 
REMARK    5  A    between atoms: O1_7  and  C7_8 
REMARK    6  A    between atoms: C7_8  and  C8_9 
REMARK    7  A    between atoms: C14_15  and  C16_18 
REMARK       I    between atoms: C16_18  and  N2_19 
ROOT
HETATM    1  C14 UNL     1      25.818   6.371  48.848  1.00  0.00     0.217 C 
HETATM    2  C15 UNL     1      25.992   7.350  47.763  1.00  0.00     0.078 C 
HETATM    3  N1  UNL     1      26.145   8.116  46.905  1.00  0.00    -0.196 NA
ENDROOT
BRANCH   1   4
HETATM    4  C4  UNL     1      26.891   5.354  48.817  1.00  0.00    -0.034 C 
HETATM    5  C3  UNL     1      26.847   4.107  49.252  1.00  0.00    -0.018 C 
BRANCH   5   6
HETATM    6  C2  UNL     1      25.724   3.450  49.884  1.00  0.00     0.023 C 
HETATM    7  C1  UNL     1      26.262   2.521  50.985  1.00  0.00     0.009 C 
ENDBRANCH   5   6
BRANCH   4   8
HETATM    8  C5  UNL     1      28.183   5.647  48.244  1.00  0.00     0.033 C 
HETATM    9  C6  UNL     1      29.410   6.042  48.365  1.00  0.00     0.135 C 
BRANCH   9  10
HETATM   10  O1  UNL     1      30.697   6.373  48.023  1.00  0.00    -0.359 OA
BRANCH  10  11
HETATM   11  C7  UNL     1      31.732   5.868  48.887  1.00  0.00     0.213 C 
BRANCH  11  12
HETATM   12  C8  UNL     1      32.492   4.901  48.061  1.00  0.00    -0.034 A 
HETATM   13  C9  UNL     1      31.911   4.051  47.117  1.00  0.00     0.009 A 
HETATM   14  C10 UNL     1      32.739   3.180  46.402  1.00  0.00     0.001 A 
HETATM   15  C11 UNL     1      34.088   3.110  46.572  1.00  0.00     0.000 A 
HETATM   16  C12 UNL     1      34.721   3.940  47.505  1.00  0.00     0.001 A 
HETATM   17  C13 UNL     1      33.856   4.777  48.181  1.00  0.00     0.009 A 
ENDBRANCH  11  12
ENDBRANCH  10  11
ENDBRANCH   9  10
ENDBRANCH   4   8
ENDBRANCH   1   4
BRANCH   1  18
HETATM   18  C16 UNL     1      25.784   7.129  50.124  1.00  0.00     0.237 C 
HETATM   19  N2  UNL     1      24.993   6.979  51.281  1.00  0.00    -0.369 N 
HETATM   20  H17 UNL     1      24.583   7.750  51.840  1.00  0.00     0.159 HD
HETATM   21  H18 UNL     1      24.540   6.346  51.960  1.00  0.00     0.159 HD
HETATM   22  O2  UNL     1      26.583   8.110  50.292  1.00  0.00    -0.272 OA
ENDBRANCH   1  18
TORSDOF 7
ENDMDL
