MODEL 1
REMARK VINA RESULT:      -9.0      0.000      0.000
REMARK  3 active torsions:
REMARK  status: ('A' for Active; 'I' for Inactive)
REMARK    1  A    between atoms: C12_12  and  O1_13 
REMARK    2  A    between atoms: N1_18  and  C18_21 
REMARK    3  A    between atoms: N2_20  and  C18_21 
ROOT
HETATM    1  C1  UNL     1      26.281   2.851  50.578  1.00  0.00     0.048 C 
HETATM    2  C2  UNL     1      25.683   1.833  51.546  1.00  0.00    -0.012 C 
HETATM    3  C3  UNL     1      26.720   0.962  51.747  1.00  0.00    -0.012 C 
HETATM    4  C4  UNL     1      27.011  -0.238  52.481  1.00  0.00     0.026 C 
HETATM    5  C5  UNL     1      28.195   0.077  53.415  1.00  0.00     0.018 C 
HETATM    6  C6  UNL     1      26.002  -0.878  53.299  1.00  0.00    -0.021 C 
HETATM    7  C7  UNL     1      24.744  -0.761  53.715  1.00  0.00     0.003 C 
HETATM    8  C8  UNL     1      23.681   0.209  53.486  1.00  0.00     0.217 C 
HETATM    9  C9  UNL     1      22.349  -0.426  53.000  1.00  0.00     0.038 C 
HETATM   10  C10 UNL     1      21.388   0.750  53.154  1.00  0.00    -0.014 C 
HETATM   11  C11 UNL     1      20.623   1.807  52.982  1.00  0.00     0.080 C 
HETATM   12  C12 UNL     1      20.587   2.471  51.644  1.00  0.00     0.045 C 
HETATM   13  C13 UNL     1      20.976   2.597  50.339  1.00  0.00     0.008 C 
HETATM   14  C14 UNL     1      21.964   1.442  50.204  1.00  0.00     0.081 C 
HETATM   15  C15 UNL     1      23.141   1.679  50.950  1.00  0.00     0.300 A 
HETATM   16  C16 UNL     1      23.818   2.371  51.766  1.00  0.00     0.546 A 
HETATM   17  N1  UNL     1      24.350   3.229  52.651  1.00  0.00     0.247 N 
HETATM   18  C17 UNL     1      23.458   4.224  53.072  1.00  0.00     0.539 A 
HETATM   19  N2  UNL     1      24.320   3.280  52.678  1.00  0.00     0.247 N 
HETATM   20  C18 UNL     1      24.173   2.274  51.828  1.00  0.00     0.452 A 
HETATM   21  N3  UNL     1      24.020   0.817  52.098  1.00  0.00     0.023 N 
HETATM   22  H21 UNL     1      24.338  -0.096  51.617  1.00  0.00     0.287 HD
ENDROOT
BRANCH  12  23
HETATM   23  O1  UNL     1      19.645   3.388  52.191  1.00  0.00    -0.365 OA
HETATM   24  H16 UNL     1      19.835   4.386  52.110  1.00  0.00     0.217 HD
ENDBRANCH  12  23
TORSDOF 3
ENDMDL
MODEL 2
REMARK VINA RESULT:      -8.4      2.001      4.352
REMARK  3 active torsions:
REMARK  status: ('A' for Active; 'I' for Inactive)
REMARK    1  A    between atoms: C12_12  and  O1_13 
REMARK    2  A    between atoms: N1_18  and  C18_21 
REMARK    3  A    between atoms: N2_20  and  C18_21 
ROOT
HETATM    1  C1  UNL     1      20.083   1.882  52.635  1.00  0.00     0.048 C 
HETATM    2  C2  UNL     1      21.486   1.309  52.814  1.00  0.00    -0.012 C 
HETATM    3  C3  UNL     1      21.309   0.375  53.798  1.00  0.00    -0.012 C 
HETATM    4  C4  UNL     1      22.074  -0.583  54.546  1.00  0.00     0.026 C 
HETATM    5  C5  UNL     1      21.456  -1.968  54.278  1.00  0.00     0.018 C 
HETATM    6  C6  UNL     1      23.501  -0.724  54.341  1.00  0.00    -0.021 C 
HETATM    7  C7  UNL     1      24.517  -0.268  53.614  1.00  0.00     0.003 C 
HETATM    8  C8  UNL     1      24.648   0.721  52.553  1.00  0.00     0.217 C 
HETATM    9  C9  UNL     1      25.742   1.791  52.826  1.00  0.00     0.038 C 
HETATM   10  C10 UNL     1      25.851   2.457  51.457  1.00  0.00    -0.014 C 
HETATM   11  C11 UNL     1      25.745   3.238  50.403  1.00  0.00     0.080 C 
HETATM   12  C12 UNL     1      24.830   4.418  50.459  1.00  0.00     0.045 C 
HETATM   13  C13 UNL     1      23.920   5.222  51.089  1.00  0.00     0.008 C 
HETATM   14  C14 UNL     1      23.787   4.527  52.441  1.00  0.00     0.081 C 
HETATM   15  C15 UNL     1      23.135   3.279  52.320  1.00  0.00     0.300 A 
HETATM   16  C16 UNL     1      22.622   2.357  51.619  1.00  0.00     0.546 A 
HETATM   17  N1  UNL     1      22.152   1.499  50.700  1.00  0.00     0.247 N 
HETATM   18  C17 UNL     1      22.427   1.884  49.382  1.00  0.00     0.539 A 
HETATM   19  N2  UNL     1      22.157   1.506  50.636  1.00  0.00     0.247 N 
HETATM   20  C18 UNL     1      22.448   2.078  51.794  1.00  0.00     0.452 A 
HETATM   21  N3  UNL     1      23.473   1.704  52.809  1.00  0.00     0.023 N 
HETATM   22  H21 UNL     1      23.540   1.726  53.887  1.00  0.00     0.287 HD
ENDROOT
BRANCH  12  23
HETATM   23  O1  UNL     1      25.238   4.722  49.129  1.00  0.00    -0.365 OA
HETATM   24  H16 UNL     1      24.687   5.391  48.593  1.00  0.00     0.217 HD
ENDBRANCH  12  23
TORSDOF 3
ENDMDL
MODEL 3
REMARK VINA RESULT:      -8.3      2.381      4.279
REMARK  3 active torsions:
REMARK  status: ('A' for Active; 'I' for Inactive)
REMARK    1  A    between atoms: C12_12  and  O1_13 
REMARK    2  A    between atoms: N1_18  and  C18_21 
REMARK    3  A    between atoms: N2_20  and  C18_21 
ROOT
HETATM    1  C1  UNL     1      25.321   2.203  53.838  1.00  0.00     0.048 C 
HETATM    2  C2  UNL     1      24.235   1.986  52.787  1.00  0.00    -0.012 C 
HETATM    3  C3  UNL     1      23.691   0.786  53.158  1.00  0.00    -0.012 C 
HETATM    4  C4  UNL     1      22.663  -0.124  52.737  1.00  0.00     0.026 C 
HETATM    5  C5  UNL     1      21.671  -0.263  53.907  1.00  0.00     0.018 C 
HETATM    6  C6  UNL     1      21.868   0.141  51.555  1.00  0.00    -0.021 C 
HETATM    7  C7  UNL     1      21.674   1.031  50.586  1.00  0.00     0.003 C 
HETATM    8  C8  UNL     1      22.271   2.315  50.248  1.00  0.00     0.217 C 
HETATM    9  C9  UNL     1      22.778   2.403  48.782  1.00  0.00     0.038 C 
HETATM   10  C10 UNL     1      23.042   3.901  48.650  1.00  0.00    -0.014 C 
HETATM   11  C11 UNL     1      23.563   5.108  48.608  1.00  0.00     0.080 C 
HETATM   12  C12 UNL     1      25.010   5.290  48.930  1.00  0.00     0.045 C 
HETATM   13  C13 UNL     1      26.241   4.821  49.302  1.00  0.00     0.008 C 
HETATM   14  C14 UNL     1      25.960   3.331  49.469  1.00  0.00     0.081 C 
HETATM   15  C15 UNL     1      25.132   3.083  50.588  1.00  0.00     0.300 A 
HETATM   16  C16 UNL     1      24.413   3.487  51.549  1.00  0.00     0.546 A 
HETATM   17  N1  UNL     1      23.689   4.120  52.485  1.00  0.00     0.247 N 
HETATM   18  C17 UNL     1      23.642   5.509  52.312  1.00  0.00     0.539 A 
HETATM   19  N2  UNL     1      23.679   4.184  52.489  1.00  0.00     0.247 N 
HETATM   20  C18 UNL     1      24.281   3.234  51.789  1.00  0.00     0.452 A 
HETATM   21  N3  UNL     1      23.701   2.234  50.849  1.00  0.00     0.023 N 
HETATM   22  H21 UNL     1      23.904   1.205  50.591  1.00  0.00     0.287 HD
ENDROOT
BRANCH  12  23
HETATM   23  O1  UNL     1      24.833   6.679  48.674  1.00  0.00    -0.365 OA
HETATM   24  H16 UNL     1      25.120   7.345  49.389  1.00  0.00     0.217 HD
ENDBRANCH  12  23
TORSDOF 3
ENDMDL
MODEL 4
REMARK VINA RESULT:      -8.1      1.616      2.990
REMARK  3 active torsions:
REMARK  status: ('A' for Active; 'I' for Inactive)
REMARK    1  A    between atoms: C12_12  and  O1_13 
REMARK    2  A    between atoms: N1_18  and  C18_21 
REMARK    3  A    between atoms: N2_20  and  C18_21 
ROOT
HETATM    1  C1  UNL     1      25.471   0.613  52.328  1.00  0.00     0.048 C 
HETATM    2  C2  UNL     1      23.986   0.632  52.679  1.00  0.00    -0.012 C 
HETATM    3  C3  UNL     1      23.837  -0.503  53.429  1.00  0.00    -0.012 C 
HETATM    4  C4  UNL     1      22.810  -1.223  54.130  1.00  0.00     0.026 C 
HETATM    5  C5  UNL     1      23.240  -1.307  55.606  1.00  0.00     0.018 C 
HETATM    6  C6  UNL     1      21.438  -0.759  54.128  1.00  0.00    -0.021 C 
HETATM    7  C7  UNL     1      20.651   0.221  53.692  1.00  0.00     0.003 C 
HETATM    8  C8  UNL     1      20.868   1.430  52.909  1.00  0.00     0.217 C 
HETATM    9  C9  UNL     1      19.925   1.555  51.679  1.00  0.00     0.038 C 
HETATM   10  C10 UNL     1      20.166   3.006  51.270  1.00  0.00    -0.014 C 
HETATM   11  C11 UNL     1      20.579   4.127  50.718  1.00  0.00     0.080 C 
HETATM   12  C12 UNL     1      21.643   4.076  49.671  1.00  0.00     0.045 C 
HETATM   13  C13 UNL     1      22.543   3.410  48.883  1.00  0.00     0.008 C 
HETATM   14  C14 UNL     1      22.323   1.966  49.326  1.00  0.00     0.081 C 
HETATM   15  C15 UNL     1      22.781   1.754  50.646  1.00  0.00     0.300 A 
HETATM   16  C16 UNL     1      23.259   2.182  51.738  1.00  0.00     0.546 A 
HETATM   17  N1  UNL     1      23.744   2.839  52.803  1.00  0.00     0.247 N 
HETATM   18  C17 UNL     1      23.770   4.230  52.639  1.00  0.00     0.539 A 
HETATM   19  N2  UNL     1      23.751   2.904  52.808  1.00  0.00     0.247 N 
HETATM   20  C18 UNL     1      23.353   1.934  51.999  1.00  0.00     0.452 A 
HETATM   21  N3  UNL     1      22.119   1.100  52.049  1.00  0.00     0.023 N 
HETATM   22  H21 UNL     1      21.866   0.076  51.819  1.00  0.00     0.287 HD
ENDROOT
BRANCH  12  23
HETATM   23  O1  UNL     1      21.530   5.491  49.571  1.00  0.00    -0.365 OA
HETATM   24  H16 UNL     1      21.862   5.946  48.721  1.00  0.00     0.217 HD
ENDBRANCH  12  23
TORSDOF 3
ENDMDL
MODEL 5
REMARK VINA RESULT:      -7.7      8.460     11.509
REMARK  3 active torsions:
REMARK  status: ('A' for Active; 'I' for Inactive)
REMARK    1  A    between atoms: C12_12  and  O1_13 
REMARK    2  A    between atoms: N1_18  and  C18_21 
REMARK    3  A    between atoms: N2_20  and  C18_21 
ROOT
HETATM    1  C1  UNL     1      28.522   5.499  48.430  1.00  0.00     0.048 C 
HETATM    2  C2  UNL     1      29.575   6.287  47.656  1.00  0.00    -0.012 C 
HETATM    3  C3  UNL     1      28.824   7.206  46.974  1.00  0.00    -0.012 C 
HETATM    4  C4  UNL     1      29.000   8.289  46.047  1.00  0.00     0.026 C 
HETATM    5  C5  UNL     1      28.424   9.554  46.711  1.00  0.00     0.018 C 
HETATM    6  C6  UNL     1      30.314   8.646  45.555  1.00  0.00    -0.021 C 
HETATM    7  C7  UNL     1      31.604   8.337  45.657  1.00  0.00     0.003 C 
HETATM    8  C8  UNL     1      32.359   7.356  46.424  1.00  0.00     0.217 C 
HETATM    9  C9  UNL     1      33.303   6.476  45.557  1.00  0.00     0.038 C 
HETATM   10  C10 UNL     1      34.150   5.803  46.634  1.00  0.00    -0.014 C 
HETATM   11  C11 UNL     1      34.671   4.991  47.529  1.00  0.00     0.080 C 
HETATM   12  C12 UNL     1      34.001   3.684  47.805  1.00  0.00     0.045 C 
HETATM   13  C13 UNL     1      33.008   2.763  47.615  1.00  0.00     0.008 C 
HETATM   14  C14 UNL     1      32.146   3.460  46.566  1.00  0.00     0.081 C 
HETATM   15  C15 UNL     1      31.486   4.588  47.105  1.00  0.00     0.300 A 
HETATM   16  C16 UNL     1      31.271   5.402  48.052  1.00  0.00     0.546 A 
HETATM   17  N1  UNL     1      31.206   6.154  49.162  1.00  0.00     0.247 N 
HETATM   18  C17 UNL     1      32.136   5.786  50.142  1.00  0.00     0.539 A 
HETATM   19  N2  UNL     1      31.243   6.147  49.215  1.00  0.00     0.247 N 
HETATM   20  C18 UNL     1      31.000   5.654  48.009  1.00  0.00     0.452 A 
HETATM   21  N3  UNL     1      31.342   6.208  46.669  1.00  0.00     0.023 N 
HETATM   22  H21 UNL     1      30.876   6.222  45.695  1.00  0.00     0.287 HD
ENDROOT
BRANCH  12  23
HETATM   23  O1  UNL     1      35.041   3.416  48.740  1.00  0.00    -0.365 OA
HETATM   24  H16 UNL     1      35.387   2.461  48.821  1.00  0.00     0.217 HD
ENDBRANCH  12  23
TORSDOF 3
ENDMDL
MODEL 6
REMARK VINA RESULT:      -7.7      2.043      2.536
REMARK  3 active torsions:
REMARK  status: ('A' for Active; 'I' for Inactive)
REMARK    1  A    between atoms: C12_12  and  O1_13 
REMARK    2  A    between atoms: N1_18  and  C18_21 
REMARK    3  A    between atoms: N2_20  and  C18_21 
ROOT
HETATM    1  C1  UNL     1      26.763   3.799  49.330  1.00  0.00     0.048 C 
HETATM    2  C2  UNL     1      25.824   3.143  50.339  1.00  0.00    -0.012 C 
HETATM    3  C3  UNL     1      26.665   2.334  51.054  1.00  0.00    -0.012 C 
HETATM    4  C4  UNL     1      26.618   1.400  52.145  1.00  0.00     0.026 C 
HETATM    5  C5  UNL     1      27.554   1.936  53.243  1.00  0.00     0.018 C 
HETATM    6  C6  UNL     1      25.366   1.074  52.795  1.00  0.00    -0.021 C 
HETATM    7  C7  UNL     1      24.066   1.357  52.796  1.00  0.00     0.003 C 
HETATM    8  C8  UNL     1      23.218   2.252  52.021  1.00  0.00     0.217 C 
HETATM    9  C9  UNL     1      21.987   1.551  51.381  1.00  0.00     0.038 C 
HETATM   10  C10 UNL     1      21.164   2.754  50.928  1.00  0.00    -0.014 C 
HETATM   11  C11 UNL     1      20.598   3.738  50.264  1.00  0.00     0.080 C 
HETATM   12  C12 UNL     1      20.981   3.971  48.838  1.00  0.00     0.045 C 
HETATM   13  C13 UNL     1      21.700   3.684  47.710  1.00  0.00     0.008 C 
HETATM   14  C14 UNL     1      22.547   2.506  48.183  1.00  0.00     0.081 C 
HETATM   15  C15 UNL     1      23.516   2.912  49.129  1.00  0.00     0.300 A 
HETATM   16  C16 UNL     1      24.041   3.791  49.874  1.00  0.00     0.546 A 
HETATM   17  N1  UNL     1      24.428   4.855  50.595  1.00  0.00     0.247 N 
HETATM   18  C17 UNL     1      23.582   5.963  50.458  1.00  0.00     0.539 A 
HETATM   19  N2  UNL     1      24.398   4.913  50.597  1.00  0.00     0.247 N 
HETATM   20  C18 UNL     1      24.354   3.704  50.056  1.00  0.00     0.452 A 
HETATM   21  N3  UNL     1      23.968   2.402  50.668  1.00  0.00     0.023 N 
HETATM   22  H21 UNL     1      24.287   1.375  50.569  1.00  0.00     0.287 HD
ENDROOT
BRANCH  12  23
HETATM   23  O1  UNL     1      20.045   5.044  48.824  1.00  0.00    -0.365 OA
HETATM   24  H16 UNL     1      19.140   4.893  48.381  1.00  0.00     0.217 HD
ENDBRANCH  12  23
TORSDOF 3
ENDMDL
MODEL 7
REMARK VINA RESULT:      -7.3      3.733      4.779
REMARK  3 active torsions:
REMARK  status: ('A' for Active; 'I' for Inactive)
REMARK    1  A    between atoms: C12_12  and  O1_13 
REMARK    2  A    between atoms: N1_18  and  C18_21 
REMARK    3  A    between atoms: N2_20  and  C18_21 
ROOT
HETATM    1  C1  UNL     1      27.284   4.804  48.634  1.00  0.00     0.048 C 
HETATM    2  C2  UNL     1      26.171   4.516  49.637  1.00  0.00    -0.012 C 
HETATM    3  C3  UNL     1      26.563   3.329  50.193  1.00  0.00    -0.012 C 
HETATM    4  C4  UNL     1      26.117   2.383  51.178  1.00  0.00     0.026 C 
HETATM    5  C5  UNL     1      27.218   2.289  52.251  1.00  0.00     0.018 C 
HETATM    6  C6  UNL     1      24.868   2.575  51.887  1.00  0.00    -0.021 C 
HETATM    7  C7  UNL     1      23.843   3.412  52.020  1.00  0.00     0.003 C 
HETATM    8  C8  UNL     1      23.483   4.687  51.415  1.00  0.00     0.217 C 
HETATM    9  C9  UNL     1      22.055   4.708  50.803  1.00  0.00     0.038 C 
HETATM   10  C10 UNL     1      21.865   6.201  50.548  1.00  0.00    -0.014 C 
HETATM   11  C11 UNL     1      21.798   7.412  50.039  1.00  0.00     0.080 C 
HETATM   12  C12 UNL     1      22.214   7.632  48.621  1.00  0.00     0.045 C 
HETATM   13  C13 UNL     1      22.698   7.202  47.416  1.00  0.00     0.008 C 
HETATM   14  C14 UNL     1      22.922   5.717  47.691  1.00  0.00     0.081 C 
HETATM   15  C15 UNL     1      23.989   5.514  48.596  1.00  0.00     0.300 A 
HETATM   16  C16 UNL     1      24.873   5.955  49.387  1.00  0.00     0.546 A 
HETATM   17  N1  UNL     1      25.720   6.624  50.185  1.00  0.00     0.247 N 
HETATM   18  C17 UNL     1      25.472   8.002  50.234  1.00  0.00     0.539 A 
HETATM   19  N2  UNL     1      25.720   6.688  50.196  1.00  0.00     0.247 N 
HETATM   20  C18 UNL     1      25.116   5.713  49.533  1.00  0.00     0.452 A 
HETATM   21  N3  UNL     1      24.189   4.658  50.031  1.00  0.00     0.023 N 
HETATM   22  H21 UNL     1      24.000   3.621  49.798  1.00  0.00     0.287 HD
ENDROOT
BRANCH  12  23
HETATM   23  O1  UNL     1      21.874   9.003  48.796  1.00  0.00    -0.365 OA
HETATM   24  H16 UNL     1      21.920   9.621  47.987  1.00  0.00     0.217 HD
ENDBRANCH  12  23
TORSDOF 3
ENDMDL
MODEL 8
REMARK VINA RESULT:      -7.1      3.557      5.699
REMARK  3 active torsions:
REMARK  status: ('A' for Active; 'I' for Inactive)
REMARK    1  A    between atoms: C12_12  and  O1_13 
REMARK    2  A    between atoms: N1_18  and  C18_21 
REMARK    3  A    between atoms: N2_20  and  C18_21 
ROOT
HETATM    1  C1  UNL     1      21.994   6.754  48.155  1.00  0.00     0.048 C 
HETATM    2  C2  UNL     1      23.404   6.307  48.533  1.00  0.00    -0.012 C 
HETATM    3  C3  UNL     1      24.195   7.159  47.809  1.00  0.00    -0.012 C 
HETATM    4  C4  UNL     1      25.587   7.425  47.578  1.00  0.00     0.026 C 
HETATM    5  C5  UNL     1      25.848   8.882  48.001  1.00  0.00     0.018 C 
HETATM    6  C6  UNL     1      26.617   6.624  48.208  1.00  0.00    -0.021 C 
HETATM    7  C7  UNL     1      26.805   5.614  49.052  1.00  0.00     0.003 C 
HETATM    8  C8  UNL     1      25.920   4.749  49.820  1.00  0.00     0.217 C 
HETATM    9  C9  UNL     1      26.186   3.233  49.606  1.00  0.00     0.038 C 
HETATM   10  C10 UNL     1      25.356   2.626  50.735  1.00  0.00    -0.014 C 
HETATM   11  C11 UNL     1      24.424   2.073  51.481  1.00  0.00     0.080 C 
HETATM   12  C12 UNL     1      23.101   1.743  50.872  1.00  0.00     0.045 C 
HETATM   13  C13 UNL     1      22.217   1.712  49.827  1.00  0.00     0.008 C 
HETATM   14  C14 UNL     1      23.041   2.355  48.715  1.00  0.00     0.081 C 
HETATM   15  C15 UNL     1      23.254   3.731  48.958  1.00  0.00     0.300 A 
HETATM   16  C16 UNL     1      23.156   4.757  49.694  1.00  0.00     0.546 A 
HETATM   17  N1  UNL     1      22.968   5.703  50.628  1.00  0.00     0.247 N 
HETATM   18  C17 UNL     1      22.441   5.209  51.828  1.00  0.00     0.539 A 
HETATM   19  N2  UNL     1      22.944   5.693  50.688  1.00  0.00     0.247 N 
HETATM   20  C18 UNL     1      23.260   5.086  49.554  1.00  0.00     0.452 A 
HETATM   21  N3  UNL     1      24.600   4.741  49.001  1.00  0.00     0.023 N 
HETATM   22  H21 UNL     1      25.045   4.700  48.018  1.00  0.00     0.287 HD
ENDROOT
BRANCH  12  23
HETATM   23  O1  UNL     1      22.711   1.228  52.140  1.00  0.00    -0.365 OA
HETATM   24  H16 UNL     1      21.803   0.772  52.221  1.00  0.00     0.217 HD
ENDBRANCH  12  23
TORSDOF 3
ENDMDL
MODEL 9
REMARK VINA RESULT:      -7.0      9.126     11.687
REMARK  3 active torsions:
REMARK  status: ('A' for Active; 'I' for Inactive)
REMARK    1  A    between atoms: C12_12  and  O1_13 
REMARK    2  A    between atoms: N1_18  and  C18_21 
REMARK    3  A    between atoms: N2_20  and  C18_21 
ROOT
HETATM    1  C1  UNL     1      28.863   5.973  48.050  1.00  0.00     0.048 C 
HETATM    2  C2  UNL     1      30.325   6.229  47.693  1.00  0.00    -0.012 C 
HETATM    3  C3  UNL     1      30.882   4.982  47.786  1.00  0.00    -0.012 C 
HETATM    4  C4  UNL     1      32.156   4.340  47.624  1.00  0.00     0.026 C 
HETATM    5  C5  UNL     1      31.992   3.270  46.528  1.00  0.00     0.018 C 
HETATM    6  C6  UNL     1      33.339   5.102  47.280  1.00  0.00    -0.021 C 
HETATM    7  C7  UNL     1      33.762   6.329  46.991  1.00  0.00     0.003 C 
HETATM    8  C8  UNL     1      33.116   7.630  46.882  1.00  0.00     0.217 C 
HETATM    9  C9  UNL     1      33.795   8.738  47.734  1.00  0.00     0.038 C 
HETATM   10  C10 UNL     1      33.118   9.991  47.183  1.00  0.00    -0.014 C 
HETATM   11  C11 UNL     1      32.344  11.030  46.955  1.00  0.00     0.080 C 
HETATM   12  C12 UNL     1      31.186  11.291  47.863  1.00  0.00     0.045 C 
HETATM   13  C13 UNL     1      30.389  10.990  48.933  1.00  0.00     0.008 C 
HETATM   14  C14 UNL     1      31.049   9.717  49.454  1.00  0.00     0.081 C 
HETATM   15  C15 UNL     1      30.868   8.636  48.560  1.00  0.00     0.300 A 
HETATM   16  C16 UNL     1      30.463   8.163  47.458  1.00  0.00     0.546 A 
HETATM   17  N1  UNL     1      29.987   7.875  46.236  1.00  0.00     0.247 N 
HETATM   18  C17 UNL     1      29.567   9.002  45.519  1.00  0.00     0.539 A 
HETATM   19  N2  UNL     1      29.964   7.918  46.193  1.00  0.00     0.247 N 
HETATM   20  C18 UNL     1      30.479   7.794  47.407  1.00  0.00     0.452 A 
HETATM   21  N3  UNL     1      31.883   7.517  47.820  1.00  0.00     0.023 N 
HETATM   22  H21 UNL     1      32.362   6.965  48.616  1.00  0.00     0.287 HD
ENDROOT
BRANCH  12  23
HETATM   23  O1  UNL     1      30.902  12.440  47.073  1.00  0.00    -0.365 OA
HETATM   24  H16 UNL     1      31.534  12.672  46.308  1.00  0.00     0.217 HD
ENDBRANCH  12  23
TORSDOF 3
ENDMDL
