MODEL 1
REMARK VINA RESULT:      -7.3      0.000      0.000
REMARK  3 active torsions:
REMARK  status: ('A' for Active; 'I' for Inactive)
REMARK    1  A    between atoms: C3_3  and  C4_4 
REMARK    2  A    between atoms: C9_10  and  C11_12 
REMARK       I    between atoms: C11_12  and  N2_14 
REMARK    3  A    between atoms: N2_14  and  C12_15 
ROOT
HETATM    1  C4  UNL     1      24.299   3.284  49.315  1.00  0.00     0.055 C 
HETATM    2  C5  UNL     1      24.385   4.790  49.252  1.00  0.00     0.282 C 
HETATM    3  N1  UNL     1      23.793   5.292  50.449  1.00  0.00     0.090 N 
HETATM    4  C6  UNL     1      24.396   6.523  50.886  1.00  0.00     0.310 C 
HETATM    5  C7  UNL     1      23.992   4.293  51.481  1.00  0.00     0.236 C 
HETATM    6  C8  UNL     1      22.723   4.218  52.276  1.00  0.00     0.044 C 
HETATM    7  C9  UNL     1      24.376   3.000  50.806  1.00  0.00     0.076 C 
HETATM    8  C10 UNL     1      23.442   1.896  51.237  1.00  0.00     0.028 C 
ENDROOT
BRANCH   7   9
HETATM    9  C11 UNL     1      25.766   2.638  51.188  1.00  0.00     0.233 C 
HETATM   10  O1  UNL     1      26.846   2.881  50.569  1.00  0.00    -0.272 OA
HETATM   11  N2  UNL     1      25.923   1.916  52.418  1.00  0.00    -0.326 N 
HETATM   12  H19 UNL     1      25.088   1.657  53.021  1.00  0.00     0.169 HD
BRANCH  11  13
HETATM   13  C12 UNL     1      27.157   1.472  52.972  1.00  0.00     0.034 A 
HETATM   14  C13 UNL     1      27.287   0.091  52.793  1.00  0.00     0.029 A 
HETATM   15  C14 UNL     1      28.421  -0.587  53.253  1.00  0.00     0.002 A 
HETATM   16  C15 UNL     1      29.416   0.129  53.889  1.00  0.00     0.000 A 
HETATM   17  C16 UNL     1      29.270   1.492  54.057  1.00  0.00     0.002 A 
HETATM   18  C17 UNL     1      28.159   2.154  53.606  1.00  0.00     0.029 A 
ENDBRANCH  11  13
ENDBRANCH   7   9
BRANCH   1  19
HETATM   19  C3  UNL     1      23.074   2.705  48.776  1.00  0.00    -0.023 C 
HETATM   20  C2  UNL     1      22.218   2.779  47.780  1.00  0.00    -0.034 C 
HETATM   21  C1  UNL     1      21.943   3.520  46.528  1.00  0.00     0.036 C 
ENDBRANCH   1  19
TORSDOF 3
ENDMDL
MODEL 2
REMARK VINA RESULT:      -7.2      1.693      3.128
REMARK  3 active torsions:
REMARK  status: ('A' for Active; 'I' for Inactive)
REMARK    1  A    between atoms: C3_3  and  C4_4 
REMARK    2  A    between atoms: C9_10  and  C11_12 
REMARK       I    between atoms: C11_12  and  N2_14 
REMARK    3  A    between atoms: N2_14  and  C12_15 
ROOT
HETATM    1  C4  UNL     1      23.330   1.424  51.774  1.00  0.00     0.055 C 
HETATM    2  C5  UNL     1      23.009   1.716  50.328  1.00  0.00     0.282 C 
HETATM    3  N1  UNL     1      23.198   3.117  50.133  1.00  0.00     0.090 N 
HETATM    4  C6  UNL     1      23.639   3.431  48.800  1.00  0.00     0.310 C 
HETATM    5  C7  UNL     1      24.219   3.549  51.067  1.00  0.00     0.236 C 
HETATM    6  C8  UNL     1      23.783   4.873  51.619  1.00  0.00     0.044 C 
HETATM    7  C9  UNL     1      24.381   2.469  52.108  1.00  0.00     0.076 C 
HETATM    8  C10 UNL     1      24.206   3.052  53.489  1.00  0.00     0.028 C 
ENDROOT
BRANCH   7   9
HETATM    9  C11 UNL     1      25.742   1.879  51.999  1.00  0.00     0.233 C 
HETATM   10  O1  UNL     1      26.553   1.936  51.027  1.00  0.00    -0.272 OA
HETATM   11  N2  UNL     1      26.213   1.145  53.140  1.00  0.00    -0.326 N 
HETATM   12  H19 UNL     1      25.618   1.033  54.013  1.00  0.00     0.169 HD
BRANCH  11  13
HETATM   13  C12 UNL     1      27.478   0.503  53.251  1.00  0.00     0.034 A 
HETATM   14  C13 UNL     1      27.334  -0.870  53.026  1.00  0.00     0.029 A 
HETATM   15  C14 UNL     1      28.440  -1.725  53.080  1.00  0.00     0.002 A 
HETATM   16  C15 UNL     1      29.683  -1.192  53.361  1.00  0.00     0.000 A 
HETATM   17  C16 UNL     1      29.806   0.166  53.582  1.00  0.00     0.002 A 
HETATM   18  C17 UNL     1      28.722   1.000  53.527  1.00  0.00     0.029 A 
ENDBRANCH  11  13
ENDBRANCH   7   9
BRANCH   1  19
HETATM   19  C3  UNL     1      22.211   1.553  52.700  1.00  0.00    -0.023 C 
HETATM   20  C2  UNL     1      21.444   0.884  53.533  1.00  0.00    -0.034 C 
HETATM   21  C1  UNL     1      21.222  -0.473  54.083  1.00  0.00     0.036 C 
ENDBRANCH   1  19
TORSDOF 3
ENDMDL
MODEL 3
REMARK VINA RESULT:      -7.0      1.790      2.385
REMARK  3 active torsions:
REMARK  status: ('A' for Active; 'I' for Inactive)
REMARK    1  A    between atoms: C3_3  and  C4_4 
REMARK    2  A    between atoms: C9_10  and  C11_12 
REMARK       I    between atoms: C11_12  and  N2_14 
REMARK    3  A    between atoms: N2_14  and  C12_15 
ROOT
HETATM    1  C4  UNL     1      23.120   2.162  50.241  1.00  0.00     0.055 C 
HETATM    2  C5  UNL     1      23.142   3.637  50.562  1.00  0.00     0.282 C 
HETATM    3  N1  UNL     1      22.101   3.874  51.509  1.00  0.00     0.090 N 
HETATM    4  C6  UNL     1      22.418   4.946  52.415  1.00  0.00     0.310 C 
HETATM    5  C7  UNL     1      21.933   2.657  52.279  1.00  0.00     0.236 C 
HETATM    6  C8  UNL     1      20.460   2.453  52.470  1.00  0.00     0.044 C 
HETATM    7  C9  UNL     1      22.620   1.540  51.534  1.00  0.00     0.076 C 
HETATM    8  C10 UNL     1      21.653   0.405  51.300  1.00  0.00     0.028 C 
ENDROOT
BRANCH   7   9
HETATM    9  C11 UNL     1      23.767   1.042  52.339  1.00  0.00     0.233 C 
HETATM   10  O1  UNL     1      23.759   0.551  53.508  1.00  0.00    -0.272 OA
HETATM   11  N2  UNL     1      25.062   1.121  51.725  1.00  0.00    -0.326 N 
HETATM   12  H19 UNL     1      25.189   1.515  50.746  1.00  0.00     0.169 HD
BRANCH  11  13
HETATM   13  C12 UNL     1      26.289   0.703  52.312  1.00  0.00     0.034 A 
HETATM   14  C13 UNL     1      27.021   1.820  52.727  1.00  0.00     0.029 A 
HETATM   15  C14 UNL     1      28.270   1.671  53.338  1.00  0.00     0.002 A 
HETATM   16  C15 UNL     1      28.774   0.400  53.527  1.00  0.00     0.000 A 
HETATM   17  C16 UNL     1      28.038  -0.692  53.110  1.00  0.00     0.002 A 
HETATM   18  C17 UNL     1      26.815  -0.543  52.512  1.00  0.00     0.029 A 
ENDBRANCH  11  13
ENDBRANCH   7   9
BRANCH   1  19
HETATM   19  C3  UNL     1      22.237   1.774  49.147  1.00  0.00    -0.023 C 
HETATM   20  C2  UNL     1      21.807   2.132  47.957  1.00  0.00    -0.034 C 
HETATM   21  C1  UNL     1      21.949   3.193  46.934  1.00  0.00     0.036 C 
ENDBRANCH   1  19
TORSDOF 3
ENDMDL
MODEL 4
REMARK VINA RESULT:      -6.9      1.534      2.895
REMARK  3 active torsions:
REMARK  status: ('A' for Active; 'I' for Inactive)
REMARK    1  A    between atoms: C3_3  and  C4_4 
REMARK    2  A    between atoms: C9_10  and  C11_12 
REMARK       I    between atoms: C11_12  and  N2_14 
REMARK    3  A    between atoms: N2_14  and  C12_15 
ROOT
HETATM    1  C4  UNL     1      23.745   4.882  51.822  1.00  0.00     0.055 C 
HETATM    2  C5  UNL     1      22.357   4.584  52.335  1.00  0.00     0.282 C 
HETATM    3  N1  UNL     1      21.826   3.540  51.522  1.00  0.00     0.090 N 
HETATM    4  C6  UNL     1      20.925   2.684  52.247  1.00  0.00     0.310 C 
HETATM    5  C7  UNL     1      22.944   2.740  51.060  1.00  0.00     0.236 C 
HETATM    6  C8  UNL     1      22.682   2.399  49.624  1.00  0.00     0.044 C 
HETATM    7  C9  UNL     1      24.206   3.537  51.285  1.00  0.00     0.076 C 
HETATM    8  C10 UNL     1      24.977   3.657  49.993  1.00  0.00     0.028 C 
ENDROOT
BRANCH   7   9
HETATM    9  C11 UNL     1      25.052   2.846  52.293  1.00  0.00     0.233 C 
HETATM   10  O1  UNL     1      24.753   2.503  53.476  1.00  0.00    -0.272 OA
HETATM   11  N2  UNL     1      26.390   2.517  51.887  1.00  0.00    -0.326 N 
HETATM   12  H19 UNL     1      26.750   2.756  50.916  1.00  0.00     0.169 HD
BRANCH  11  13
HETATM   13  C12 UNL     1      27.364   1.858  52.687  1.00  0.00     0.034 A 
HETATM   14  C13 UNL     1      27.232   0.472  52.550  1.00  0.00     0.029 A 
HETATM   15  C14 UNL     1      28.080  -0.400  53.240  1.00  0.00     0.002 A 
HETATM   16  C15 UNL     1      29.055   0.128  54.064  1.00  0.00     0.000 A 
HETATM   17  C16 UNL     1      29.170   1.498  54.188  1.00  0.00     0.002 A 
HETATM   18  C17 UNL     1      28.339   2.350  53.511  1.00  0.00     0.029 A 
ENDBRANCH  11  13
ENDBRANCH   7   9
BRANCH   1  19
HETATM   19  C3  UNL     1      23.817   5.876  50.757  1.00  0.00    -0.023 C 
HETATM   20  C2  UNL     1      23.179   6.886  50.208  1.00  0.00    -0.034 C 
HETATM   21  C1  UNL     1      21.938   7.687  50.325  1.00  0.00     0.036 C 
ENDBRANCH   1  19
TORSDOF 3
ENDMDL
MODEL 5
REMARK VINA RESULT:      -6.8      3.352      5.297
REMARK  3 active torsions:
REMARK  status: ('A' for Active; 'I' for Inactive)
REMARK    1  A    between atoms: C3_3  and  C4_4 
REMARK    2  A    between atoms: C9_10  and  C11_12 
REMARK       I    between atoms: C11_12  and  N2_14 
REMARK    3  A    between atoms: N2_14  and  C12_15 
ROOT
HETATM    1  C4  UNL     1      23.315   1.562  51.251  1.00  0.00     0.055 C 
HETATM    2  C5  UNL     1      22.094   1.153  50.465  1.00  0.00     0.282 C 
HETATM    3  N1  UNL     1      21.109   2.166  50.666  1.00  0.00     0.090 N 
HETATM    4  C6  UNL     1      20.252   2.335  49.523  1.00  0.00     0.310 C 
HETATM    5  C7  UNL     1      21.813   3.413  50.899  1.00  0.00     0.236 C 
HETATM    6  C8  UNL     1      21.088   4.133  51.996  1.00  0.00     0.044 C 
HETATM    7  C9  UNL     1      23.249   3.080  51.222  1.00  0.00     0.076 C 
HETATM    8  C10 UNL     1      23.640   3.707  52.537  1.00  0.00     0.028 C 
ENDROOT
BRANCH   7   9
HETATM    9  C11 UNL     1      24.131   3.610  50.149  1.00  0.00     0.233 C 
HETATM   10  O1  UNL     1      24.032   3.458  48.895  1.00  0.00    -0.272 OA
HETATM   11  N2  UNL     1      25.250   4.402  50.576  1.00  0.00    -0.326 N 
HETATM   12  H19 UNL     1      25.433   4.596  51.605  1.00  0.00     0.169 HD
BRANCH  11  13
HETATM   13  C12 UNL     1      26.217   5.005  49.724  1.00  0.00     0.034 A 
HETATM   14  C13 UNL     1      25.892   6.350  49.516  1.00  0.00     0.029 A 
HETATM   15  C14 UNL     1      26.694   7.164  48.709  1.00  0.00     0.002 A 
HETATM   16  C15 UNL     1      27.816   6.619  48.116  1.00  0.00     0.000 A 
HETATM   17  C16 UNL     1      28.120   5.290  48.331  1.00  0.00     0.002 A 
HETATM   18  C17 UNL     1      27.334   4.495  49.122  1.00  0.00     0.029 A 
ENDBRANCH  11  13
ENDBRANCH   7   9
BRANCH   1  19
HETATM   19  C3  UNL     1      23.346   1.107  52.637  1.00  0.00    -0.023 C 
HETATM   20  C2  UNL     1      22.941   0.154  53.447  1.00  0.00    -0.034 C 
HETATM   21  C1  UNL     1      22.172  -1.111  53.470  1.00  0.00     0.036 C 
ENDBRANCH   1  19
TORSDOF 3
ENDMDL
MODEL 6
REMARK VINA RESULT:      -6.7      3.343      4.578
REMARK  3 active torsions:
REMARK  status: ('A' for Active; 'I' for Inactive)
REMARK    1  A    between atoms: C3_3  and  C4_4 
REMARK    2  A    between atoms: C9_10  and  C11_12 
REMARK       I    between atoms: C11_12  and  N2_14 
REMARK    3  A    between atoms: N2_14  and  C12_15 
ROOT
HETATM    1  C4  UNL     1      24.964   4.712  50.544  1.00  0.00     0.055 C 
HETATM    2  C5  UNL     1      24.478   6.132  50.709  1.00  0.00     0.282 C 
HETATM    3  N1  UNL     1      23.308   6.270  49.903  1.00  0.00     0.090 N 
HETATM    4  C6  UNL     1      22.366   7.206  50.458  1.00  0.00     0.310 C 
HETATM    5  C7  UNL     1      22.674   4.967  49.837  1.00  0.00     0.236 C 
HETATM    6  C8  UNL     1      22.199   4.777  48.428  1.00  0.00     0.044 C 
HETATM    7  C9  UNL     1      23.679   3.940  50.294  1.00  0.00     0.076 C 
HETATM    8  C10 UNL     1      23.838   2.869  49.242  1.00  0.00     0.028 C 
ENDROOT
BRANCH   7   9
HETATM    9  C11 UNL     1      23.205   3.313  51.556  1.00  0.00     0.233 C 
HETATM   10  O1  UNL     1      23.169   3.810  52.722  1.00  0.00    -0.272 OA
HETATM   11  N2  UNL     1      22.720   1.965  51.458  1.00  0.00    -0.326 N 
HETATM   12  H19 UNL     1      22.703   1.447  50.530  1.00  0.00     0.169 HD
BRANCH  11  13
HETATM   13  C12 UNL     1      22.221   1.179  52.534  1.00  0.00     0.034 A 
HETATM   14  C13 UNL     1      23.212   0.295  52.975  1.00  0.00     0.029 A 
HETATM   15  C14 UNL     1      22.964  -0.589  54.030  1.00  0.00     0.002 A 
HETATM   16  C15 UNL     1      21.723  -0.578  54.634  1.00  0.00     0.000 A 
HETATM   17  C16 UNL     1      20.757   0.301  54.185  1.00  0.00     0.002 A 
HETATM   18  C17 UNL     1      21.001   1.166  53.152  1.00  0.00     0.029 A 
ENDBRANCH  11  13
ENDBRANCH   7   9
BRANCH   1  19
HETATM   19  C3  UNL     1      25.883   4.492  49.433  1.00  0.00    -0.023 C 
HETATM   20  C2  UNL     1      26.820   5.060  48.707  1.00  0.00    -0.034 C 
HETATM   21  C1  UNL     1      27.567   6.330  48.550  1.00  0.00     0.036 C 
ENDBRANCH   1  19
TORSDOF 3
ENDMDL
MODEL 7
REMARK VINA RESULT:      -6.6      3.051      4.582
REMARK  3 active torsions:
REMARK  status: ('A' for Active; 'I' for Inactive)
REMARK    1  A    between atoms: C3_3  and  C4_4 
REMARK    2  A    between atoms: C9_10  and  C11_12 
REMARK       I    between atoms: C11_12  and  N2_14 
REMARK    3  A    between atoms: N2_14  and  C12_15 
ROOT
HETATM    1  C4  UNL     1      23.362   5.456  51.824  1.00  0.00     0.055 C 
HETATM    2  C5  UNL     1      21.884   5.519  51.521  1.00  0.00     0.282 C 
HETATM    3  N1  UNL     1      21.669   4.762  50.331  1.00  0.00     0.090 N 
HETATM    4  C6  UNL     1      20.375   4.132  50.307  1.00  0.00     0.310 C 
HETATM    5  C7  UNL     1      22.683   3.727  50.288  1.00  0.00     0.236 C 
HETATM    6  C8  UNL     1      23.154   3.627  48.868  1.00  0.00     0.044 C 
HETATM    7  C9  UNL     1      23.765   4.098  51.272  1.00  0.00     0.076 C 
HETATM    8  C10 UNL     1      25.106   4.125  50.580  1.00  0.00     0.028 C 
ENDROOT
BRANCH   7   9
HETATM    9  C11 UNL     1      23.803   3.091  52.365  1.00  0.00     0.233 C 
HETATM   10  O1  UNL     1      24.452   3.129  53.454  1.00  0.00    -0.272 OA
HETATM   11  N2  UNL     1      23.003   1.913  52.178  1.00  0.00    -0.326 N 
HETATM   12  H19 UNL     1      22.417   1.774  51.303  1.00  0.00     0.169 HD
BRANCH  11  13
HETATM   13  C12 UNL     1      22.892   0.829  53.093  1.00  0.00     0.034 A 
HETATM   14  C13 UNL     1      21.585   0.759  53.588  1.00  0.00     0.029 A 
HETATM   15  C14 UNL     1      21.221  -0.228  54.509  1.00  0.00     0.002 A 
HETATM   16  C15 UNL     1      22.173  -1.138  54.926  1.00  0.00     0.000 A 
HETATM   17  C16 UNL     1      23.458  -1.053  54.427  1.00  0.00     0.002 A 
HETATM   18  C17 UNL     1      23.812  -0.086  53.524  1.00  0.00     0.029 A 
ENDBRANCH  11  13
ENDBRANCH   7   9
BRANCH   1  19
HETATM   19  C3  UNL     1      24.173   6.492  51.195  1.00  0.00    -0.023 C 
HETATM   20  C2  UNL     1      24.119   7.554  50.422  1.00  0.00    -0.034 C 
HETATM   21  C1  UNL     1      23.167   8.405  49.671  1.00  0.00     0.036 C 
ENDBRANCH   1  19
TORSDOF 3
ENDMDL
MODEL 8
REMARK VINA RESULT:      -6.3      7.642      9.573
REMARK  3 active torsions:
REMARK  status: ('A' for Active; 'I' for Inactive)
REMARK    1  A    between atoms: C3_3  and  C4_4 
REMARK    2  A    between atoms: C9_10  and  C11_12 
REMARK       I    between atoms: C11_12  and  N2_14 
REMARK    3  A    between atoms: N2_14  and  C12_15 
ROOT
HETATM    1  C4  UNL     1      32.558   6.083  46.235  1.00  0.00     0.055 C 
HETATM    2  C5  UNL     1      33.187   4.721  46.074  1.00  0.00     0.282 C 
HETATM    3  N1  UNL     1      34.170   4.590  47.099  1.00  0.00     0.090 N 
HETATM    4  C6  UNL     1      34.324   3.230  47.543  1.00  0.00     0.310 C 
HETATM    5  C7  UNL     1      33.729   5.392  48.225  1.00  0.00     0.236 C 
HETATM    6  C8  UNL     1      34.939   6.085  48.776  1.00  0.00     0.044 C 
HETATM    7  C9  UNL     1      32.653   6.327  47.732  1.00  0.00     0.076 C 
HETATM    8  C10 UNL     1      33.014   7.753  48.069  1.00  0.00     0.028 C 
ENDROOT
BRANCH   7   9
HETATM    9  C11 UNL     1      31.364   5.985  48.390  1.00  0.00     0.233 C 
HETATM   10  O1  UNL     1      31.170   5.469  49.532  1.00  0.00    -0.272 OA
HETATM   11  N2  UNL     1      30.170   6.270  47.644  1.00  0.00    -0.326 N 
HETATM   12  H19 UNL     1      30.211   6.703  46.675  1.00  0.00     0.169 HD
BRANCH  11  13
HETATM   13  C12 UNL     1      28.838   6.025  48.080  1.00  0.00     0.034 A 
HETATM   14  C13 UNL     1      28.095   7.209  48.021  1.00  0.00     0.029 A 
HETATM   15  C14 UNL     1      26.749   7.229  48.400  1.00  0.00     0.002 A 
HETATM   16  C15 UNL     1      26.160   6.059  48.836  1.00  0.00     0.000 A 
HETATM   17  C16 UNL     1      26.909   4.900  48.889  1.00  0.00     0.002 A 
HETATM   18  C17 UNL     1      28.227   4.883  48.517  1.00  0.00     0.029 A 
ENDBRANCH  11  13
ENDBRANCH   7   9
BRANCH   1  19
HETATM   19  C3  UNL     1      33.227   7.169  45.527  1.00  0.00    -0.023 C 
HETATM   20  C2  UNL     1      33.118   7.991  44.507  1.00  0.00    -0.034 C 
HETATM   21  C1  UNL     1      32.216   8.354  43.390  1.00  0.00     0.036 C 
ENDBRANCH   1  19
TORSDOF 3
ENDMDL
MODEL 9
REMARK VINA RESULT:      -6.2      7.739      9.185
REMARK  3 active torsions:
REMARK  status: ('A' for Active; 'I' for Inactive)
REMARK    1  A    between atoms: C3_3  and  C4_4 
REMARK    2  A    between atoms: C9_10  and  C11_12 
REMARK       I    between atoms: C11_12  and  N2_14 
REMARK    3  A    between atoms: N2_14  and  C12_15 
ROOT
HETATM    1  C4  UNL     1      30.568   9.567  49.262  1.00  0.00     0.055 C 
HETATM    2  C5  UNL     1      29.115   9.159  49.276  1.00  0.00     0.282 C 
HETATM    3  N1  UNL     1      28.725   8.953  47.920  1.00  0.00     0.090 N 
HETATM    4  C6  UNL     1      27.718   7.934  47.786  1.00  0.00     0.310 C 
HETATM    5  C7  UNL     1      29.905   8.527  47.191  1.00  0.00     0.236 C 
HETATM    6  C8  UNL     1      29.883   9.226  45.865  1.00  0.00     0.044 C 
HETATM    7  C9  UNL     1      31.112   8.848  48.038  1.00  0.00     0.076 C 
HETATM    8  C10 UNL     1      32.085   9.692  47.251  1.00  0.00     0.028 C 
ENDROOT
BRANCH   7   9
HETATM    9  C11 UNL     1      31.781   7.584  48.442  1.00  0.00     0.233 C 
HETATM   10  O1  UNL     1      31.881   7.076  49.600  1.00  0.00    -0.272 OA
HETATM   11  N2  UNL     1      32.403   6.826  47.393  1.00  0.00    -0.326 N 
HETATM   12  H19 UNL     1      32.382   7.155  46.383  1.00  0.00     0.169 HD
BRANCH  11  13
HETATM   13  C12 UNL     1      33.095   5.593  47.554  1.00  0.00     0.034 A 
HETATM   14  C13 UNL     1      32.253   4.529  47.213  1.00  0.00     0.029 A 
HETATM   15  C14 UNL     1      32.703   3.207  47.288  1.00  0.00     0.002 A 
HETATM   16  C15 UNL     1      33.997   2.965  47.706  1.00  0.00     0.000 A 
HETATM   17  C16 UNL     1      34.813   4.027  48.040  1.00  0.00     0.002 A 
HETATM   18  C17 UNL     1      34.370   5.321  47.965  1.00  0.00     0.029 A 
ENDBRANCH  11  13
ENDBRANCH   7   9
BRANCH   1  19
HETATM   19  C3  UNL     1      30.813  10.999  49.129  1.00  0.00    -0.023 C 
HETATM   20  C2  UNL     1      30.222  12.169  49.038  1.00  0.00    -0.034 C 
HETATM   21  C1  UNL     1      28.883  12.803  49.014  1.00  0.00     0.036 C 
ENDBRANCH   1  19
TORSDOF 3
ENDMDL
