MODEL 1
REMARK VINA RESULT:      -7.1      0.000      0.000
REMARK  1 active torsions:
REMARK  status: ('A' for Active; 'I' for Inactive)
REMARK    1  A    between atoms: C2_2  and  N1_3 
ROOT
HETATM    1  N1  UNL     1      25.236   0.327  53.906  1.00  0.00     0.091 N 
HETATM    2  C3  UNL     1      25.616   1.357  52.887  1.00  0.00     0.299 C 
HETATM    3  C4  UNL     1      25.116   2.637  53.416  1.00  0.00     0.003 C 
HETATM    4  C5  UNL     1      24.140   3.377  52.968  1.00  0.00     0.002 C 
HETATM    5  C6  UNL     1      23.206   3.292  51.890  1.00  0.00     0.052 C 
HETATM    6  C7  UNL     1      22.225   3.696  51.146  1.00  0.00     0.145 A 
HETATM    7  N2  UNL     1      21.664   4.928  51.485  1.00  0.00    -0.224 NA
HETATM    8  C8  UNL     1      20.669   5.202  50.719  1.00  0.00     0.226 A 
HETATM    9  N3  UNL     1      20.575   4.092  49.836  1.00  0.00    -0.290 N 
HETATM   10  N4  UNL     1      21.543   3.119  50.076  1.00  0.00    -0.269 N 
HETATM   11  C9  UNL     1      21.971   1.813  49.620  1.00  0.00     0.198 C 
HETATM   12  P1  UNL     1      21.260   0.540  50.767  1.00  0.00    -0.036 P 
HETATM   13  N5  UNL     1      21.386   1.016  52.465  1.00  0.00    -0.296 NA
HETATM   14  C10 UNL     1      20.885   0.047  53.388  1.00  0.00     0.055 C 
HETATM   15  C11 UNL     1      19.429  -0.319  53.159  1.00  0.00     0.026 C 
HETATM   16  C12 UNL     1      21.723  -1.175  53.591  1.00  0.00     0.021 C 
HETATM   17  C13 UNL     1      23.075  -0.901  54.236  1.00  0.00     0.032 C 
HETATM   18  C14 UNL     1      23.824   0.092  53.466  1.00  0.00     0.272 C 
HETATM   19  H12 UNL     1      19.868   3.946  49.054  1.00  0.00     0.188 HD
HETATM   20  H15 UNL     1      19.913   0.156  50.435  1.00  0.00     0.075 HD
HETATM   21  H16 UNL     1      20.796   1.876  52.587  1.00  0.00     0.127 HD
ENDROOT
BRANCH   1  22
HETATM   22  C2  UNL     1      25.967  -0.912  53.576  1.00  0.00     0.268 C 
HETATM   23  C1  UNL     1      26.771  -0.754  52.317  1.00  0.00     0.037 C 
ENDBRANCH   1  22
TORSDOF 1
ENDMDL
MODEL 2
REMARK VINA RESULT:      -6.8      2.480      5.876
REMARK  1 active torsions:
REMARK  status: ('A' for Active; 'I' for Inactive)
REMARK    1  A    between atoms: C2_2  and  N1_3 
ROOT
HETATM    1  N1  UNL     1      20.995   1.801  51.184  1.00  0.00     0.091 N 
HETATM    2  C3  UNL     1      21.998   0.696  51.308  1.00  0.00     0.299 C 
HETATM    3  C4  UNL     1      22.424   0.706  52.718  1.00  0.00     0.003 C 
HETATM    4  C5  UNL     1      23.581   1.045  53.215  1.00  0.00     0.002 C 
HETATM    5  C6  UNL     1      24.821   1.518  52.686  1.00  0.00     0.052 C 
HETATM    6  C7  UNL     1      26.052   1.918  52.747  1.00  0.00     0.145 A 
HETATM    7  N2  UNL     1      26.629   1.940  54.018  1.00  0.00    -0.224 NA
HETATM    8  C8  UNL     1      27.827   2.403  53.966  1.00  0.00     0.226 A 
HETATM    9  N3  UNL     1      28.043   2.698  52.593  1.00  0.00    -0.290 N 
HETATM   10  N4  UNL     1      26.943   2.404  51.791  1.00  0.00    -0.269 N 
HETATM   11  C9  UNL     1      26.489   2.489  50.418  1.00  0.00     0.198 C 
HETATM   12  P1  UNL     1      25.456   4.020  50.246  1.00  0.00    -0.036 P 
HETATM   13  N5  UNL     1      24.347   4.243  51.603  1.00  0.00    -0.296 NA
HETATM   14  C10 UNL     1      23.503   5.391  51.493  1.00  0.00     0.055 C 
HETATM   15  C11 UNL     1      24.265   6.698  51.352  1.00  0.00     0.026 C 
HETATM   16  C12 UNL     1      22.388   5.307  50.501  1.00  0.00     0.021 C 
HETATM   17  C13 UNL     1      21.334   4.261  50.839  1.00  0.00     0.032 C 
HETATM   18  C14 UNL     1      21.946   2.944  51.011  1.00  0.00     0.272 C 
HETATM   19  H12 UNL     1      28.922   3.103  52.150  1.00  0.00     0.188 HD
HETATM   20  H15 UNL     1      26.230   5.211  50.007  1.00  0.00     0.075 HD
HETATM   21  H16 UNL     1      24.936   4.388  52.461  1.00  0.00     0.127 HD
ENDROOT
BRANCH   1  22
HETATM   22  C2  UNL     1      20.321   1.643  49.881  1.00  0.00     0.268 C 
HETATM   23  C1  UNL     1      21.274   1.156  48.828  1.00  0.00     0.037 C 
ENDBRANCH   1  22
TORSDOF 1
ENDMDL
MODEL 3
REMARK VINA RESULT:      -6.8      2.755      6.042
REMARK  1 active torsions:
REMARK  status: ('A' for Active; 'I' for Inactive)
REMARK    1  A    between atoms: C2_2  and  N1_3 
ROOT
HETATM    1  N1  UNL     1      24.672   5.712  48.586  1.00  0.00     0.091 N 
HETATM    2  C3  UNL     1      25.668   5.631  49.702  1.00  0.00     0.299 C 
HETATM    3  C4  UNL     1      26.590   4.545  49.328  1.00  0.00     0.003 C 
HETATM    4  C5  UNL     1      26.730   3.372  49.879  1.00  0.00     0.002 C 
HETATM    5  C6  UNL     1      26.116   2.673  50.963  1.00  0.00     0.052 C 
HETATM    6  C7  UNL     1      25.935   1.676  51.771  1.00  0.00     0.145 A 
HETATM    7  N2  UNL     1      26.771   0.573  51.583  1.00  0.00    -0.224 NA
HETATM    8  C8  UNL     1      26.467  -0.373  52.399  1.00  0.00     0.226 A 
HETATM    9  N3  UNL     1      25.379   0.138  53.157  1.00  0.00    -0.290 N 
HETATM   10  N4  UNL     1      25.015   1.431  52.788  1.00  0.00    -0.269 N 
HETATM   11  C9  UNL     1      24.041   2.460  53.089  1.00  0.00     0.198 C 
HETATM   12  P1  UNL     1      22.685   2.356  51.827  1.00  0.00    -0.036 P 
HETATM   13  N5  UNL     1      23.303   2.116  50.189  1.00  0.00    -0.296 NA
HETATM   14  C10 UNL     1      22.294   2.069  49.178  1.00  0.00     0.055 C 
HETATM   15  C11 UNL     1      21.256   0.983  49.402  1.00  0.00     0.026 C 
HETATM   16  C12 UNL     1      21.646   3.369  48.822  1.00  0.00     0.021 C 
HETATM   17  C13 UNL     1      22.590   4.377  48.178  1.00  0.00     0.032 C 
HETATM   18  C14 UNL     1      23.752   4.619  49.033  1.00  0.00     0.272 C 
HETATM   19  H12 UNL     1      24.846  -0.355  53.936  1.00  0.00     0.188 HD
HETATM   20  H15 UNL     1      21.675   1.383  52.148  1.00  0.00     0.075 HD
HETATM   21  H16 UNL     1      23.781   1.180  50.176  1.00  0.00     0.127 HD
ENDROOT
BRANCH   1  22
HETATM   22  C2  UNL     1      23.913   6.966  48.761  1.00  0.00     0.268 C 
HETATM   23  C1  UNL     1      23.814   7.348  50.210  1.00  0.00     0.037 C 
ENDBRANCH   1  22
TORSDOF 1
ENDMDL
MODEL 4
REMARK VINA RESULT:      -6.8      2.297      4.712
REMARK  1 active torsions:
REMARK  status: ('A' for Active; 'I' for Inactive)
REMARK    1  A    between atoms: C2_2  and  N1_3 
ROOT
HETATM    1  N1  UNL     1      20.497  -0.066  51.551  1.00  0.00     0.091 N 
HETATM    2  C3  UNL     1      20.319   1.259  50.875  1.00  0.00     0.299 C 
HETATM    3  C4  UNL     1      21.108   1.177  49.634  1.00  0.00     0.003 C 
HETATM    4  C5  UNL     1      22.206   1.807  49.325  1.00  0.00     0.002 C 
HETATM    5  C6  UNL     1      23.060   2.750  49.976  1.00  0.00     0.052 C 
HETATM    6  C7  UNL     1      24.079   3.544  50.076  1.00  0.00     0.145 A 
HETATM    7  N2  UNL     1      24.910   3.622  48.958  1.00  0.00    -0.224 NA
HETATM    8  C8  UNL     1      25.913   4.391  49.188  1.00  0.00     0.226 A 
HETATM    9  N3  UNL     1      25.728   4.838  50.524  1.00  0.00    -0.290 N 
HETATM   10  N4  UNL     1      24.579   4.323  51.119  1.00  0.00    -0.269 N 
HETATM   11  C9  UNL     1      23.857   4.325  52.374  1.00  0.00     0.198 C 
HETATM   12  P1  UNL     1      24.309   2.783  53.301  1.00  0.00    -0.036 P 
HETATM   13  N5  UNL     1      24.351   1.357  52.260  1.00  0.00    -0.296 NA
HETATM   14  C10 UNL     1      24.657   0.138  52.940  1.00  0.00     0.055 C 
HETATM   15  C11 UNL     1      25.988   0.165  53.672  1.00  0.00     0.026 C 
HETATM   16  C12 UNL     1      23.578  -0.433  53.803  1.00  0.00     0.021 C 
HETATM   17  C13 UNL     1      22.344  -0.887  53.035  1.00  0.00     0.032 C 
HETATM   18  C14 UNL     1      21.806   0.207  52.226  1.00  0.00     0.272 C 
HETATM   19  H12 UNL     1      26.357   5.493  51.080  1.00  0.00     0.188 HD
HETATM   20  H15 UNL     1      25.525   2.906  54.062  1.00  0.00     0.075 HD
HETATM   21  H16 UNL     1      25.121   1.509  51.561  1.00  0.00     0.127 HD
ENDROOT
BRANCH   1  22
HETATM   22  C2  UNL     1      19.500  -0.146  52.636  1.00  0.00     0.268 C 
HETATM   23  C1  UNL     1      18.137  -0.484  52.101  1.00  0.00     0.037 C 
ENDBRANCH   1  22
TORSDOF 1
ENDMDL
MODEL 5
REMARK VINA RESULT:      -6.6      2.033      4.215
REMARK  1 active torsions:
REMARK  status: ('A' for Active; 'I' for Inactive)
REMARK    1  A    between atoms: C2_2  and  N1_3 
ROOT
HETATM    1  N1  UNL     1      21.918  -0.842  52.856  1.00  0.00     0.091 N 
HETATM    2  C3  UNL     1      20.962   0.189  52.340  1.00  0.00     0.299 C 
HETATM    3  C4  UNL     1      21.177   0.232  50.884  1.00  0.00     0.003 C 
HETATM    4  C5  UNL     1      21.705   1.186  50.168  1.00  0.00     0.002 C 
HETATM    5  C6  UNL     1      22.264   2.474  50.435  1.00  0.00     0.052 C 
HETATM    6  C7  UNL     1      22.813   3.607  50.128  1.00  0.00     0.145 A 
HETATM    7  N2  UNL     1      23.043   3.830  48.770  1.00  0.00    -0.224 NA
HETATM    8  C8  UNL     1      23.639   4.955  48.588  1.00  0.00     0.226 A 
HETATM    9  N3  UNL     1      23.806   5.492  49.893  1.00  0.00    -0.290 N 
HETATM   10  N4  UNL     1      23.296   4.667  50.893  1.00  0.00    -0.269 N 
HETATM   11  C9  UNL     1      23.175   4.579  52.334  1.00  0.00     0.198 C 
HETATM   12  P1  UNL     1      24.543   3.494  52.962  1.00  0.00    -0.036 P 
HETATM   13  N5  UNL     1      24.777   2.056  51.962  1.00  0.00    -0.296 NA
HETATM   14  C10 UNL     1      25.796   1.171  52.432  1.00  0.00     0.055 C 
HETATM   15  C11 UNL     1      27.162   1.824  52.558  1.00  0.00     0.026 C 
HETATM   16  C12 UNL     1      25.470   0.363  53.647  1.00  0.00     0.021 C 
HETATM   17  C13 UNL     1      24.348  -0.646  53.440  1.00  0.00     0.032 C 
HETATM   18  C14 UNL     1      23.141   0.016  52.944  1.00  0.00     0.272 C 
HETATM   19  H12 UNL     1      24.264   6.415  50.158  1.00  0.00     0.188 HD
HETATM   20  H15 UNL     1      25.785   4.194  53.163  1.00  0.00     0.075 HD
HETATM   21  H16 UNL     1      25.085   2.388  51.014  1.00  0.00     0.127 HD
ENDROOT
BRANCH   1  22
HETATM   22  C2  UNL     1      21.538  -1.139  54.251  1.00  0.00     0.268 C 
HETATM   23  C1  UNL     1      21.047   0.092  54.958  1.00  0.00     0.037 C 
ENDBRANCH   1  22
TORSDOF 1
ENDMDL
MODEL 6
REMARK VINA RESULT:      -6.4      2.115      2.842
REMARK  1 active torsions:
REMARK  status: ('A' for Active; 'I' for Inactive)
REMARK    1  A    between atoms: C2_2  and  N1_3 
ROOT
HETATM    1  N1  UNL     1      25.027   3.203  52.001  1.00  0.00     0.091 N 
HETATM    2  C3  UNL     1      24.208   3.915  50.968  1.00  0.00     0.299 C 
HETATM    3  C4  UNL     1      23.267   4.758  51.725  1.00  0.00     0.003 C 
HETATM    4  C5  UNL     1      21.975   4.631  51.842  1.00  0.00     0.002 C 
HETATM    5  C6  UNL     1      20.990   3.716  51.357  1.00  0.00     0.052 C 
HETATM    6  C7  UNL     1      19.793   3.244  51.205  1.00  0.00     0.145 A 
HETATM    7  N2  UNL     1      18.767   3.960  51.824  1.00  0.00    -0.224 NA
HETATM    8  C8  UNL     1      17.635   3.374  51.655  1.00  0.00     0.226 A 
HETATM    9  N3  UNL     1      17.938   2.217  50.887  1.00  0.00    -0.290 N 
HETATM   10  N4  UNL     1      19.292   2.101  50.584  1.00  0.00    -0.269 N 
HETATM   11  C9  UNL     1      20.232   1.217  49.925  1.00  0.00     0.198 C 
HETATM   12  P1  UNL     1      21.042   0.166  51.222  1.00  0.00    -0.036 P 
HETATM   13  N5  UNL     1      21.493   1.093  52.657  1.00  0.00    -0.296 NA
HETATM   14  C10 UNL     1      22.156   0.330  53.668  1.00  0.00     0.055 C 
HETATM   15  C11 UNL     1      21.347  -0.855  54.167  1.00  0.00     0.026 C 
HETATM   16  C12 UNL     1      23.571  -0.062  53.386  1.00  0.00     0.021 C 
HETATM   17  C13 UNL     1      24.535   1.114  53.297  1.00  0.00     0.032 C 
HETATM   18  C14 UNL     1      24.080   2.082  52.299  1.00  0.00     0.272 C 
HETATM   19  H12 UNL     1      17.259   1.472  50.546  1.00  0.00     0.188 HD
HETATM   20  H15 UNL     1      20.276  -1.000  51.576  1.00  0.00     0.075 HD
HETATM   21  H16 UNL     1      20.601   1.445  53.087  1.00  0.00     0.127 HD
ENDROOT
BRANCH   1  22
HETATM   22  C2  UNL     1      26.172   2.582  51.306  1.00  0.00     0.268 C 
HETATM   23  C1  UNL     1      26.433   3.244  49.983  1.00  0.00     0.037 C 
ENDBRANCH   1  22
TORSDOF 1
ENDMDL
MODEL 7
REMARK VINA RESULT:      -6.3      2.967      5.162
REMARK  1 active torsions:
REMARK  status: ('A' for Active; 'I' for Inactive)
REMARK    1  A    between atoms: C2_2  and  N1_3 
ROOT
HETATM    1  N1  UNL     1      22.690   0.755  51.727  1.00  0.00     0.091 N 
HETATM    2  C3  UNL     1      21.416   1.258  51.122  1.00  0.00     0.299 C 
HETATM    3  C4  UNL     1      21.412   0.754  49.738  1.00  0.00     0.003 C 
HETATM    4  C5  UNL     1      21.539   1.425  48.627  1.00  0.00     0.002 C 
HETATM    5  C6  UNL     1      21.732   2.798  48.280  1.00  0.00     0.052 C 
HETATM    6  C7  UNL     1      21.883   3.799  47.471  1.00  0.00     0.145 A 
HETATM    7  N2  UNL     1      21.853   3.497  46.108  1.00  0.00    -0.224 NA
HETATM    8  C8  UNL     1      22.068   4.551  45.403  1.00  0.00     0.226 A 
HETATM    9  N3  UNL     1      22.247   5.592  46.354  1.00  0.00    -0.290 N 
HETATM   10  N4  UNL     1      22.137   5.154  47.672  1.00  0.00    -0.269 N 
HETATM   11  C9  UNL     1      22.242   5.633  49.035  1.00  0.00     0.198 C 
HETATM   12  P1  UNL     1      23.937   5.216  49.663  1.00  0.00    -0.036 P 
HETATM   13  N5  UNL     1      24.441   3.582  49.214  1.00  0.00    -0.296 NA
HETATM   14  C10 UNL     1      25.726   3.204  49.710  1.00  0.00     0.055 C 
HETATM   15  C11 UNL     1      26.848   4.128  49.269  1.00  0.00     0.026 C 
HETATM   16  C12 UNL     1      25.814   2.908  51.173  1.00  0.00     0.021 C 
HETATM   17  C13 UNL     1      25.015   1.686  51.609  1.00  0.00     0.032 C 
HETATM   18  C14 UNL     1      23.613   1.816  51.213  1.00  0.00     0.272 C 
HETATM   19  H12 UNL     1      22.449   6.618  46.158  1.00  0.00     0.188 HD
HETATM   20  H15 UNL     1      24.938   6.185  49.302  1.00  0.00     0.075 HD
HETATM   21  H16 UNL     1      24.508   3.560  48.165  1.00  0.00     0.127 HD
ENDROOT
BRANCH   1  22
HETATM   22  C2  UNL     1      22.605   0.974  53.184  1.00  0.00     0.268 C 
HETATM   23  C1  UNL     1      21.260   0.572  53.719  1.00  0.00     0.037 C 
ENDBRANCH   1  22
TORSDOF 1
ENDMDL
MODEL 8
REMARK VINA RESULT:      -6.2      2.808      5.045
REMARK  1 active torsions:
REMARK  status: ('A' for Active; 'I' for Inactive)
REMARK    1  A    between atoms: C2_2  and  N1_3 
ROOT
HETATM    1  N1  UNL     1      20.663   0.777  50.017  1.00  0.00     0.091 N 
HETATM    2  C3  UNL     1      20.594   2.092  49.304  1.00  0.00     0.299 C 
HETATM    3  C4  UNL     1      21.700   2.071  48.331  1.00  0.00     0.003 C 
HETATM    4  C5  UNL     1      22.798   2.775  48.333  1.00  0.00     0.002 C 
HETATM    5  C6  UNL     1      23.374   3.766  49.186  1.00  0.00     0.052 C 
HETATM    6  C7  UNL     1      24.272   4.624  49.557  1.00  0.00     0.145 A 
HETATM    7  N2  UNL     1      25.374   4.764  48.712  1.00  0.00    -0.224 NA
HETATM    8  C8  UNL     1      26.222   5.596  49.204  1.00  0.00     0.226 A 
HETATM    9  N3  UNL     1      25.644   6.019  50.432  1.00  0.00    -0.290 N 
HETATM   10  N4  UNL     1      24.411   5.426  50.689  1.00  0.00    -0.269 N 
HETATM   11  C9  UNL     1      23.370   5.371  51.694  1.00  0.00     0.198 C 
HETATM   12  P1  UNL     1      23.646   3.854  52.727  1.00  0.00    -0.036 P 
HETATM   13  N5  UNL     1      24.067   2.441  51.753  1.00  0.00    -0.296 NA
HETATM   14  C10 UNL     1      24.251   1.240  52.504  1.00  0.00     0.055 C 
HETATM   15  C11 UNL     1      25.322   1.348  53.577  1.00  0.00     0.026 C 
HETATM   16  C12 UNL     1      23.014   0.593  53.040  1.00  0.00     0.021 C 
HETATM   17  C13 UNL     1      22.074   0.066  51.964  1.00  0.00     0.032 C 
HETATM   18  C14 UNL     1      21.712   1.128  51.026  1.00  0.00     0.272 C 
HETATM   19  H12 UNL     1      26.051   6.709  51.133  1.00  0.00     0.188 HD
HETATM   20  H15 UNL     1      24.592   4.050  53.794  1.00  0.00     0.075 HD
HETATM   21  H16 UNL     1      24.990   2.649  51.294  1.00  0.00     0.127 HD
ENDROOT
BRANCH   1  22
HETATM   22  C2  UNL     1      19.411   0.623  50.782  1.00  0.00     0.268 C 
HETATM   23  C1  UNL     1      18.212   0.970  49.946  1.00  0.00     0.037 C 
ENDBRANCH   1  22
TORSDOF 1
ENDMDL
MODEL 9
REMARK VINA RESULT:      -6.0     11.686     13.326
REMARK  1 active torsions:
REMARK  status: ('A' for Active; 'I' for Inactive)
REMARK    1  A    between atoms: C2_2  and  N1_3 
ROOT
HETATM    1  N1  UNL     1      33.576   5.875  43.006  1.00  0.00     0.091 N 
HETATM    2  C3  UNL     1      32.332   6.681  43.227  1.00  0.00     0.299 C 
HETATM    3  C4  UNL     1      32.780   7.927  43.871  1.00  0.00     0.003 C 
HETATM    4  C5  UNL     1      32.575   8.329  45.094  1.00  0.00     0.002 C 
HETATM    5  C6  UNL     1      31.911   7.802  46.245  1.00  0.00     0.052 C 
HETATM    6  C7  UNL     1      31.490   7.812  47.471  1.00  0.00     0.145 A 
HETATM    7  N2  UNL     1      31.790   8.954  48.214  1.00  0.00    -0.224 NA
HETATM    8  C8  UNL     1      31.376   8.832  49.425  1.00  0.00     0.226 A 
HETATM    9  N3  UNL     1      30.776   7.545  49.474  1.00  0.00    -0.290 N 
HETATM   10  N4  UNL     1      30.829   6.870  48.257  1.00  0.00    -0.269 N 
HETATM   11  C9  UNL     1      30.478   5.602  47.650  1.00  0.00     0.198 C 
HETATM   12  P1  UNL     1      31.994   4.533  47.632  1.00  0.00    -0.036 P 
HETATM   13  N5  UNL     1      33.442   5.422  47.147  1.00  0.00    -0.296 NA
HETATM   14  C10 UNL     1      34.628   4.627  47.081  1.00  0.00     0.055 C 
HETATM   15  C11 UNL     1      34.975   3.938  48.390  1.00  0.00     0.026 C 
HETATM   16  C12 UNL     1      34.734   3.681  45.929  1.00  0.00     0.021 C 
HETATM   17  C13 UNL     1      34.823   4.364  44.570  1.00  0.00     0.032 C 
HETATM   18  C14 UNL     1      33.690   5.268  44.369  1.00  0.00     0.272 C 
HETATM   19  H12 UNL     1      30.318   7.077  50.313  1.00  0.00     0.188 HD
HETATM   20  H15 UNL     1      32.211   3.822  48.865  1.00  0.00     0.075 HD
HETATM   21  H16 UNL     1      33.614   6.153  47.882  1.00  0.00     0.127 HD
ENDROOT
BRANCH   1  22
HETATM   22  C2  UNL     1      33.227   4.762  42.102  1.00  0.00     0.268 C 
HETATM   23  C1  UNL     1      33.947   4.879  40.788  1.00  0.00     0.037 C 
ENDBRANCH   1  22
TORSDOF 1
ENDMDL
