MODEL 1
REMARK VINA RESULT:      -8.3      0.000      0.000
REMARK  5 active torsions:
REMARK  status: ('A' for Active; 'I' for Inactive)
REMARK    1  A    between atoms: C7_9  and  N3_10 
REMARK    2  A    between atoms: N3_10  and  C8_11 
REMARK    3  A    between atoms: C11_14  and  O1_15 
REMARK    4  A    between atoms: O1_15  and  C12_16 
REMARK    5  A    between atoms: C12_16  and  C13_17 
ROOT
HETATM    1  N1  UNL     1      26.737  -2.477  51.961  1.00  0.00    -0.192 NA
HETATM    2  C1  UNL     1      27.063  -1.528  52.536  1.00  0.00     0.099 C 
HETATM    3  C2  UNL     1      27.450  -0.328  53.247  1.00  0.00     0.066 C 
HETATM    4  C3  UNL     1      28.591  -0.514  53.892  1.00  0.00     0.137 C 
HETATM    5  N2  UNL     1      29.274   0.469  54.703  1.00  0.00    -0.272 NA
HETATM    6  C4  UNL     1      29.272   1.770  54.524  1.00  0.00     0.116 C 
HETATM    7  C5  UNL     1      28.563   2.500  53.447  1.00  0.00     0.017 C 
HETATM    8  C6  UNL     1      27.427   2.068  52.919  1.00  0.00     0.005 C 
HETATM    9  C7  UNL     1      26.607   0.886  53.190  1.00  0.00     0.150 C 
ENDROOT
BRANCH   9  10
HETATM   10  N3  UNL     1      25.483   0.777  52.322  1.00  0.00    -0.377 N 
HETATM   11  H6  UNL     1      25.687   0.808  51.300  1.00  0.00     0.160 HD
BRANCH  10  12
HETATM   12  C8  UNL     1      24.133   0.632  52.724  1.00  0.00     0.030 A 
HETATM   13  C9  UNL     1      23.640  -0.406  53.472  1.00  0.00     0.032 A 
HETATM   14  C10 UNL     1      22.333  -0.555  53.857  1.00  0.00     0.041 A 
HETATM   15  C11 UNL     1      21.410   0.397  53.478  1.00  0.00     0.091 A 
HETATM   16  C19 UNL     1      21.849   1.462  52.726  1.00  0.00     0.069 A 
HETATM   17 CL1  UNL     1      20.719   2.707  52.212  1.00  0.00    -0.081 Cl
HETATM   18  C20 UNL     1      23.178   1.560  52.366  1.00  0.00     0.056 A 
BRANCH  15  19
HETATM   19  O1  UNL     1      20.080   0.293  53.840  1.00  0.00    -0.345 OA
BRANCH  19  20
HETATM   20  C12 UNL     1      19.383  -0.907  53.552  1.00  0.00     0.214 C 
BRANCH  20  21
HETATM   21  C13 UNL     1      18.310  -0.745  52.564  1.00  0.00    -0.034 A 
HETATM   22  C14 UNL     1      18.563  -0.082  51.400  1.00  0.00     0.009 A 
HETATM   23  C15 UNL     1      17.595   0.105  50.427  1.00  0.00     0.001 A 
HETATM   24  C16 UNL     1      16.356  -0.431  50.727  1.00  0.00     0.000 A 
HETATM   25  C17 UNL     1      16.046  -1.113  51.895  1.00  0.00     0.001 A 
HETATM   26  C18 UNL     1      17.044  -1.270  52.825  1.00  0.00     0.009 A 
ENDBRANCH  20  21
ENDBRANCH  19  20
ENDBRANCH  15  19
ENDBRANCH  10  12
ENDBRANCH   9  10
TORSDOF 5
ENDMDL
MODEL 2
REMARK VINA RESULT:      -8.2      2.191      3.659
REMARK  5 active torsions:
REMARK  status: ('A' for Active; 'I' for Inactive)
REMARK    1  A    between atoms: C7_9  and  N3_10 
REMARK    2  A    between atoms: N3_10  and  C8_11 
REMARK    3  A    between atoms: C11_14  and  O1_15 
REMARK    4  A    between atoms: O1_15  and  C12_16 
REMARK    5  A    between atoms: C12_16  and  C13_17 
ROOT
HETATM    1  N1  UNL     1      29.588   2.203  54.961  1.00  0.00    -0.192 NA
HETATM    2  C1  UNL     1      29.139   1.351  54.322  1.00  0.00     0.099 C 
HETATM    3  C2  UNL     1      28.561   0.300  53.512  1.00  0.00     0.066 C 
HETATM    4  C3  UNL     1      29.099  -0.872  53.812  1.00  0.00     0.137 C 
HETATM    5  N2  UNL     1      28.761  -2.138  53.202  1.00  0.00    -0.272 NA
HETATM    6  C4  UNL     1      27.589  -2.491  52.726  1.00  0.00     0.116 C 
HETATM    7  C5  UNL     1      26.365  -1.656  52.718  1.00  0.00     0.017 C 
HETATM    8  C6  UNL     1      26.403  -0.335  52.624  1.00  0.00     0.005 C 
HETATM    9  C7  UNL     1      27.516   0.609  52.512  1.00  0.00     0.150 C 
ENDROOT
BRANCH   9  10
HETATM   10  N3  UNL     1      27.095   1.969  52.508  1.00  0.00    -0.377 N 
HETATM   11  H6  UNL     1      27.827   2.678  52.727  1.00  0.00     0.160 HD
BRANCH  10  12
HETATM   12  C8  UNL     1      25.784   2.434  52.235  1.00  0.00     0.030 A 
HETATM   13  C9  UNL     1      24.894   2.879  53.177  1.00  0.00     0.032 A 
HETATM   14  C10 UNL     1      23.623   3.322  52.919  1.00  0.00     0.041 A 
HETATM   15  C11 UNL     1      23.169   3.334  51.616  1.00  0.00     0.091 A 
HETATM   16  C19 UNL     1      24.020   2.898  50.629  1.00  0.00     0.069 A 
HETATM   17 CL1  UNL     1      23.499   2.890  48.950  1.00  0.00    -0.081 Cl
HETATM   18  C20 UNL     1      25.291   2.462  50.947  1.00  0.00     0.056 A 
BRANCH  15  19
HETATM   19  O1  UNL     1      21.895   3.771  51.303  1.00  0.00    -0.345 OA
BRANCH  19  20
HETATM   20  C12 UNL     1      20.850   3.564  52.239  1.00  0.00     0.214 C 
BRANCH  20  21
HETATM   21  C13 UNL     1      20.257   2.223  52.176  1.00  0.00    -0.034 A 
HETATM   22  C14 UNL     1      20.503   1.332  53.179  1.00  0.00     0.009 A 
HETATM   23  C15 UNL     1      19.975   0.052  53.180  1.00  0.00     0.001 A 
HETATM   24  C16 UNL     1      19.180  -0.251  52.089  1.00  0.00     0.000 A 
HETATM   25  C17 UNL     1      18.899   0.617  51.044  1.00  0.00     0.001 A 
HETATM   26  C18 UNL     1      19.449   1.874  51.095  1.00  0.00     0.009 A 
ENDBRANCH  20  21
ENDBRANCH  19  20
ENDBRANCH  15  19
ENDBRANCH  10  12
ENDBRANCH   9  10
TORSDOF 5
ENDMDL
MODEL 3
REMARK VINA RESULT:      -8.0      3.215      4.720
REMARK  5 active torsions:
REMARK  status: ('A' for Active; 'I' for Inactive)
REMARK    1  A    between atoms: C7_9  and  N3_10 
REMARK    2  A    between atoms: N3_10  and  C8_11 
REMARK    3  A    between atoms: C11_14  and  O1_15 
REMARK    4  A    between atoms: O1_15  and  C12_16 
REMARK    5  A    between atoms: C12_16  and  C13_17 
ROOT
HETATM    1  N1  UNL     1      29.617   2.288  54.971  1.00  0.00    -0.192 NA
HETATM    2  C1  UNL     1      29.136   1.459  54.325  1.00  0.00     0.099 C 
HETATM    3  C2  UNL     1      28.519   0.439  53.504  1.00  0.00     0.066 C 
HETATM    4  C3  UNL     1      28.985  -0.759  53.818  1.00  0.00     0.137 C 
HETATM    5  N2  UNL     1      28.592  -2.007  53.204  1.00  0.00    -0.272 NA
HETATM    6  C4  UNL     1      27.412  -2.297  52.704  1.00  0.00     0.116 C 
HETATM    7  C5  UNL     1      26.236  -1.397  52.669  1.00  0.00     0.017 C 
HETATM    8  C6  UNL     1      26.348  -0.080  52.573  1.00  0.00     0.005 C 
HETATM    9  C7  UNL     1      27.513   0.802  52.482  1.00  0.00     0.150 C 
ENDROOT
BRANCH   9  10
HETATM   10  N3  UNL     1      27.167   2.183  52.467  1.00  0.00    -0.377 N 
HETATM   11  H6  UNL     1      27.654   2.787  53.163  1.00  0.00     0.160 HD
BRANCH  10  12
HETATM   12  C8  UNL     1      26.231   2.796  51.598  1.00  0.00     0.030 A 
HETATM   13  C9  UNL     1      26.443   3.060  50.270  1.00  0.00     0.032 A 
HETATM   14  C10 UNL     1      25.544   3.660  49.427  1.00  0.00     0.041 A 
HETATM   15  C11 UNL     1      24.315   4.043  49.921  1.00  0.00     0.091 A 
HETATM   16  C19 UNL     1      24.046   3.802  51.248  1.00  0.00     0.069 A 
HETATM   17 CL1  UNL     1      22.497   4.268  51.936  1.00  0.00    -0.081 Cl
HETATM   18  C20 UNL     1      24.991   3.194  52.051  1.00  0.00     0.056 A 
BRANCH  15  19
HETATM   19  O1  UNL     1      23.373   4.652  49.113  1.00  0.00    -0.345 OA
BRANCH  19  20
HETATM   20  C12 UNL     1      22.705   3.874  48.134  1.00  0.00     0.214 C 
BRANCH  20  21
HETATM   21  C13 UNL     1      21.707   2.952  48.692  1.00  0.00    -0.034 A 
HETATM   22  C14 UNL     1      22.036   1.643  48.883  1.00  0.00     0.009 A 
HETATM   23  C15 UNL     1      21.142   0.722  49.404  1.00  0.00     0.001 A 
HETATM   24  C16 UNL     1      19.894   1.232  49.714  1.00  0.00     0.000 A 
HETATM   25  C17 UNL     1      19.509   2.554  49.539  1.00  0.00     0.001 A 
HETATM   26  C18 UNL     1      20.436   3.423  49.019  1.00  0.00     0.009 A 
ENDBRANCH  20  21
ENDBRANCH  19  20
ENDBRANCH  15  19
ENDBRANCH  10  12
ENDBRANCH   9  10
TORSDOF 5
ENDMDL
MODEL 4
REMARK VINA RESULT:      -7.9      4.700      6.724
REMARK  5 active torsions:
REMARK  status: ('A' for Active; 'I' for Inactive)
REMARK    1  A    between atoms: C7_9  and  N3_10 
REMARK    2  A    between atoms: N3_10  and  C8_11 
REMARK    3  A    between atoms: C11_14  and  O1_15 
REMARK    4  A    between atoms: O1_15  and  C12_16 
REMARK    5  A    between atoms: C12_16  and  C13_17 
ROOT
HETATM    1  N1  UNL     1      29.612   2.253  55.025  1.00  0.00    -0.192 NA
HETATM    2  C1  UNL     1      29.190   1.396  54.374  1.00  0.00     0.099 C 
HETATM    3  C2  UNL     1      28.646   0.340  53.548  1.00  0.00     0.066 C 
HETATM    4  C3  UNL     1      29.181  -0.828  53.868  1.00  0.00     0.137 C 
HETATM    5  N2  UNL     1      28.872  -2.097  53.251  1.00  0.00    -0.272 NA
HETATM    6  C4  UNL     1      27.719  -2.459  52.737  1.00  0.00     0.116 C 
HETATM    7  C5  UNL     1      26.490  -1.632  52.687  1.00  0.00     0.017 C 
HETATM    8  C6  UNL     1      26.523  -0.311  52.591  1.00  0.00     0.005 C 
HETATM    9  C7  UNL     1      27.633   0.640  52.513  1.00  0.00     0.150 C 
ENDROOT
BRANCH   9  10
HETATM   10  N3  UNL     1      27.203   1.997  52.492  1.00  0.00    -0.377 N 
HETATM   11  H6  UNL     1      27.692   2.645  53.146  1.00  0.00     0.160 HD
BRANCH  10  12
HETATM   12  C8  UNL     1      26.183   2.534  51.668  1.00  0.00     0.030 A 
HETATM   13  C9  UNL     1      26.302   2.781  50.325  1.00  0.00     0.032 A 
HETATM   14  C10 UNL     1      25.321   3.307  49.525  1.00  0.00     0.041 A 
HETATM   15  C11 UNL     1      24.102   3.628  50.084  1.00  0.00     0.091 A 
HETATM   16  C19 UNL     1      23.925   3.401  51.429  1.00  0.00     0.069 A 
HETATM   17 CL1  UNL     1      22.393   3.790  52.198  1.00  0.00    -0.081 Cl
HETATM   18  C20 UNL     1      24.949   2.869  52.186  1.00  0.00     0.056 A 
BRANCH  15  19
HETATM   19  O1  UNL     1      23.079   4.161  49.321  1.00  0.00    -0.345 OA
BRANCH  19  20
HETATM   20  C12 UNL     1      23.397   5.111  48.318  1.00  0.00     0.214 C 
BRANCH  20  21
HETATM   21  C13 UNL     1      23.972   6.356  48.843  1.00  0.00    -0.034 A 
HETATM   22  C14 UNL     1      25.054   6.908  48.224  1.00  0.00     0.009 A 
HETATM   23  C15 UNL     1      25.644   8.080  48.668  1.00  0.00     0.001 A 
HETATM   24  C16 UNL     1      25.052   8.644  49.784  1.00  0.00     0.000 A 
HETATM   25  C17 UNL     1      23.952   8.123  50.450  1.00  0.00     0.001 A 
HETATM   26  C18 UNL     1      23.407   6.959  49.965  1.00  0.00     0.009 A 
ENDBRANCH  20  21
ENDBRANCH  19  20
ENDBRANCH  15  19
ENDBRANCH  10  12
ENDBRANCH   9  10
TORSDOF 5
ENDMDL
MODEL 5
REMARK VINA RESULT:      -7.7      5.863      8.560
REMARK  5 active torsions:
REMARK  status: ('A' for Active; 'I' for Inactive)
REMARK    1  A    between atoms: C7_9  and  N3_10 
REMARK    2  A    between atoms: N3_10  and  C8_11 
REMARK    3  A    between atoms: C11_14  and  O1_15 
REMARK    4  A    between atoms: O1_15  and  C12_16 
REMARK    5  A    between atoms: C12_16  and  C13_17 
ROOT
HETATM    1  N1  UNL     1      30.678   5.062  47.899  1.00  0.00    -0.192 NA
HETATM    2  C1  UNL     1      30.249   6.095  48.193  1.00  0.00     0.099 C 
HETATM    3  C2  UNL     1      29.689   7.379  48.556  1.00  0.00     0.066 C 
HETATM    4  C3  UNL     1      30.648   8.235  48.871  1.00  0.00     0.137 C 
HETATM    5  N2  UNL     1      30.455   9.608  49.281  1.00  0.00    -0.272 NA
HETATM    6  C4  UNL     1      29.489  10.412  48.899  1.00  0.00     0.116 C 
HETATM    7  C5  UNL     1      28.393  10.071  47.962  1.00  0.00     0.017 C 
HETATM    8  C6  UNL     1      27.898   8.846  47.858  1.00  0.00     0.005 C 
HETATM    9  C7  UNL     1      28.226   7.594  48.541  1.00  0.00     0.150 C 
ENDROOT
BRANCH   9  10
HETATM   10  N3  UNL     1      27.477   6.483  48.059  1.00  0.00    -0.377 N 
HETATM   11  H6  UNL     1      27.439   6.369  47.023  1.00  0.00     0.160 HD
BRANCH  10  12
HETATM   12  C8  UNL     1      26.791   5.533  48.856  1.00  0.00     0.030 A 
HETATM   13  C9  UNL     1      27.131   4.211  48.974  1.00  0.00     0.032 A 
HETATM   14  C10 UNL     1      26.466   3.287  49.737  1.00  0.00     0.041 A 
HETATM   15  C11 UNL     1      25.359   3.684  50.458  1.00  0.00     0.091 A 
HETATM   16  C19 UNL     1      24.971   5.001  50.376  1.00  0.00     0.069 A 
HETATM   17 CL1  UNL     1      23.568   5.568  51.272  1.00  0.00    -0.081 Cl
HETATM   18  C20 UNL     1      25.679   5.889  49.591  1.00  0.00     0.056 A 
BRANCH  15  19
HETATM   19  O1  UNL     1      24.653   2.791  51.242  1.00  0.00    -0.345 OA
BRANCH  19  20
HETATM   20  C12 UNL     1      25.040   2.613  52.594  1.00  0.00     0.214 C 
BRANCH  20  21
HETATM   21  C13 UNL     1      26.103   1.618  52.780  1.00  0.00    -0.034 A 
HETATM   22  C14 UNL     1      27.300   2.005  53.306  1.00  0.00     0.009 A 
HETATM   23  C15 UNL     1      28.344   1.116  53.506  1.00  0.00     0.001 A 
HETATM   24  C16 UNL     1      28.078  -0.189  53.132  1.00  0.00     0.000 A 
HETATM   25  C17 UNL     1      26.879  -0.633  52.593  1.00  0.00     0.001 A 
HETATM   26  C18 UNL     1      25.879   0.291  52.416  1.00  0.00     0.009 A 
ENDBRANCH  20  21
ENDBRANCH  19  20
ENDBRANCH  15  19
ENDBRANCH  10  12
ENDBRANCH   9  10
TORSDOF 5
ENDMDL
MODEL 6
REMARK VINA RESULT:      -7.6      5.614      8.592
REMARK  5 active torsions:
REMARK  status: ('A' for Active; 'I' for Inactive)
REMARK    1  A    between atoms: C7_9  and  N3_10 
REMARK    2  A    between atoms: N3_10  and  C8_11 
REMARK    3  A    between atoms: C11_14  and  O1_15 
REMARK    4  A    between atoms: O1_15  and  C12_16 
REMARK    5  A    between atoms: C12_16  and  C13_17 
ROOT
HETATM    1  N1  UNL     1      29.216   5.596  48.054  1.00  0.00    -0.192 NA
HETATM    2  C1  UNL     1      28.424   6.375  48.373  1.00  0.00     0.099 C 
HETATM    3  C2  UNL     1      27.415   7.333  48.773  1.00  0.00     0.066 C 
HETATM    4  C3  UNL     1      27.939   8.544  48.886  1.00  0.00     0.137 C 
HETATM    5  N2  UNL     1      27.224   9.742  49.265  1.00  0.00    -0.272 NA
HETATM    6  C4  UNL     1      25.963  10.014  49.019  1.00  0.00     0.116 C 
HETATM    7  C5  UNL     1      25.010   9.140  48.296  1.00  0.00     0.017 C 
HETATM    8  C6  UNL     1      25.088   7.818  48.327  1.00  0.00     0.005 C 
HETATM    9  C7  UNL     1      26.017   6.906  48.996  1.00  0.00     0.150 C 
ENDROOT
BRANCH   9  10
HETATM   10  N3  UNL     1      25.769   5.537  48.694  1.00  0.00    -0.377 N 
HETATM   11  H6  UNL     1      25.606   5.310  47.689  1.00  0.00     0.160 HD
BRANCH  10  12
HETATM   12  C8  UNL     1      25.727   4.472  49.628  1.00  0.00     0.030 A 
HETATM   13  C9  UNL     1      26.634   3.447  49.696  1.00  0.00     0.032 A 
HETATM   14  C10 UNL     1      26.593   2.411  50.592  1.00  0.00     0.041 A 
HETATM   15  C11 UNL     1      25.570   2.364  51.516  1.00  0.00     0.091 A 
HETATM   16  C19 UNL     1      24.631   3.368  51.495  1.00  0.00     0.069 A 
HETATM   17 CL1  UNL     1      23.303   3.363  52.647  1.00  0.00    -0.081 Cl
HETATM   18  C20 UNL     1      24.722   4.388  50.568  1.00  0.00     0.056 A 
BRANCH  15  19
HETATM   19  O1  UNL     1      25.483   1.341  52.442  1.00  0.00    -0.345 OA
BRANCH  19  20
HETATM   20  C12 UNL     1      26.391   1.324  53.531  1.00  0.00     0.214 C 
BRANCH  20  21
HETATM   21  C13 UNL     1      27.403   0.264  53.440  1.00  0.00    -0.034 A 
HETATM   22  C14 UNL     1      27.036  -0.981  53.023  1.00  0.00     0.009 A 
HETATM   23  C15 UNL     1      27.941  -2.024  52.916  1.00  0.00     0.001 A 
HETATM   24  C16 UNL     1      29.242  -1.705  53.263  1.00  0.00     0.000 A 
HETATM   25  C17 UNL     1      29.667  -0.456  53.693  1.00  0.00     0.001 A 
HETATM   26  C18 UNL     1      28.727   0.541  53.780  1.00  0.00     0.009 A 
ENDBRANCH  20  21
ENDBRANCH  19  20
ENDBRANCH  15  19
ENDBRANCH  10  12
ENDBRANCH   9  10
TORSDOF 5
ENDMDL
MODEL 7
REMARK VINA RESULT:      -7.6      5.104      6.608
REMARK  5 active torsions:
REMARK  status: ('A' for Active; 'I' for Inactive)
REMARK    1  A    between atoms: C7_9  and  N3_10 
REMARK    2  A    between atoms: N3_10  and  C8_11 
REMARK    3  A    between atoms: C11_14  and  O1_15 
REMARK    4  A    between atoms: O1_15  and  C12_16 
REMARK    5  A    between atoms: C12_16  and  C13_17 
ROOT
HETATM    1  N1  UNL     1      29.667   5.046  48.108  1.00  0.00    -0.192 NA
HETATM    2  C1  UNL     1      28.860   5.857  48.277  1.00  0.00     0.099 C 
HETATM    3  C2  UNL     1      27.833   6.853  48.493  1.00  0.00     0.066 C 
HETATM    4  C3  UNL     1      28.331   8.073  48.368  1.00  0.00     0.137 C 
HETATM    5  N2  UNL     1      27.593   9.307  48.516  1.00  0.00    -0.272 NA
HETATM    6  C4  UNL     1      26.325   9.501  48.231  1.00  0.00     0.116 C 
HETATM    7  C5  UNL     1      25.388   8.486  47.696  1.00  0.00     0.017 C 
HETATM    8  C6  UNL     1      25.495   7.196  47.980  1.00  0.00     0.005 C 
HETATM    9  C7  UNL     1      26.445   6.448  48.806  1.00  0.00     0.150 C 
ENDROOT
BRANCH   9  10
HETATM   10  N3  UNL     1      26.225   5.042  48.773  1.00  0.00    -0.377 N 
HETATM   11  H6  UNL     1      26.363   4.576  47.851  1.00  0.00     0.160 HD
BRANCH  10  12
HETATM   12  C8  UNL     1      25.841   4.235  49.872  1.00  0.00     0.030 A 
HETATM   13  C9  UNL     1      26.575   3.195  50.380  1.00  0.00     0.032 A 
HETATM   14  C10 UNL     1      26.204   2.405  51.438  1.00  0.00     0.041 A 
HETATM   15  C11 UNL     1      25.000   2.649  52.066  1.00  0.00     0.091 A 
HETATM   16  C19 UNL     1      24.222   3.681  51.598  1.00  0.00     0.069 A 
HETATM   17 CL1  UNL     1      22.677   4.040  52.357  1.00  0.00    -0.081 Cl
HETATM   18  C20 UNL     1      24.646   4.443  50.528  1.00  0.00     0.056 A 
BRANCH  15  19
HETATM   19  O1  UNL     1      24.580   1.882  53.137  1.00  0.00    -0.345 OA
BRANCH  19  20
HETATM   20  C12 UNL     1      24.145   0.554  52.900  1.00  0.00     0.214 C 
BRANCH  20  21
HETATM   21  C13 UNL     1      22.689   0.425  52.761  1.00  0.00    -0.034 A 
HETATM   22  C14 UNL     1      21.924   0.225  53.871  1.00  0.00     0.009 A 
HETATM   23  C15 UNL     1      20.546   0.095  53.809  1.00  0.00     0.001 A 
HETATM   24  C16 UNL     1      20.010   0.182  52.537  1.00  0.00     0.000 A 
HETATM   25  C17 UNL     1      20.743   0.383  51.377  1.00  0.00     0.001 A 
HETATM   26  C18 UNL     1      22.105   0.506  51.497  1.00  0.00     0.009 A 
ENDBRANCH  20  21
ENDBRANCH  19  20
ENDBRANCH  15  19
ENDBRANCH  10  12
ENDBRANCH   9  10
TORSDOF 5
ENDMDL
MODEL 8
REMARK VINA RESULT:      -7.6      5.243      8.284
REMARK  5 active torsions:
REMARK  status: ('A' for Active; 'I' for Inactive)
REMARK    1  A    between atoms: C7_9  and  N3_10 
REMARK    2  A    between atoms: N3_10  and  C8_11 
REMARK    3  A    between atoms: C11_14  and  O1_15 
REMARK    4  A    between atoms: O1_15  and  C12_16 
REMARK    5  A    between atoms: C12_16  and  C13_17 
ROOT
HETATM    1  N1  UNL     1      28.145   4.843  48.602  1.00  0.00    -0.192 NA
HETATM    2  C1  UNL     1      27.058   5.234  48.657  1.00  0.00     0.099 C 
HETATM    3  C2  UNL     1      25.691   5.701  48.735  1.00  0.00     0.066 C 
HETATM    4  C3  UNL     1      25.595   6.944  48.289  1.00  0.00     0.137 C 
HETATM    5  N2  UNL     1      24.381   7.727  48.221  1.00  0.00    -0.272 NA
HETATM    6  C4  UNL     1      23.166   7.272  48.019  1.00  0.00     0.116 C 
HETATM    7  C5  UNL     1      22.789   5.852  47.821  1.00  0.00     0.017 C 
HETATM    8  C6  UNL     1      23.454   4.853  48.380  1.00  0.00     0.005 C 
HETATM    9  C7  UNL     1      24.623   4.822  49.260  1.00  0.00     0.150 C 
ENDROOT
BRANCH   9  10
HETATM   10  N3  UNL     1      25.054   3.501  49.570  1.00  0.00    -0.377 N 
HETATM   11  H6  UNL     1      25.162   2.851  48.762  1.00  0.00     0.160 HD
BRANCH  10  12
HETATM   12  C8  UNL     1      25.344   3.002  50.864  1.00  0.00     0.030 A 
HETATM   13  C9  UNL     1      24.414   2.527  51.752  1.00  0.00     0.032 A 
HETATM   14  C10 UNL     1      24.689   2.051  53.008  1.00  0.00     0.041 A 
HETATM   15  C11 UNL     1      25.996   2.034  53.447  1.00  0.00     0.091 A 
HETATM   16  C19 UNL     1      26.972   2.499  52.597  1.00  0.00     0.069 A 
HETATM   17 CL1  UNL     1      28.656   2.503  53.100  1.00  0.00    -0.081 Cl
HETATM   18  C20 UNL     1      26.637   2.968  51.342  1.00  0.00     0.056 A 
BRANCH  15  19
HETATM   19  O1  UNL     1      26.326   1.563  54.705  1.00  0.00    -0.345 OA
BRANCH  19  20
HETATM   20  C12 UNL     1      26.271   0.168  54.950  1.00  0.00     0.214 C 
BRANCH  20  21
HETATM   21  C13 UNL     1      27.312  -0.597  54.251  1.00  0.00    -0.034 A 
HETATM   22  C14 UNL     1      26.950  -1.532  53.327  1.00  0.00     0.009 A 
HETATM   23  C15 UNL     1      27.881  -2.287  52.633  1.00  0.00     0.001 A 
HETATM   24  C16 UNL     1      29.201  -2.020  52.950  1.00  0.00     0.000 A 
HETATM   25  C17 UNL     1      29.621  -1.081  53.881  1.00  0.00     0.001 A 
HETATM   26  C18 UNL     1      28.655  -0.361  54.539  1.00  0.00     0.009 A 
ENDBRANCH  20  21
ENDBRANCH  19  20
ENDBRANCH  15  19
ENDBRANCH  10  12
ENDBRANCH   9  10
TORSDOF 5
ENDMDL
MODEL 9
REMARK VINA RESULT:      -7.6      4.553      7.118
REMARK  5 active torsions:
REMARK  status: ('A' for Active; 'I' for Inactive)
REMARK    1  A    between atoms: C7_9  and  N3_10 
REMARK    2  A    between atoms: N3_10  and  C8_11 
REMARK    3  A    between atoms: C11_14  and  O1_15 
REMARK    4  A    between atoms: O1_15  and  C12_16 
REMARK    5  A    between atoms: C12_16  and  C13_17 
ROOT
HETATM    1  N1  UNL     1      22.145  -0.978  53.688  1.00  0.00    -0.192 NA
HETATM    2  C1  UNL     1      23.237  -0.602  53.726  1.00  0.00     0.099 C 
HETATM    3  C2  UNL     1      24.600  -0.115  53.755  1.00  0.00     0.066 C 
HETATM    4  C3  UNL     1      25.305  -0.752  54.677  1.00  0.00     0.137 C 
HETATM    5  N2  UNL     1      26.699  -0.525  54.982  1.00  0.00    -0.272 NA
HETATM    6  C4  UNL     1      27.634  -0.144  54.141  1.00  0.00     0.116 C 
HETATM    7  C5  UNL     1      27.445   0.131  52.697  1.00  0.00     0.017 C 
HETATM    8  C6  UNL     1      26.310   0.600  52.202  1.00  0.00     0.005 C 
HETATM    9  C7  UNL     1      25.037   0.955  52.832  1.00  0.00     0.150 C 
ENDROOT
BRANCH   9  10
HETATM   10  N3  UNL     1      24.045   1.360  51.895  1.00  0.00    -0.377 N 
HETATM   11  H6  UNL     1      23.546   0.593  51.394  1.00  0.00     0.160 HD
BRANCH  10  12
HETATM   12  C8  UNL     1      23.683   2.695  51.591  1.00  0.00     0.030 A 
HETATM   13  C9  UNL     1      23.653   3.728  52.491  1.00  0.00     0.032 A 
HETATM   14  C10 UNL     1      23.297   5.020  52.204  1.00  0.00     0.041 A 
HETATM   15  C11 UNL     1      22.931   5.343  50.914  1.00  0.00     0.091 A 
HETATM   16  C19 UNL     1      22.942   4.345  49.968  1.00  0.00     0.069 A 
HETATM   17 CL1  UNL     1      22.486   4.696  48.306  1.00  0.00    -0.081 Cl
HETATM   18  C20 UNL     1      23.311   3.061  50.314  1.00  0.00     0.056 A 
BRANCH  15  19
HETATM   19  O1  UNL     1      22.563   6.631  50.572  1.00  0.00    -0.345 OA
BRANCH  19  20
HETATM   20  C12 UNL     1      23.521   7.670  50.684  1.00  0.00     0.214 C 
BRANCH  20  21
HETATM   21  C13 UNL     1      24.578   7.612  49.666  1.00  0.00    -0.034 A 
HETATM   22  C14 UNL     1      24.248   7.731  48.349  1.00  0.00     0.009 A 
HETATM   23  C15 UNL     1      25.196   7.684  47.340  1.00  0.00     0.001 A 
HETATM   24  C16 UNL     1      26.498   7.508  47.772  1.00  0.00     0.000 A 
HETATM   25  C17 UNL     1      26.886   7.381  49.098  1.00  0.00     0.001 A 
HETATM   26  C18 UNL     1      25.905   7.435  50.056  1.00  0.00     0.009 A 
ENDBRANCH  20  21
ENDBRANCH  19  20
ENDBRANCH  15  19
ENDBRANCH  10  12
ENDBRANCH   9  10
TORSDOF 5
ENDMDL
