MODEL 1
REMARK VINA RESULT:      -7.2      0.000      0.000
REMARK  7 active torsions:
REMARK  status: ('A' for Active; 'I' for Inactive)
REMARK    1  A    between atoms: C2_2  and  C3_3 
REMARK    2  A    between atoms: C4_4  and  N1_5 
REMARK    3  A    between atoms: N1_5  and  C5_6 
REMARK    4  A    between atoms: C9_12  and  O1_13 
REMARK    5  A    between atoms: O1_13  and  C10_14 
REMARK    6  A    between atoms: C10_14  and  O2_16 
REMARK    7  A    between atoms: O2_16  and  C12_17 
ROOT
HETATM    1  C5  UNL     1      22.152   0.790  53.157  1.00  0.00     0.144 A 
HETATM    2  N2  UNL     1      21.379   0.152  54.064  1.00  0.00    -0.223 NA
HETATM    3  C6  UNL     1      21.858  -0.769  54.899  1.00  0.00     0.236 A 
HETATM    4  N3  UNL     1      23.163  -1.017  54.772  1.00  0.00    -0.241 NA
HETATM    5  C7  UNL     1      23.975  -0.437  53.915  1.00  0.00     0.077 A 
HETATM    6  C8  UNL     1      25.289  -0.847  53.961  1.00  0.00     0.072 A 
HETATM    7  C9  UNL     1      26.189  -0.264  53.078  1.00  0.00     0.110 A 
HETATM    8  C14 UNL     1      25.691   0.706  52.198  1.00  0.00     0.136 A 
HETATM    9  C15 UNL     1      24.369   1.094  52.178  1.00  0.00     0.121 A 
HETATM   10  C16 UNL     1      23.490   0.515  53.049  1.00  0.00     0.075 A 
HETATM   11  O3  UNL     1      23.893   2.041  51.315  1.00  0.00    -0.345 OA
HETATM   12  C17 UNL     1      24.710   3.021  50.740  1.00  0.00     0.202 C 
HETATM   13  C18 UNL     1      26.156   2.812  51.103  1.00  0.00     0.202 C 
HETATM   14  O4  UNL     1      26.416   1.420  51.232  1.00  0.00    -0.344 OA
ENDROOT
BRANCH   1  15
HETATM   15  N1  UNL     1      21.571   1.750  52.307  1.00  0.00    -0.350 N 
HETATM   16  H6  UNL     1      22.109   2.671  52.285  1.00  0.00     0.166 HD
BRANCH  15  17
HETATM   17  C4  UNL     1      20.720   2.404  51.393  1.00  0.00     0.090 C 
HETATM   18  C3  UNL     1      20.348   3.685  51.583  1.00  0.00     0.016 C 
BRANCH  18  19
HETATM   19  C2  UNL     1      19.487   4.339  50.653  1.00  0.00    -0.009 C 
HETATM   20  C1  UNL     1      19.612   4.068  49.341  1.00  0.00     0.011 C 
ENDBRANCH  18  19
ENDBRANCH  15  17
ENDBRANCH   1  15
BRANCH   7  21
HETATM   21  O1  UNL     1      27.518  -0.543  52.979  1.00  0.00    -0.318 OA
BRANCH  21  22
HETATM   22  C10 UNL     1      28.447  -0.781  53.979  1.00  0.00     0.262 C 
HETATM   23  C11 UNL     1      29.823  -1.132  53.464  1.00  0.00     0.071 C 
BRANCH  22  24
HETATM   24  O2  UNL     1      28.492   0.343  54.820  1.00  0.00    -0.362 OA
BRANCH  24  25
HETATM   25  C12 UNL     1      29.392   1.251  54.236  1.00  0.00     0.166 C 
HETATM   26  C13 UNL     1      28.724   2.510  53.754  1.00  0.00     0.033 C 
ENDBRANCH  24  25
ENDBRANCH  22  24
ENDBRANCH  21  22
ENDBRANCH   7  21
TORSDOF 7
ENDMDL
MODEL 2
REMARK VINA RESULT:      -7.2      3.152      6.235
REMARK  7 active torsions:
REMARK  status: ('A' for Active; 'I' for Inactive)
REMARK    1  A    between atoms: C2_2  and  C3_3 
REMARK    2  A    between atoms: C4_4  and  N1_5 
REMARK    3  A    between atoms: N1_5  and  C5_6 
REMARK    4  A    between atoms: C9_12  and  O1_13 
REMARK    5  A    between atoms: O1_13  and  C10_14 
REMARK    6  A    between atoms: C10_14  and  O2_16 
REMARK    7  A    between atoms: O2_16  and  C12_17 
ROOT
HETATM    1  C5  UNL     1      26.258   2.459  51.568  1.00  0.00     0.144 A 
HETATM    2  N2  UNL     1      27.473   2.267  52.127  1.00  0.00    -0.223 NA
HETATM    3  C6  UNL     1      27.711   1.311  53.025  1.00  0.00     0.236 A 
HETATM    4  N3  UNL     1      26.655   0.556  53.332  1.00  0.00    -0.241 NA
HETATM    5  C7  UNL     1      25.447   0.683  52.830  1.00  0.00     0.077 A 
HETATM    6  C8  UNL     1      24.506  -0.211  53.292  1.00  0.00     0.072 A 
HETATM    7  C9  UNL     1      23.213  -0.121  52.791  1.00  0.00     0.110 A 
HETATM    8  C14 UNL     1      22.958   0.882  51.846  1.00  0.00     0.136 A 
HETATM    9  C15 UNL     1      23.922   1.762  51.405  1.00  0.00     0.121 A 
HETATM   10  C16 UNL     1      25.191   1.666  51.903  1.00  0.00     0.075 A 
HETATM   11  O3  UNL     1      23.662   2.737  50.483  1.00  0.00    -0.345 OA
HETATM   12  C17 UNL     1      22.607   2.651  49.567  1.00  0.00     0.202 C 
HETATM   13  C18 UNL     1      21.760   1.432  49.818  1.00  0.00     0.202 C 
HETATM   14  O4  UNL     1      21.735   1.150  51.212  1.00  0.00    -0.344 OA
ENDROOT
BRANCH   1  15
HETATM   15  N1  UNL     1      26.085   3.493  50.628  1.00  0.00    -0.350 N 
HETATM   16  H6  UNL     1      25.151   3.442  50.116  1.00  0.00     0.166 HD
BRANCH  15  17
HETATM   17  C4  UNL     1      26.285   4.635  49.827  1.00  0.00     0.090 C 
HETATM   18  C3  UNL     1      27.353   4.734  49.010  1.00  0.00     0.016 C 
BRANCH  18  19
HETATM   19  C2  UNL     1      27.548   5.893  48.204  1.00  0.00    -0.009 C 
HETATM   20  C1  UNL     1      28.792   6.383  48.050  1.00  0.00     0.011 C 
ENDBRANCH  18  19
ENDBRANCH  15  17
ENDBRANCH   1  15
BRANCH   7  21
HETATM   21  O1  UNL     1      22.160  -0.914  53.129  1.00  0.00    -0.318 OA
BRANCH  21  22
HETATM   22  C10 UNL     1      21.376  -0.903  54.271  1.00  0.00     0.262 C 
HETATM   23  C11 UNL     1      20.889   0.472  54.665  1.00  0.00     0.071 C 
BRANCH  22  24
HETATM   24  O2  UNL     1      20.301  -1.788  54.081  1.00  0.00    -0.362 OA
BRANCH  24  25
HETATM   25  C12 UNL     1      19.262  -1.042  53.500  1.00  0.00     0.166 C 
HETATM   26  C13 UNL     1      17.963  -1.799  53.438  1.00  0.00     0.033 C 
ENDBRANCH  24  25
ENDBRANCH  22  24
ENDBRANCH  21  22
ENDBRANCH   7  21
TORSDOF 7
ENDMDL
MODEL 3
REMARK VINA RESULT:      -6.9      2.968      7.691
REMARK  7 active torsions:
REMARK  status: ('A' for Active; 'I' for Inactive)
REMARK    1  A    between atoms: C2_2  and  C3_3 
REMARK    2  A    between atoms: C4_4  and  N1_5 
REMARK    3  A    between atoms: N1_5  and  C5_6 
REMARK    4  A    between atoms: C9_12  and  O1_13 
REMARK    5  A    between atoms: O1_13  and  C10_14 
REMARK    6  A    between atoms: C10_14  and  O2_16 
REMARK    7  A    between atoms: O2_16  and  C12_17 
ROOT
HETATM    1  C5  UNL     1      25.002   1.719  51.970  1.00  0.00     0.144 A 
HETATM    2  N2  UNL     1      25.404   2.698  51.129  1.00  0.00    -0.223 NA
HETATM    3  C6  UNL     1      24.609   3.217  50.195  1.00  0.00     0.236 A 
HETATM    4  N3  UNL     1      23.381   2.697  50.150  1.00  0.00    -0.241 NA
HETATM    5  C7  UNL     1      22.922   1.746  50.933  1.00  0.00     0.077 A 
HETATM    6  C8  UNL     1      21.618   1.362  50.711  1.00  0.00     0.072 A 
HETATM    7  C9  UNL     1      21.082   0.362  51.514  1.00  0.00     0.110 A 
HETATM    8  C14 UNL     1      21.914  -0.188  52.499  1.00  0.00     0.136 A 
HETATM    9  C15 UNL     1      23.215   0.220  52.695  1.00  0.00     0.121 A 
HETATM   10  C16 UNL     1      23.734   1.203  51.902  1.00  0.00     0.075 A 
HETATM   11  O3  UNL     1      24.019  -0.323  53.658  1.00  0.00    -0.345 OA
HETATM   12  C17 UNL     1      23.512  -0.947  54.804  1.00  0.00     0.202 C 
HETATM   13  C18 UNL     1      22.010  -1.037  54.761  1.00  0.00     0.202 C 
HETATM   14  O4  UNL     1      21.582  -1.198  53.414  1.00  0.00    -0.344 OA
ENDROOT
BRANCH   1  15
HETATM   15  N1  UNL     1      25.903   1.220  52.929  1.00  0.00    -0.350 N 
HETATM   16  H6  UNL     1      25.455   0.523  53.602  1.00  0.00     0.166 HD
BRANCH  15  17
HETATM   17  C4  UNL     1      27.065   0.966  53.685  1.00  0.00     0.090 C 
HETATM   18  C3  UNL     1      28.187   0.497  53.101  1.00  0.00     0.016 C 
BRANCH  18  19
HETATM   19  C2  UNL     1      29.358   0.243  53.873  1.00  0.00    -0.009 C 
HETATM   20  C1  UNL     1      29.943  -0.967  53.798  1.00  0.00     0.011 C 
ENDBRANCH  18  19
ENDBRANCH  15  17
ENDBRANCH   1  15
BRANCH   7  21
HETATM   21  O1  UNL     1      19.820  -0.143  51.439  1.00  0.00    -0.318 OA
BRANCH  21  22
HETATM   22  C10 UNL     1      18.667   0.259  52.094  1.00  0.00     0.262 C 
HETATM   23  C11 UNL     1      17.948   1.403  51.419  1.00  0.00     0.071 C 
BRANCH  22  24
HETATM   24  O2  UNL     1      17.825  -0.857  52.236  1.00  0.00    -0.362 OA
BRANCH  24  25
HETATM   25  C12 UNL     1      18.136  -1.444  53.474  1.00  0.00     0.166 C 
HETATM   26  C13 UNL     1      17.648  -2.862  53.590  1.00  0.00     0.033 C 
ENDBRANCH  24  25
ENDBRANCH  22  24
ENDBRANCH  21  22
ENDBRANCH   7  21
TORSDOF 7
ENDMDL
MODEL 4
REMARK VINA RESULT:      -6.7      1.785      6.699
REMARK  7 active torsions:
REMARK  status: ('A' for Active; 'I' for Inactive)
REMARK    1  A    between atoms: C2_2  and  C3_3 
REMARK    2  A    between atoms: C4_4  and  N1_5 
REMARK    3  A    between atoms: N1_5  and  C5_6 
REMARK    4  A    between atoms: C9_12  and  O1_13 
REMARK    5  A    between atoms: O1_13  and  C10_14 
REMARK    6  A    between atoms: C10_14  and  O2_16 
REMARK    7  A    between atoms: O2_16  and  C12_17 
ROOT
HETATM    1  C5  UNL     1      23.384  -0.297  53.770  1.00  0.00     0.144 A 
HETATM    2  N2  UNL     1      22.727  -1.251  54.466  1.00  0.00    -0.223 NA
HETATM    3  C6  UNL     1      21.405  -1.241  54.631  1.00  0.00     0.236 A 
HETATM    4  N3  UNL     1      20.775  -0.216  54.055  1.00  0.00    -0.241 NA
HETATM    5  C7  UNL     1      21.346   0.746  53.364  1.00  0.00     0.077 A 
HETATM    6  C8  UNL     1      20.500   1.706  52.856  1.00  0.00     0.072 A 
HETATM    7  C9  UNL     1      21.052   2.744  52.116  1.00  0.00     0.110 A 
HETATM    8  C14 UNL     1      22.442   2.739  51.939  1.00  0.00     0.136 A 
HETATM    9  C15 UNL     1      23.262   1.763  52.461  1.00  0.00     0.121 A 
HETATM   10  C16 UNL     1      22.710   0.746  53.188  1.00  0.00     0.075 A 
HETATM   11  O3  UNL     1      24.617   1.767  52.283  1.00  0.00    -0.345 OA
HETATM   12  C17 UNL     1      25.239   2.422  51.214  1.00  0.00     0.202 C 
HETATM   13  C18 UNL     1      24.243   3.193  50.389  1.00  0.00     0.202 C 
HETATM   14  O4  UNL     1      23.205   3.680  51.231  1.00  0.00    -0.344 OA
ENDROOT
BRANCH   1  15
HETATM   15  N1  UNL     1      24.784  -0.375  53.643  1.00  0.00    -0.350 N 
HETATM   16  H6  UNL     1      25.133  -0.090  52.676  1.00  0.00     0.166 HD
BRANCH  15  17
HETATM   17  C4  UNL     1      26.153  -0.573  53.909  1.00  0.00     0.090 C 
HETATM   18  C3  UNL     1      27.027  -0.824  52.914  1.00  0.00     0.016 C 
BRANCH  18  19
HETATM   19  C2  UNL     1      28.411  -1.024  53.192  1.00  0.00    -0.009 C 
HETATM   20  C1  UNL     1      29.003  -0.278  54.143  1.00  0.00     0.011 C 
ENDBRANCH  18  19
ENDBRANCH  15  17
ENDBRANCH   1  15
BRANCH   7  21
HETATM   21  O1  UNL     1      20.374   3.776  51.540  1.00  0.00    -0.318 OA
BRANCH  21  22
HETATM   22  C10 UNL     1      19.792   3.859  50.287  1.00  0.00     0.262 C 
HETATM   23  C11 UNL     1      20.486   4.822  49.353  1.00  0.00     0.071 C 
BRANCH  22  24
HETATM   24  O2  UNL     1      19.736   2.568  49.736  1.00  0.00    -0.362 OA
BRANCH  24  25
HETATM   25  C12 UNL     1      20.609   2.560  48.635  1.00  0.00     0.166 C 
HETATM   26  C13 UNL     1      21.485   1.338  48.592  1.00  0.00     0.033 C 
ENDBRANCH  24  25
ENDBRANCH  22  24
ENDBRANCH  21  22
ENDBRANCH   7  21
TORSDOF 7
ENDMDL
MODEL 5
REMARK VINA RESULT:      -6.7      3.357      6.428
REMARK  7 active torsions:
REMARK  status: ('A' for Active; 'I' for Inactive)
REMARK    1  A    between atoms: C2_2  and  C3_3 
REMARK    2  A    between atoms: C4_4  and  N1_5 
REMARK    3  A    between atoms: N1_5  and  C5_6 
REMARK    4  A    between atoms: C9_12  and  O1_13 
REMARK    5  A    between atoms: O1_13  and  C10_14 
REMARK    6  A    between atoms: C10_14  and  O2_16 
REMARK    7  A    between atoms: O2_16  and  C12_17 
ROOT
HETATM    1  C5  UNL     1      26.363   3.124  50.954  1.00  0.00     0.144 A 
HETATM    2  N2  UNL     1      27.349   2.451  51.589  1.00  0.00    -0.223 NA
HETATM    3  C6  UNL     1      27.114   1.606  52.593  1.00  0.00     0.236 A 
HETATM    4  N3  UNL     1      25.829   1.474  52.925  1.00  0.00    -0.241 NA
HETATM    5  C7  UNL     1      24.820   2.093  52.354  1.00  0.00     0.077 A 
HETATM    6  C8  UNL     1      23.572   1.803  52.860  1.00  0.00     0.072 A 
HETATM    7  C9  UNL     1      22.470   2.430  52.289  1.00  0.00     0.110 A 
HETATM    8  C14 UNL     1      22.711   3.318  51.233  1.00  0.00     0.136 A 
HETATM    9  C15 UNL     1      23.973   3.587  50.751  1.00  0.00     0.121 A 
HETATM   10  C16 UNL     1      25.051   2.967  51.317  1.00  0.00     0.075 A 
HETATM   11  O3  UNL     1      24.198   4.457  49.720  1.00  0.00    -0.345 OA
HETATM   12  C17 UNL     1      23.221   4.770  48.768  1.00  0.00     0.202 C 
HETATM   13  C18 UNL     1      21.901   4.128  49.103  1.00  0.00     0.202 C 
HETATM   14  O4  UNL     1      21.755   4.053  50.516  1.00  0.00    -0.344 OA
ENDROOT
BRANCH   1  15
HETATM   15  N1  UNL     1      26.692   4.002  49.904  1.00  0.00    -0.350 N 
HETATM   16  H6  UNL     1      25.851   4.542  49.531  1.00  0.00     0.166 HD
BRANCH  15  17
HETATM   17  C4  UNL     1      27.398   4.731  48.926  1.00  0.00     0.090 C 
HETATM   18  C3  UNL     1      27.153   6.041  48.723  1.00  0.00     0.016 C 
BRANCH  18  19
HETATM   19  C2  UNL     1      27.872   6.771  47.732  1.00  0.00    -0.009 C 
HETATM   20  C1  UNL     1      29.193   6.557  47.589  1.00  0.00     0.011 C 
ENDBRANCH  18  19
ENDBRANCH  15  17
ENDBRANCH   1  15
BRANCH   7  21
HETATM   21  O1  UNL     1      21.169   2.266  52.657  1.00  0.00    -0.318 OA
BRANCH  21  22
HETATM   22  C10 UNL     1      20.329   1.180  52.473  1.00  0.00     0.262 C 
HETATM   23  C11 UNL     1      20.782   0.233  51.387  1.00  0.00     0.071 C 
BRANCH  22  24
HETATM   24  O2  UNL     1      20.189   0.514  53.702  1.00  0.00    -0.362 OA
BRANCH  24  25
HETATM   25  C12 UNL     1      20.940  -0.670  53.608  1.00  0.00     0.166 C 
HETATM   26  C13 UNL     1      21.841  -0.887  54.793  1.00  0.00     0.033 C 
ENDBRANCH  24  25
ENDBRANCH  22  24
ENDBRANCH  21  22
ENDBRANCH   7  21
TORSDOF 7
ENDMDL
MODEL 6
REMARK VINA RESULT:      -6.7      2.135      7.187
REMARK  7 active torsions:
REMARK  status: ('A' for Active; 'I' for Inactive)
REMARK    1  A    between atoms: C2_2  and  C3_3 
REMARK    2  A    between atoms: C4_4  and  N1_5 
REMARK    3  A    between atoms: N1_5  and  C5_6 
REMARK    4  A    between atoms: C9_12  and  O1_13 
REMARK    5  A    between atoms: O1_13  and  C10_14 
REMARK    6  A    between atoms: C10_14  and  O2_16 
REMARK    7  A    between atoms: O2_16  and  C12_17 
ROOT
HETATM    1  C5  UNL     1      23.466  -0.289  53.684  1.00  0.00     0.144 A 
HETATM    2  N2  UNL     1      22.873  -1.301  54.356  1.00  0.00    -0.223 NA
HETATM    3  C6  UNL     1      21.564  -1.334  54.600  1.00  0.00     0.236 A 
HETATM    4  N3  UNL     1      20.879  -0.290  54.130  1.00  0.00    -0.241 NA
HETATM    5  C7  UNL     1      21.386   0.728  53.470  1.00  0.00     0.077 A 
HETATM    6  C8  UNL     1      20.490   1.697  53.077  1.00  0.00     0.072 A 
HETATM    7  C9  UNL     1      20.975   2.793  52.374  1.00  0.00     0.110 A 
HETATM    8  C14 UNL     1      22.351   2.833  52.114  1.00  0.00     0.136 A 
HETATM    9  C15 UNL     1      23.222   1.846  52.522  1.00  0.00     0.121 A 
HETATM   10  C16 UNL     1      22.737   0.772  53.213  1.00  0.00     0.075 A 
HETATM   11  O3  UNL     1      24.563   1.895  52.264  1.00  0.00    -0.345 OA
HETATM   12  C17 UNL     1      25.104   2.632  51.203  1.00  0.00     0.202 C 
HETATM   13  C18 UNL     1      24.043   3.429  50.492  1.00  0.00     0.202 C 
HETATM   14  O4  UNL     1      23.050   3.836  51.424  1.00  0.00    -0.344 OA
ENDROOT
BRANCH   1  15
HETATM   15  N1  UNL     1      24.857  -0.324  53.469  1.00  0.00    -0.350 N 
HETATM   16  H6  UNL     1      25.138  -0.001  52.492  1.00  0.00     0.166 HD
BRANCH  15  17
HETATM   17  C4  UNL     1      26.245  -0.492  53.644  1.00  0.00     0.090 C 
HETATM   18  C3  UNL     1      26.924   0.233  54.556  1.00  0.00     0.016 C 
BRANCH  18  19
HETATM   19  C2  UNL     1      28.329   0.057  54.727  1.00  0.00    -0.009 C 
HETATM   20  C1  UNL     1      29.045  -0.501  53.734  1.00  0.00     0.011 C 
ENDBRANCH  18  19
ENDBRANCH  15  17
ENDBRANCH   1  15
BRANCH   7  21
HETATM   21  O1  UNL     1      20.242   3.841  51.908  1.00  0.00    -0.318 OA
BRANCH  21  22
HETATM   22  C10 UNL     1      19.107   3.842  51.114  1.00  0.00     0.262 C 
HETATM   23  C11 UNL     1      19.100   2.764  50.056  1.00  0.00     0.071 C 
BRANCH  22  24
HETATM   24  O2  UNL     1      17.981   3.742  51.949  1.00  0.00    -0.362 OA
BRANCH  24  25
HETATM   25  C12 UNL     1      17.202   2.683  51.452  1.00  0.00     0.166 C 
HETATM   26  C13 UNL     1      15.763   2.762  51.884  1.00  0.00     0.033 C 
ENDBRANCH  24  25
ENDBRANCH  22  24
ENDBRANCH  21  22
ENDBRANCH   7  21
TORSDOF 7
ENDMDL
MODEL 7
REMARK VINA RESULT:      -6.6      2.724      7.786
REMARK  7 active torsions:
REMARK  status: ('A' for Active; 'I' for Inactive)
REMARK    1  A    between atoms: C2_2  and  C3_3 
REMARK    2  A    between atoms: C4_4  and  N1_5 
REMARK    3  A    between atoms: N1_5  and  C5_6 
REMARK    4  A    between atoms: C9_12  and  O1_13 
REMARK    5  A    between atoms: O1_13  and  C10_14 
REMARK    6  A    between atoms: C10_14  and  O2_16 
REMARK    7  A    between atoms: O2_16  and  C12_17 
ROOT
HETATM    1  C5  UNL     1      25.031   1.517  52.075  1.00  0.00     0.144 A 
HETATM    2  N2  UNL     1      25.555   2.453  51.253  1.00  0.00    -0.223 NA
HETATM    3  C6  UNL     1      24.850   3.039  50.286  1.00  0.00     0.236 A 
HETATM    4  N3  UNL     1      23.584   2.630  50.188  1.00  0.00    -0.241 NA
HETATM    5  C7  UNL     1      23.008   1.726  50.950  1.00  0.00     0.077 A 
HETATM    6  C8  UNL     1      21.685   1.459  50.671  1.00  0.00     0.072 A 
HETATM    7  C9  UNL     1      21.028   0.514  51.449  1.00  0.00     0.110 A 
HETATM    8  C14 UNL     1      21.764  -0.105  52.469  1.00  0.00     0.136 A 
HETATM    9  C15 UNL     1      23.087   0.185  52.721  1.00  0.00     0.121 A 
HETATM   10  C16 UNL     1      23.726   1.116  51.952  1.00  0.00     0.075 A 
HETATM   11  O3  UNL     1      23.797  -0.424  53.718  1.00  0.00    -0.345 OA
HETATM   12  C17 UNL     1      23.187  -0.998  54.840  1.00  0.00     0.202 C 
HETATM   13  C18 UNL     1      21.686  -0.953  54.732  1.00  0.00     0.202 C 
HETATM   14  O4  UNL     1      21.304  -1.078  53.368  1.00  0.00    -0.344 OA
ENDROOT
BRANCH   1  15
HETATM   15  N1  UNL     1      25.841   0.941  53.073  1.00  0.00    -0.350 N 
HETATM   16  H6  UNL     1      25.280   0.479  53.853  1.00  0.00     0.166 HD
BRANCH  15  17
HETATM   17  C4  UNL     1      26.951   0.508  53.824  1.00  0.00     0.090 C 
HETATM   18  C3  UNL     1      28.188   0.483  53.288  1.00  0.00     0.016 C 
BRANCH  18  19
HETATM   19  C2  UNL     1      29.306   0.043  54.056  1.00  0.00    -0.009 C 
HETATM   20  C1  UNL     1      29.933  -1.096  53.707  1.00  0.00     0.011 C 
ENDBRANCH  18  19
ENDBRANCH  15  17
ENDBRANCH   1  15
BRANCH   7  21
HETATM   21  O1  UNL     1      19.730   0.123  51.319  1.00  0.00    -0.318 OA
BRANCH  21  22
HETATM   22  C10 UNL     1      18.637   0.834  50.852  1.00  0.00     0.262 C 
HETATM   23  C11 UNL     1      17.454  -0.033  50.489  1.00  0.00     0.071 C 
BRANCH  22  24
HETATM   24  O2  UNL     1      18.286   1.793  51.816  1.00  0.00    -0.362 OA
BRANCH  24  25
HETATM   25  C12 UNL     1      17.149   2.461  51.329  1.00  0.00     0.166 C 
HETATM   26  C13 UNL     1      17.291   3.958  51.361  1.00  0.00     0.033 C 
ENDBRANCH  24  25
ENDBRANCH  22  24
ENDBRANCH  21  22
ENDBRANCH   7  21
TORSDOF 7
ENDMDL
MODEL 8
REMARK VINA RESULT:      -6.6      2.472      3.975
REMARK  7 active torsions:
REMARK  status: ('A' for Active; 'I' for Inactive)
REMARK    1  A    between atoms: C2_2  and  C3_3 
REMARK    2  A    between atoms: C4_4  and  N1_5 
REMARK    3  A    between atoms: N1_5  and  C5_6 
REMARK    4  A    between atoms: C9_12  and  O1_13 
REMARK    5  A    between atoms: O1_13  and  C10_14 
REMARK    6  A    between atoms: C10_14  and  O2_16 
REMARK    7  A    between atoms: O2_16  and  C12_17 
ROOT
HETATM    1  C5  UNL     1      24.311   3.809  49.904  1.00  0.00     0.144 A 
HETATM    2  N2  UNL     1      25.223   4.518  49.202  1.00  0.00    -0.223 NA
HETATM    3  C6  UNL     1      26.534   4.312  49.308  1.00  0.00     0.236 A 
HETATM    4  N3  UNL     1      26.883   3.349  50.164  1.00  0.00    -0.241 NA
HETATM    5  C7  UNL     1      26.054   2.620  50.879  1.00  0.00     0.077 A 
HETATM    6  C8  UNL     1      26.636   1.678  51.698  1.00  0.00     0.072 A 
HETATM    7  C9  UNL     1      25.804   0.878  52.473  1.00  0.00     0.110 A 
HETATM    8  C14 UNL     1      24.424   1.091  52.365  1.00  0.00     0.136 A 
HETATM    9  C15 UNL     1      23.874   2.043  51.535  1.00  0.00     0.121 A 
HETATM   10  C16 UNL     1      24.698   2.825  50.776  1.00  0.00     0.075 A 
HETATM   11  O3  UNL     1      22.525   2.243  51.436  1.00  0.00    -0.345 OA
HETATM   12  C17 UNL     1      21.588   1.253  51.752  1.00  0.00     0.202 C 
HETATM   13  C18 UNL     1      22.254   0.024  52.309  1.00  0.00     0.202 C 
HETATM   14  O4  UNL     1      23.409   0.403  53.047  1.00  0.00    -0.344 OA
ENDROOT
BRANCH   1  15
HETATM   15  N1  UNL     1      22.941   4.089  49.739  1.00  0.00    -0.350 N 
HETATM   16  H6  UNL     1      22.311   3.458  50.323  1.00  0.00     0.166 HD
BRANCH  15  17
HETATM   17  C4  UNL     1      21.722   4.658  49.320  1.00  0.00     0.090 C 
HETATM   18  C3  UNL     1      20.646   4.676  50.133  1.00  0.00     0.016 C 
BRANCH  18  19
HETATM   19  C2  UNL     1      19.416   5.253  49.702  1.00  0.00    -0.009 C 
HETATM   20  C1  UNL     1      18.257   4.740  50.154  1.00  0.00     0.011 C 
ENDBRANCH  18  19
ENDBRANCH  15  17
ENDBRANCH   1  15
BRANCH   7  21
HETATM   21  O1  UNL     1      26.199  -0.098  53.336  1.00  0.00    -0.318 OA
BRANCH  21  22
HETATM   22  C10 UNL     1      26.548  -0.008  54.673  1.00  0.00     0.262 C 
HETATM   23  C11 UNL     1      25.517  -0.587  55.614  1.00  0.00     0.071 C 
BRANCH  22  24
HETATM   24  O2  UNL     1      27.798  -0.623  54.848  1.00  0.00    -0.362 OA
BRANCH  24  25
HETATM   25  C12 UNL     1      28.771   0.359  54.594  1.00  0.00     0.166 C 
HETATM   26  C13 UNL     1      29.803  -0.084  53.593  1.00  0.00     0.033 C 
ENDBRANCH  24  25
ENDBRANCH  22  24
ENDBRANCH  21  22
ENDBRANCH   7  21
TORSDOF 7
ENDMDL
MODEL 9
REMARK VINA RESULT:      -6.6      2.207      3.919
REMARK  7 active torsions:
REMARK  status: ('A' for Active; 'I' for Inactive)
REMARK    1  A    between atoms: C2_2  and  C3_3 
REMARK    2  A    between atoms: C4_4  and  N1_5 
REMARK    3  A    between atoms: N1_5  and  C5_6 
REMARK    4  A    between atoms: C9_12  and  O1_13 
REMARK    5  A    between atoms: O1_13  and  C10_14 
REMARK    6  A    between atoms: C10_14  and  O2_16 
REMARK    7  A    between atoms: O2_16  and  C12_17 
ROOT
HETATM    1  C5  UNL     1      22.769   1.797  50.557  1.00  0.00     0.144 A 
HETATM    2  N2  UNL     1      22.879   2.543  49.436  1.00  0.00    -0.223 NA
HETATM    3  C6  UNL     1      23.980   3.228  49.130  1.00  0.00     0.236 A 
HETATM    4  N3  UNL     1      24.970   3.122  50.018  1.00  0.00    -0.241 NA
HETATM    5  C7  UNL     1      24.935   2.418  51.128  1.00  0.00     0.077 A 
HETATM    6  C8  UNL     1      26.077   2.451  51.897  1.00  0.00     0.072 A 
HETATM    7  C9  UNL     1      26.093   1.721  53.080  1.00  0.00     0.110 A 
HETATM    8  C14 UNL     1      24.938   0.998  53.406  1.00  0.00     0.136 A 
HETATM    9  C15 UNL     1      23.811   0.987  52.613  1.00  0.00     0.121 A 
HETATM   10  C16 UNL     1      23.803   1.707  51.452  1.00  0.00     0.075 A 
HETATM   11  O3  UNL     1      22.688   0.279  52.940  1.00  0.00    -0.345 OA
HETATM   12  C17 UNL     1      22.716  -0.835  53.788  1.00  0.00     0.202 C 
HETATM   13  C18 UNL     1      24.091  -1.056  54.359  1.00  0.00     0.202 C 
HETATM   14  O4  UNL     1      24.737   0.198  54.540  1.00  0.00    -0.344 OA
ENDROOT
BRANCH   1  15
HETATM   15  N1  UNL     1      21.570   1.105  50.812  1.00  0.00    -0.350 N 
HETATM   16  H6  UNL     1      21.565   0.608  51.757  1.00  0.00     0.166 HD
BRANCH  15  17
HETATM   17  C4  UNL     1      20.273   0.565  50.697  1.00  0.00     0.090 C 
HETATM   18  C3  UNL     1      19.418   0.580  51.739  1.00  0.00     0.016 C 
BRANCH  18  19
HETATM   19  C2  UNL     1      18.107   0.032  51.613  1.00  0.00    -0.009 C 
HETATM   20  C1  UNL     1      17.744  -0.987  52.413  1.00  0.00     0.011 C 
ENDBRANCH  18  19
ENDBRANCH  15  17
ENDBRANCH   1  15
BRANCH   7  21
HETATM   21  O1  UNL     1      27.127   1.636  53.962  1.00  0.00    -0.318 OA
BRANCH  21  22
HETATM   22  C10 UNL     1      28.336   0.970  53.845  1.00  0.00     0.262 C 
HETATM   23  C11 UNL     1      29.492   1.678  54.512  1.00  0.00     0.071 C 
BRANCH  22  24
HETATM   24  O2  UNL     1      28.177  -0.331  54.350  1.00  0.00    -0.362 OA
BRANCH  24  25
HETATM   25  C12 UNL     1      28.480  -1.213  53.299  1.00  0.00     0.166 C 
HETATM   26  C13 UNL     1      27.257  -1.857  52.704  1.00  0.00     0.033 C 
ENDBRANCH  24  25
ENDBRANCH  22  24
ENDBRANCH  21  22
ENDBRANCH   7  21
TORSDOF 7
ENDMDL
