MODEL 1
REMARK VINA RESULT:      -8.8      0.000      0.000
REMARK  8 active torsions:
REMARK  status: ('A' for Active; 'I' for Inactive)
REMARK    1  A    between atoms: N1_1  and  C1_2 
REMARK    2  A    between atoms: N2_7  and  C5_8 
REMARK    3  A    between atoms: C5_8  and  C6_9 
REMARK    4  A    between atoms: C6_9  and  N3_10 
REMARK    5  A    between atoms: N3_10  and  C7_11 
REMARK    6  A    between atoms: C7_11  and  N4_13 
REMARK    7  A    between atoms: N4_13  and  C8_14 
REMARK    8  A    between atoms: N5_21  and  C15_22 
ROOT
HETATM    1  C8  UNL     1      26.056   4.460  49.453  1.00  0.00     0.034 A 
HETATM    2  C9  UNL     1      25.559   5.730  49.622  1.00  0.00     0.030 A 
HETATM    3  C10 UNL     1      26.177   6.913  49.287  1.00  0.00     0.011 A 
HETATM    4  C11 UNL     1      27.423   6.733  48.727  1.00  0.00    -0.035 A 
HETATM    5  C12 UNL     1      28.011   5.510  48.513  1.00  0.00    -0.029 A 
HETATM    6  C13 UNL     1      27.303   4.396  48.887  1.00  0.00     0.039 A 
HETATM    7  C14 UNL     1      29.358   5.437  47.907  1.00  0.00     0.182 C 
HETATM    8  N5  UNL     1      30.170   6.553  48.374  1.00  0.00    -0.308 N 
HETATM    9  N6  UNL     1      29.552   7.729  48.796  1.00  0.00    -0.233 NA
HETATM   10  C21 UNL     1      28.220   7.915  48.310  1.00  0.00     0.149 C 
HETATM   11  H24 UNL     1      29.512   7.715  49.834  1.00  0.00     0.147 HD
ENDROOT
BRANCH   1  12
HETATM   12  N4  UNL     1      25.425   3.253  49.803  1.00  0.00    -0.333 N 
HETATM   13  H15 UNL     1      25.916   2.364  49.486  1.00  0.00     0.168 HD
BRANCH  12  14
HETATM   14  C7  UNL     1      24.305   2.756  50.462  1.00  0.00     0.172 C 
HETATM   15  S1  UNL     1      22.761   2.927  49.961  1.00  0.00    -0.041 SA
BRANCH  14  16
HETATM   16  N3  UNL     1      24.007   2.023  51.623  1.00  0.00    -0.365 N 
HETATM   17  H14 UNL     1      23.180   1.477  51.329  1.00  0.00     0.161 HD
BRANCH  16  18
HETATM   18  C6  UNL     1      24.390   1.760  52.979  1.00  0.00     0.141 C 
BRANCH  18  19
HETATM   19  C5  UNL     1      25.851   2.115  53.230  1.00  0.00     0.138 C 
BRANCH  19  20
HETATM   20  N2  UNL     1      26.543   1.066  53.891  1.00  0.00    -0.379 N 
HETATM   21  C1  UNL     1      26.091  -0.259  53.608  1.00  0.00     0.338 C 
HETATM   22  C2  UNL     1      27.259  -1.107  53.089  1.00  0.00     0.224 C 
HETATM   23  O1  UNL     1      28.290  -1.150  53.995  1.00  0.00    -0.386 OA
HETATM   24  C3  UNL     1      28.620   0.047  54.584  1.00  0.00     0.187 C 
HETATM   25  C4  UNL     1      27.958   1.247  53.943  1.00  0.00     0.145 C 
BRANCH  21  26
HETATM   26  N1  UNL     1      25.650  -0.954  54.827  1.00  0.00     0.103 N 
HETATM   27  H1  UNL     1      26.395  -0.910  55.567  1.00  0.00     0.315 HD
HETATM   28  H2  UNL     1      24.779  -0.514  55.206  1.00  0.00     0.315 HD
ENDBRANCH  21  26
ENDBRANCH  19  20
ENDBRANCH  18  19
ENDBRANCH  16  18
ENDBRANCH  14  16
ENDBRANCH  12  14
ENDBRANCH   1  12
BRANCH   8  29
HETATM   29  C15 UNL     1      31.598   6.569  48.449  1.00  0.00     0.047 A 
HETATM   30  C16 UNL     1      32.367   7.699  48.725  1.00  0.00     0.034 A 
HETATM   31  C17 UNL     1      33.741   7.586  48.771  1.00  0.00     0.046 A 
HETATM   32  C18 UNL     1      34.403   6.395  48.554  1.00  0.00     0.138 A 
HETATM   33  F1  UNL     1      35.747   6.441  48.631  1.00  0.00    -0.204 F 
HETATM   34  C19 UNL     1      33.665   5.250  48.276  1.00  0.00     0.074 A 
HETATM   35 CL1  UNL     1      34.511   3.768  48.007  1.00  0.00    -0.081 Cl
HETATM   36  C20 UNL     1      32.289   5.394  48.237  1.00  0.00     0.057 A 
ENDBRANCH   8  29
TORSDOF 8
ENDMDL
MODEL 2
REMARK VINA RESULT:      -8.8      5.638      8.277
REMARK  8 active torsions:
REMARK  status: ('A' for Active; 'I' for Inactive)
REMARK    1  A    between atoms: N1_1  and  C1_2 
REMARK    2  A    between atoms: N2_7  and  C5_8 
REMARK    3  A    between atoms: C5_8  and  C6_9 
REMARK    4  A    between atoms: C6_9  and  N3_10 
REMARK    5  A    between atoms: N3_10  and  C7_11 
REMARK    6  A    between atoms: C7_11  and  N4_13 
REMARK    7  A    between atoms: N4_13  and  C8_14 
REMARK    8  A    between atoms: N5_21  and  C15_22 
ROOT
HETATM    1  C8  UNL     1      21.331   1.467  50.271  1.00  0.00     0.034 A 
HETATM    2  C9  UNL     1      20.600   0.552  50.992  1.00  0.00     0.030 A 
HETATM    3  C10 UNL     1      20.984  -0.089  52.148  1.00  0.00     0.011 A 
HETATM    4  C11 UNL     1      22.244   0.271  52.573  1.00  0.00    -0.035 A 
HETATM    5  C12 UNL     1      23.056   1.174  51.929  1.00  0.00    -0.029 A 
HETATM    6  C13 UNL     1      22.570   1.752  50.784  1.00  0.00     0.039 A 
HETATM    7  C14 UNL     1      24.395   1.482  52.476  1.00  0.00     0.182 C 
HETATM    8  N5  UNL     1      24.977   0.280  53.057  1.00  0.00    -0.308 N 
HETATM    9  N6  UNL     1      24.146  -0.739  53.519  1.00  0.00    -0.233 NA
HETATM   10  C21 UNL     1      22.804  -0.333  53.809  1.00  0.00     0.149 C 
HETATM   11  H24 UNL     1      24.103  -1.476  52.788  1.00  0.00     0.147 HD
ENDROOT
BRANCH   1  12
HETATM   12  N4  UNL     1      20.939   2.114  49.086  1.00  0.00    -0.333 N 
HETATM   13  H15 UNL     1      20.234   1.593  48.483  1.00  0.00     0.168 HD
BRANCH  12  14
HETATM   14  C7  UNL     1      21.154   3.277  48.354  1.00  0.00     0.172 C 
HETATM   15  S1  UNL     1      21.853   3.350  46.880  1.00  0.00    -0.041 SA
BRANCH  14  16
HETATM   16  N3  UNL     1      20.929   4.658  48.482  1.00  0.00    -0.365 N 
HETATM   17  H14 UNL     1      21.030   4.987  47.508  1.00  0.00     0.161 HD
BRANCH  16  18
HETATM   18  C6  UNL     1      20.632   5.722  49.396  1.00  0.00     0.141 C 
BRANCH  18  19
HETATM   19  C5  UNL     1      21.054   5.374  50.820  1.00  0.00     0.138 C 
BRANCH  19  20
HETATM   20  N2  UNL     1      22.239   6.056  51.200  1.00  0.00    -0.379 N 
HETATM   21  C1  UNL     1      23.364   5.231  51.512  1.00  0.00     0.338 C 
HETATM   22  C2  UNL     1      24.559   5.630  50.637  1.00  0.00     0.224 C 
HETATM   23  O1  UNL     1      24.888   6.952  50.809  1.00  0.00    -0.386 OA
HETATM   24  C3  UNL     1      23.834   7.833  50.840  1.00  0.00     0.187 C 
HETATM   25  C4  UNL     1      22.514   7.221  50.424  1.00  0.00     0.145 C 
BRANCH  21  26
HETATM   26  N1  UNL     1      23.833   5.450  52.889  1.00  0.00     0.103 N 
HETATM   27  H1  UNL     1      23.525   4.664  53.513  1.00  0.00     0.315 HD
HETATM   28  H2  UNL     1      24.878   5.506  52.917  1.00  0.00     0.315 HD
ENDBRANCH  21  26
ENDBRANCH  19  20
ENDBRANCH  18  19
ENDBRANCH  16  18
ENDBRANCH  14  16
ENDBRANCH  12  14
ENDBRANCH   1  12
BRANCH   8  29
HETATM   29  C15 UNL     1      26.376   0.021  53.209  1.00  0.00     0.047 A 
HETATM   30  C16 UNL     1      26.999  -1.189  52.909  1.00  0.00     0.034 A 
HETATM   31  C17 UNL     1      28.359  -1.314  53.099  1.00  0.00     0.046 A 
HETATM   32  C18 UNL     1      29.147  -0.287  53.577  1.00  0.00     0.138 A 
HETATM   33  F1  UNL     1      30.459  -0.558  53.709  1.00  0.00    -0.204 F 
HETATM   34  C19 UNL     1      28.556   0.933  53.885  1.00  0.00     0.074 A 
HETATM   35 CL1  UNL     1      29.558   2.208  54.482  1.00  0.00    -0.081 Cl
HETATM   36  C20 UNL     1      27.191   1.029  53.684  1.00  0.00     0.057 A 
ENDBRANCH   8  29
TORSDOF 8
ENDMDL
MODEL 3
REMARK VINA RESULT:      -8.7      1.311      1.622
REMARK  8 active torsions:
REMARK  status: ('A' for Active; 'I' for Inactive)
REMARK    1  A    between atoms: N1_1  and  C1_2 
REMARK    2  A    between atoms: N2_7  and  C5_8 
REMARK    3  A    between atoms: C5_8  and  C6_9 
REMARK    4  A    between atoms: C6_9  and  N3_10 
REMARK    5  A    between atoms: N3_10  and  C7_11 
REMARK    6  A    between atoms: C7_11  and  N4_13 
REMARK    7  A    between atoms: N4_13  and  C8_14 
REMARK    8  A    between atoms: N5_21  and  C15_22 
ROOT
HETATM    1  C8  UNL     1      25.628   5.810  49.565  1.00  0.00     0.034 A 
HETATM    2  C9  UNL     1      25.641   7.138  49.922  1.00  0.00     0.030 A 
HETATM    3  C10 UNL     1      26.639   8.053  49.675  1.00  0.00     0.011 A 
HETATM    4  C11 UNL     1      27.709   7.516  48.994  1.00  0.00    -0.035 A 
HETATM    5  C12 UNL     1      27.797   6.205  48.590  1.00  0.00    -0.029 A 
HETATM    6  C13 UNL     1      26.743   5.381  48.891  1.00  0.00     0.039 A 
HETATM    7  C14 UNL     1      28.999   5.736  47.867  1.00  0.00     0.182 C 
HETATM    8  N5  UNL     1      30.181   6.408  48.389  1.00  0.00    -0.308 N 
HETATM    9  N6  UNL     1      30.057   7.656  48.997  1.00  0.00    -0.233 NA
HETATM   10  C21 UNL     1      28.870   8.376  48.650  1.00  0.00     0.149 C 
HETATM   11  H24 UNL     1      30.052   7.514  50.025  1.00  0.00     0.147 HD
ENDROOT
BRANCH   1  12
HETATM   12  N4  UNL     1      24.611   4.876  49.825  1.00  0.00    -0.333 N 
HETATM   13  H15 UNL     1      24.135   4.458  48.970  1.00  0.00     0.168 HD
BRANCH  12  14
HETATM   14  C7  UNL     1      23.943   4.249  50.873  1.00  0.00     0.172 C 
HETATM   15  S1  UNL     1      22.346   3.917  50.910  1.00  0.00    -0.041 SA
BRANCH  14  16
HETATM   16  N3  UNL     1      24.240   3.710  52.136  1.00  0.00    -0.365 N 
HETATM   17  H14 UNL     1      24.615   4.530  52.640  1.00  0.00     0.161 HD
BRANCH  16  18
HETATM   18  C6  UNL     1      24.224   2.525  52.942  1.00  0.00     0.141 C 
BRANCH  18  19
HETATM   19  C5  UNL     1      24.833   1.336  52.208  1.00  0.00     0.138 C 
BRANCH  19  20
HETATM   20  N2  UNL     1      26.124   1.014  52.704  1.00  0.00    -0.379 N 
HETATM   21  C1  UNL     1      26.431   1.497  54.014  1.00  0.00     0.338 C 
HETATM   22  C2  UNL     1      26.842   0.327  54.916  1.00  0.00     0.224 C 
HETATM   23  O1  UNL     1      27.922  -0.348  54.402  1.00  0.00    -0.386 OA
HETATM   24  C3  UNL     1      27.883  -0.603  53.053  1.00  0.00     0.187 C 
HETATM   25  C4  UNL     1      26.540  -0.320  52.416  1.00  0.00     0.145 C 
BRANCH  21  26
HETATM   26  N1  UNL     1      27.607   2.380  54.004  1.00  0.00     0.103 N 
HETATM   27  H1  UNL     1      28.359   1.985  53.388  1.00  0.00     0.315 HD
HETATM   28  H2  UNL     1      27.350   3.330  53.648  1.00  0.00     0.315 HD
ENDBRANCH  21  26
ENDBRANCH  19  20
ENDBRANCH  18  19
ENDBRANCH  16  18
ENDBRANCH  14  16
ENDBRANCH  12  14
ENDBRANCH   1  12
BRANCH   8  29
HETATM   29  C15 UNL     1      31.517   5.898  48.344  1.00  0.00     0.047 A 
HETATM   30  C16 UNL     1      32.649   6.592  48.770  1.00  0.00     0.034 A 
HETATM   31  C17 UNL     1      33.886   5.990  48.675  1.00  0.00     0.046 A 
HETATM   32  C18 UNL     1      34.063   4.718  48.172  1.00  0.00     0.138 A 
HETATM   33  F1  UNL     1      35.332   4.265  48.142  1.00  0.00    -0.204 F 
HETATM   34  C19 UNL     1      32.956   3.999  47.739  1.00  0.00     0.074 A 
HETATM   35 CL1  UNL     1      33.197   2.407  47.113  1.00  0.00    -0.081 Cl
HETATM   36  C20 UNL     1      31.728   4.628  47.847  1.00  0.00     0.057 A 
ENDBRANCH   8  29
TORSDOF 8
ENDMDL
MODEL 4
REMARK VINA RESULT:      -8.5      5.831      8.292
REMARK  8 active torsions:
REMARK  status: ('A' for Active; 'I' for Inactive)
REMARK    1  A    between atoms: N1_1  and  C1_2 
REMARK    2  A    between atoms: N2_7  and  C5_8 
REMARK    3  A    between atoms: C5_8  and  C6_9 
REMARK    4  A    between atoms: C6_9  and  N3_10 
REMARK    5  A    between atoms: N3_10  and  C7_11 
REMARK    6  A    between atoms: C7_11  and  N4_13 
REMARK    7  A    between atoms: N4_13  and  C8_14 
REMARK    8  A    between atoms: N5_21  and  C15_22 
ROOT
HETATM    1  C8  UNL     1      21.355   1.318  49.802  1.00  0.00     0.034 A 
HETATM    2  C9  UNL     1      20.545   0.607  50.655  1.00  0.00     0.030 A 
HETATM    3  C10 UNL     1      20.866   0.149  51.913  1.00  0.00     0.011 A 
HETATM    4  C11 UNL     1      22.150   0.473  52.295  1.00  0.00    -0.035 A 
HETATM    5  C12 UNL     1      23.038   1.180  51.521  1.00  0.00    -0.029 A 
HETATM    6  C13 UNL     1      22.611   1.586  50.283  1.00  0.00     0.039 A 
HETATM    7  C14 UNL     1      24.395   1.468  52.034  1.00  0.00     0.182 C 
HETATM    8  N5  UNL     1      24.871   0.343  52.828  1.00  0.00    -0.308 N 
HETATM    9  N6  UNL     1      23.953  -0.507  53.443  1.00  0.00    -0.233 NA
HETATM   10  C21 UNL     1      22.649   0.052  53.629  1.00  0.00     0.149 C 
HETATM   11  H24 UNL     1      23.853  -1.354  52.851  1.00  0.00     0.147 HD
ENDROOT
BRANCH   1  12
HETATM   12  N4  UNL     1      21.027   1.777  48.514  1.00  0.00    -0.333 N 
HETATM   13  H15 UNL     1      20.928   1.028  47.765  1.00  0.00     0.168 HD
BRANCH  12  14
HETATM   14  C7  UNL     1      20.766   2.945  47.804  1.00  0.00     0.172 C 
HETATM   15  S1  UNL     1      19.358   3.303  47.061  1.00  0.00    -0.041 SA
BRANCH  14  16
HETATM   16  N3  UNL     1      21.431   4.131  47.449  1.00  0.00    -0.365 N 
HETATM   17  H14 UNL     1      21.766   3.916  46.495  1.00  0.00     0.161 HD
BRANCH  16  18
HETATM   18  C6  UNL     1      21.801   5.447  47.881  1.00  0.00     0.141 C 
BRANCH  18  19
HETATM   19  C5  UNL     1      23.164   5.452  48.563  1.00  0.00     0.138 C 
BRANCH  19  20
HETATM   20  N2  UNL     1      23.054   5.666  49.962  1.00  0.00    -0.379 N 
HETATM   21  C1  UNL     1      21.730   5.859  50.465  1.00  0.00     0.338 C 
HETATM   22  C2  UNL     1      21.438   4.834  51.568  1.00  0.00     0.224 C 
HETATM   23  O1  UNL     1      22.346   4.929  52.594  1.00  0.00    -0.386 OA
HETATM   24  C3  UNL     1      23.661   5.066  52.221  1.00  0.00     0.187 C 
HETATM   25  C4  UNL     1      23.905   4.832  50.746  1.00  0.00     0.145 C 
BRANCH  21  26
HETATM   26  N1  UNL     1      21.587   7.162  51.132  1.00  0.00     0.103 N 
HETATM   27  H1  UNL     1      22.404   7.783  50.908  1.00  0.00     0.315 HD
HETATM   28  H2  UNL     1      20.711   7.641  50.819  1.00  0.00     0.315 HD
ENDBRANCH  21  26
ENDBRANCH  19  20
ENDBRANCH  18  19
ENDBRANCH  16  18
ENDBRANCH  14  16
ENDBRANCH  12  14
ENDBRANCH   1  12
BRANCH   8  29
HETATM   29  C15 UNL     1      26.242   0.002  53.052  1.00  0.00     0.047 A 
HETATM   30  C16 UNL     1      26.805  -1.246  52.788  1.00  0.00     0.034 A 
HETATM   31  C17 UNL     1      28.143  -1.451  53.047  1.00  0.00     0.046 A 
HETATM   32  C18 UNL     1      28.966  -0.471  53.562  1.00  0.00     0.138 A 
HETATM   33  F1  UNL     1      30.252  -0.821  53.762  1.00  0.00    -0.204 F 
HETATM   34  C19 UNL     1      28.436   0.784  53.836  1.00  0.00     0.074 A 
HETATM   35 CL1  UNL     1      29.482   2.000  54.480  1.00  0.00    -0.081 Cl
HETATM   36  C20 UNL     1      27.090   0.961  53.566  1.00  0.00     0.057 A 
ENDBRANCH   8  29
TORSDOF 8
ENDMDL
MODEL 5
REMARK VINA RESULT:      -8.3      4.849      8.948
REMARK  8 active torsions:
REMARK  status: ('A' for Active; 'I' for Inactive)
REMARK    1  A    between atoms: N1_1  and  C1_2 
REMARK    2  A    between atoms: N2_7  and  C5_8 
REMARK    3  A    between atoms: C5_8  and  C6_9 
REMARK    4  A    between atoms: C6_9  and  N3_10 
REMARK    5  A    between atoms: N3_10  and  C7_11 
REMARK    6  A    between atoms: C7_11  and  N4_13 
REMARK    7  A    between atoms: N4_13  and  C8_14 
REMARK    8  A    between atoms: N5_21  and  C15_22 
ROOT
HETATM    1  C8  UNL     1      22.796   5.045  51.820  1.00  0.00     0.034 A 
HETATM    2  C9  UNL     1      21.904   4.102  51.368  1.00  0.00     0.030 A 
HETATM    3  C10 UNL     1      21.942   2.746  51.602  1.00  0.00     0.011 A 
HETATM    4  C11 UNL     1      23.014   2.360  52.377  1.00  0.00    -0.035 A 
HETATM    5  C12 UNL     1      23.961   3.219  52.880  1.00  0.00    -0.029 A 
HETATM    6  C13 UNL     1      23.824   4.552  52.583  1.00  0.00     0.039 A 
HETATM    7  C14 UNL     1      25.073   2.692  53.699  1.00  0.00     0.182 C 
HETATM    8  N5  UNL     1      25.482   1.388  53.194  1.00  0.00    -0.308 N 
HETATM    9  N6  UNL     1      24.571   0.602  52.491  1.00  0.00    -0.233 NA
HETATM   10  C21 UNL     1      23.196   0.927  52.720  1.00  0.00     0.149 C 
HETATM   11  H24 UNL     1      24.760   0.719  51.477  1.00  0.00     0.147 HD
ENDROOT
BRANCH   1  12
HETATM   12  N4  UNL     1      22.759   6.428  51.574  1.00  0.00    -0.333 N 
HETATM   13  H15 UNL     1      22.008   6.973  52.096  1.00  0.00     0.168 HD
BRANCH  12  14
HETATM   14  C7  UNL     1      23.392   7.426  50.838  1.00  0.00     0.172 C 
HETATM   15  S1  UNL     1      22.682   8.350  49.695  1.00  0.00    -0.041 SA
BRANCH  14  16
HETATM   16  N3  UNL     1      24.667   8.007  50.733  1.00  0.00    -0.365 N 
HETATM   17  H14 UNL     1      25.190   7.519  51.479  1.00  0.00     0.161 HD
BRANCH  16  18
HETATM   18  C6  UNL     1      25.470   8.962  50.029  1.00  0.00     0.141 C 
BRANCH  18  19
HETATM   19  C5  UNL     1      26.942   8.849  50.410  1.00  0.00     0.138 C 
BRANCH  19  20
HETATM   20  N2  UNL     1      27.752   9.739  49.657  1.00  0.00    -0.379 N 
HETATM   21  C1  UNL     1      29.082   9.294  49.380  1.00  0.00     0.338 C 
HETATM   22  C2  UNL     1      29.331   9.310  47.867  1.00  0.00     0.224 C 
HETATM   23  O1  UNL     1      29.138  10.563  47.339  1.00  0.00    -0.386 OA
HETATM   24  C3  UNL     1      28.024  11.235  47.781  1.00  0.00     0.187 C 
HETATM   25  C4  UNL     1      27.068  10.375  48.579  1.00  0.00     0.145 C 
BRANCH  21  26
HETATM   26  N1  UNL     1      30.087  10.220  49.924  1.00  0.00     0.103 N 
HETATM   27  H1  UNL     1      31.057   9.865  49.733  1.00  0.00     0.315 HD
HETATM   28  H2  UNL     1      29.988  11.167  49.488  1.00  0.00     0.315 HD
ENDBRANCH  21  26
ENDBRANCH  19  20
ENDBRANCH  18  19
ENDBRANCH  16  18
ENDBRANCH  14  16
ENDBRANCH  12  14
ENDBRANCH   1  12
BRANCH   8  29
HETATM   29  C15 UNL     1      26.779   0.804  53.349  1.00  0.00     0.047 A 
HETATM   30  C16 UNL     1      27.923   1.499  53.737  1.00  0.00     0.034 A 
HETATM   31  C17 UNL     1      29.119   0.821  53.851  1.00  0.00     0.046 A 
HETATM   32  C18 UNL     1      29.241  -0.530  53.597  1.00  0.00     0.138 A 
HETATM   33  F1  UNL     1      30.473  -1.052  53.751  1.00  0.00    -0.204 F 
HETATM   34  C19 UNL     1      28.119  -1.251  53.208  1.00  0.00     0.074 A 
HETATM   35 CL1  UNL     1      28.292  -2.941  52.894  1.00  0.00    -0.081 Cl
HETATM   36  C20 UNL     1      26.934  -0.545  53.102  1.00  0.00     0.057 A 
ENDBRANCH   8  29
TORSDOF 8
ENDMDL
MODEL 6
REMARK VINA RESULT:      -8.3      5.975      8.925
REMARK  8 active torsions:
REMARK  status: ('A' for Active; 'I' for Inactive)
REMARK    1  A    between atoms: N1_1  and  C1_2 
REMARK    2  A    between atoms: N2_7  and  C5_8 
REMARK    3  A    between atoms: C5_8  and  C6_9 
REMARK    4  A    between atoms: C6_9  and  N3_10 
REMARK    5  A    between atoms: N3_10  and  C7_11 
REMARK    6  A    between atoms: C7_11  and  N4_13 
REMARK    7  A    between atoms: N4_13  and  C8_14 
REMARK    8  A    between atoms: N5_21  and  C15_22 
ROOT
HETATM    1  C8  UNL     1      19.854   0.402  51.439  1.00  0.00     0.034 A 
HETATM    2  C9  UNL     1      19.395  -0.410  52.449  1.00  0.00     0.030 A 
HETATM    3  C10 UNL     1      20.073  -0.780  53.587  1.00  0.00     0.011 A 
HETATM    4  C11 UNL     1      21.341  -0.246  53.660  1.00  0.00    -0.035 A 
HETATM    5  C12 UNL     1      21.896   0.576  52.709  1.00  0.00    -0.029 A 
HETATM    6  C13 UNL     1      21.128   0.879  51.613  1.00  0.00     0.039 A 
HETATM    7  C14 UNL     1      23.271   1.090  52.890  1.00  0.00     0.182 C 
HETATM    8  N5  UNL     1      24.095   0.075  53.531  1.00  0.00    -0.308 N 
HETATM    9  N6  UNL     1      23.498  -0.897  54.333  1.00  0.00    -0.233 NA
HETATM   10  C21 UNL     1      22.203  -0.550  54.831  1.00  0.00     0.149 C 
HETATM   11  H24 UNL     1      23.400  -1.763  53.768  1.00  0.00     0.147 HD
ENDROOT
BRANCH   1  12
HETATM   12  N4  UNL     1      19.162   0.772  50.273  1.00  0.00    -0.333 N 
HETATM   13  H15 UNL     1      19.176   0.063  49.480  1.00  0.00     0.168 HD
BRANCH  12  14
HETATM   14  C7  UNL     1      18.409   1.810  49.732  1.00  0.00     0.172 C 
HETATM   15  S1  UNL     1      16.790   1.791  49.521  1.00  0.00    -0.041 SA
BRANCH  14  16
HETATM   16  N3  UNL     1      18.614   3.100  49.214  1.00  0.00    -0.365 N 
HETATM   17  H14 UNL     1      18.151   3.040  48.292  1.00  0.00     0.161 HD
BRANCH  16  18
HETATM   18  C6  UNL     1      19.187   4.390  49.462  1.00  0.00     0.141 C 
BRANCH  18  19
HETATM   19  C5  UNL     1      19.990   4.408  50.758  1.00  0.00     0.138 C 
BRANCH  19  20
HETATM   20  N2  UNL     1      21.324   4.846  50.547  1.00  0.00    -0.379 N 
HETATM   21  C1  UNL     1      21.967   5.460  51.665  1.00  0.00     0.338 C 
HETATM   22  C2  UNL     1      23.275   4.724  51.981  1.00  0.00     0.224 C 
HETATM   23  O1  UNL     1      24.122   4.720  50.900  1.00  0.00    -0.386 OA
HETATM   24  C3  UNL     1      23.543   4.441  49.686  1.00  0.00     0.187 C 
HETATM   25  C4  UNL     1      22.120   3.937  49.789  1.00  0.00     0.145 C 
BRANCH  21  26
HETATM   26  N1  UNL     1      22.388   6.836  51.361  1.00  0.00     0.103 N 
HETATM   27  H1  UNL     1      23.039   6.849  50.537  1.00  0.00     0.315 HD
HETATM   28  H2  UNL     1      21.558   7.433  51.138  1.00  0.00     0.315 HD
ENDBRANCH  21  26
ENDBRANCH  19  20
ENDBRANCH  18  19
ENDBRANCH  16  18
ENDBRANCH  14  16
ENDBRANCH  12  14
ENDBRANCH   1  12
BRANCH   8  29
HETATM   29  C15 UNL     1      25.517  -0.037  53.419  1.00  0.00     0.047 A 
HETATM   30  C16 UNL     1      26.204  -1.220  53.150  1.00  0.00     0.034 A 
HETATM   31  C17 UNL     1      27.580  -1.198  53.066  1.00  0.00     0.046 A 
HETATM   32  C18 UNL     1      28.323  -0.047  53.235  1.00  0.00     0.138 A 
HETATM   33  F1  UNL     1      29.658  -0.183  53.124  1.00  0.00    -0.204 F 
HETATM   34  C19 UNL     1      27.669   1.149  53.504  1.00  0.00     0.074 A 
HETATM   35 CL1  UNL     1      28.615   2.579  53.713  1.00  0.00    -0.081 Cl
HETATM   36  C20 UNL     1      26.288   1.096  53.583  1.00  0.00     0.057 A 
ENDBRANCH   8  29
TORSDOF 8
ENDMDL
MODEL 7
REMARK VINA RESULT:      -8.3      2.418      2.892
REMARK  8 active torsions:
REMARK  status: ('A' for Active; 'I' for Inactive)
REMARK    1  A    between atoms: N1_1  and  C1_2 
REMARK    2  A    between atoms: N2_7  and  C5_8 
REMARK    3  A    between atoms: C5_8  and  C6_9 
REMARK    4  A    between atoms: C6_9  and  N3_10 
REMARK    5  A    between atoms: N3_10  and  C7_11 
REMARK    6  A    between atoms: C7_11  and  N4_13 
REMARK    7  A    between atoms: N4_13  and  C8_14 
REMARK    8  A    between atoms: N5_21  and  C15_22 
ROOT
HETATM    1  C8  UNL     1      25.330   5.951  49.748  1.00  0.00     0.034 A 
HETATM    2  C9  UNL     1      25.376   7.273  50.119  1.00  0.00     0.030 A 
HETATM    3  C10 UNL     1      26.379   8.176  49.848  1.00  0.00     0.011 A 
HETATM    4  C11 UNL     1      27.417   7.630  49.124  1.00  0.00    -0.035 A 
HETATM    5  C12 UNL     1      27.470   6.323  48.702  1.00  0.00    -0.029 A 
HETATM    6  C13 UNL     1      26.414   5.512  49.030  1.00  0.00     0.039 A 
HETATM    7  C14 UNL     1      28.638   5.844  47.932  1.00  0.00     0.182 C 
HETATM    8  N5  UNL     1      29.849   6.491  48.421  1.00  0.00    -0.308 N 
HETATM    9  N6  UNL     1      29.765   7.734  49.046  1.00  0.00    -0.233 NA
HETATM   10  C21 UNL     1      28.578   8.476  48.749  1.00  0.00     0.149 C 
HETATM   11  H24 UNL     1      29.794   7.580  50.073  1.00  0.00     0.147 HD
ENDROOT
BRANCH   1  12
HETATM   12  N4  UNL     1      24.308   5.029  50.032  1.00  0.00    -0.333 N 
HETATM   13  H15 UNL     1      23.634   4.821  49.235  1.00  0.00     0.168 HD
BRANCH  12  14
HETATM   14  C7  UNL     1      23.812   4.227  51.056  1.00  0.00     0.172 C 
HETATM   15  S1  UNL     1      23.198   4.770  52.468  1.00  0.00    -0.041 SA
BRANCH  14  16
HETATM   16  N3  UNL     1      23.631   2.861  51.328  1.00  0.00    -0.365 N 
HETATM   17  H14 UNL     1      23.046   2.556  50.532  1.00  0.00     0.161 HD
BRANCH  16  18
HETATM   18  C6  UNL     1      23.929   1.792  52.235  1.00  0.00     0.141 C 
BRANCH  18  19
HETATM   19  C5  UNL     1      22.838   0.727  52.227  1.00  0.00     0.138 C 
BRANCH  19  20
HETATM   20  N2  UNL     1      22.631   0.174  53.518  1.00  0.00    -0.379 N 
HETATM   21  C1  UNL     1      21.325  -0.348  53.774  1.00  0.00     0.338 C 
HETATM   22  C2  UNL     1      21.429  -1.814  54.213  1.00  0.00     0.224 C 
HETATM   23  O1  UNL     1      22.214  -1.949  55.332  1.00  0.00    -0.386 OA
HETATM   24  C3  UNL     1      23.383  -1.228  55.335  1.00  0.00     0.187 C 
HETATM   25  C4  UNL     1      23.723  -0.609  53.996  1.00  0.00     0.145 C 
BRANCH  21  26
HETATM   26  N1  UNL     1      20.684   0.328  54.912  1.00  0.00     0.103 N 
HETATM   27  H1  UNL     1      21.408   0.683  55.585  1.00  0.00     0.315 HD
HETATM   28  H2  UNL     1      20.111   1.139  54.582  1.00  0.00     0.315 HD
ENDBRANCH  21  26
ENDBRANCH  19  20
ENDBRANCH  18  19
ENDBRANCH  16  18
ENDBRANCH  14  16
ENDBRANCH  12  14
ENDBRANCH   1  12
BRANCH   8  29
HETATM   29  C15 UNL     1      31.174   5.962  48.323  1.00  0.00     0.047 A 
HETATM   30  C16 UNL     1      32.326   6.615  48.758  1.00  0.00     0.034 A 
HETATM   31  C17 UNL     1      33.550   5.997  48.608  1.00  0.00     0.046 A 
HETATM   32  C18 UNL     1      33.694   4.747  48.042  1.00  0.00     0.138 A 
HETATM   33  F1  UNL     1      34.953   4.274  47.964  1.00  0.00    -0.204 F 
HETATM   34  C19 UNL     1      32.565   4.069  47.599  1.00  0.00     0.074 A 
HETATM   35 CL1  UNL     1      32.765   2.505  46.893  1.00  0.00    -0.081 Cl
HETATM   36  C20 UNL     1      31.351   4.714  47.762  1.00  0.00     0.057 A 
ENDBRANCH   8  29
TORSDOF 8
ENDMDL
MODEL 8
REMARK VINA RESULT:      -8.2      4.245      8.025
REMARK  8 active torsions:
REMARK  status: ('A' for Active; 'I' for Inactive)
REMARK    1  A    between atoms: N1_1  and  C1_2 
REMARK    2  A    between atoms: N2_7  and  C5_8 
REMARK    3  A    between atoms: C5_8  and  C6_9 
REMARK    4  A    between atoms: C6_9  and  N3_10 
REMARK    5  A    between atoms: N3_10  and  C7_11 
REMARK    6  A    between atoms: C7_11  and  N4_13 
REMARK    7  A    between atoms: N4_13  and  C8_14 
REMARK    8  A    between atoms: N5_21  and  C15_22 
ROOT
HETATM    1  C8  UNL     1      21.046   1.995  51.012  1.00  0.00     0.034 A 
HETATM    2  C9  UNL     1      20.347   0.917  51.504  1.00  0.00     0.030 A 
HETATM    3  C10 UNL     1      20.772   0.020  52.457  1.00  0.00     0.011 A 
HETATM    4  C11 UNL     1      22.039   0.287  52.926  1.00  0.00    -0.035 A 
HETATM    5  C12 UNL     1      22.821   1.336  52.504  1.00  0.00    -0.029 A 
HETATM    6  C13 UNL     1      22.296   2.168  51.549  1.00  0.00     0.039 A 
HETATM    7  C14 UNL     1      24.171   1.525  53.076  1.00  0.00     0.182 C 
HETATM    8  N5  UNL     1      24.785   0.228  53.329  1.00  0.00    -0.308 N 
HETATM    9  N6  UNL     1      23.979  -0.889  53.547  1.00  0.00    -0.233 NA
HETATM   10  C21 UNL     1      22.642  -0.591  53.961  1.00  0.00     0.149 C 
HETATM   11  H24 UNL     1      23.924  -1.424  52.659  1.00  0.00     0.147 HD
ENDROOT
BRANCH   1  12
HETATM   12  N4  UNL     1      20.613   2.906  50.034  1.00  0.00    -0.333 N 
HETATM   13  H15 UNL     1      19.810   2.578  49.416  1.00  0.00     0.168 HD
BRANCH  12  14
HETATM   14  C7  UNL     1      20.871   4.179  49.534  1.00  0.00     0.172 C 
HETATM   15  S1  UNL     1      19.941   5.497  49.785  1.00  0.00    -0.041 SA
BRANCH  14  16
HETATM   16  N3  UNL     1      21.838   4.823  48.746  1.00  0.00    -0.365 N 
HETATM   17  H14 UNL     1      21.322   4.997  47.867  1.00  0.00     0.161 HD
BRANCH  16  18
HETATM   18  C6  UNL     1      23.189   5.301  48.697  1.00  0.00     0.141 C 
BRANCH  18  19
HETATM   19  C5  UNL     1      23.829   5.320  50.081  1.00  0.00     0.138 C 
BRANCH  19  20
HETATM   20  N2  UNL     1      25.219   5.038  50.024  1.00  0.00    -0.379 N 
HETATM   21  C1  UNL     1      25.588   3.668  50.196  1.00  0.00     0.338 C 
HETATM   22  C2  UNL     1      26.419   3.200  48.994  1.00  0.00     0.224 C 
HETATM   23  O1  UNL     1      27.545   3.969  48.832  1.00  0.00    -0.386 OA
HETATM   24  C3  UNL     1      27.366   5.326  48.959  1.00  0.00     0.187 C 
HETATM   25  C4  UNL     1      25.915   5.750  49.003  1.00  0.00     0.145 C 
BRANCH  21  26
HETATM   26  N1  UNL     1      26.482   3.487  51.349  1.00  0.00     0.103 N 
HETATM   27  H1  UNL     1      26.001   2.942  52.107  1.00  0.00     0.315 HD
HETATM   28  H2  UNL     1      27.347   2.970  51.066  1.00  0.00     0.315 HD
ENDBRANCH  21  26
ENDBRANCH  19  20
ENDBRANCH  18  19
ENDBRANCH  16  18
ENDBRANCH  14  16
ENDBRANCH  12  14
ENDBRANCH   1  12
BRANCH   8  29
HETATM   29  C15 UNL     1      26.191  -0.034  53.378  1.00  0.00     0.047 A 
HETATM   30  C16 UNL     1      26.793  -1.224  52.974  1.00  0.00     0.034 A 
HETATM   31  C17 UNL     1      28.163  -1.354  53.070  1.00  0.00     0.046 A 
HETATM   32  C18 UNL     1      28.979  -0.352  53.553  1.00  0.00     0.138 A 
HETATM   33  F1  UNL     1      30.297  -0.626  53.587  1.00  0.00    -0.204 F 
HETATM   34  C19 UNL     1      28.409   0.847  53.963  1.00  0.00     0.074 A 
HETATM   35 CL1  UNL     1      29.447   2.091  54.565  1.00  0.00    -0.081 Cl
HETATM   36  C20 UNL     1      27.033   0.949  53.855  1.00  0.00     0.057 A 
ENDBRANCH   8  29
TORSDOF 8
ENDMDL
MODEL 9
REMARK VINA RESULT:      -8.1      4.531      8.065
REMARK  8 active torsions:
REMARK  status: ('A' for Active; 'I' for Inactive)
REMARK    1  A    between atoms: N1_1  and  C1_2 
REMARK    2  A    between atoms: N2_7  and  C5_8 
REMARK    3  A    between atoms: C5_8  and  C6_9 
REMARK    4  A    between atoms: C6_9  and  N3_10 
REMARK    5  A    between atoms: N3_10  and  C7_11 
REMARK    6  A    between atoms: C7_11  and  N4_13 
REMARK    7  A    between atoms: N4_13  and  C8_14 
REMARK    8  A    between atoms: N5_21  and  C15_22 
ROOT
HETATM    1  C8  UNL     1      22.479   2.795  49.468  1.00  0.00     0.034 A 
HETATM    2  C9  UNL     1      21.587   1.858  49.935  1.00  0.00     0.030 A 
HETATM    3  C10 UNL     1      21.734   1.053  51.041  1.00  0.00     0.011 A 
HETATM    4  C11 UNL     1      22.923   1.259  51.706  1.00  0.00    -0.035 A 
HETATM    5  C12 UNL     1      23.880   2.169  51.327  1.00  0.00    -0.029 A 
HETATM    6  C13 UNL     1      23.629   2.918  50.206  1.00  0.00     0.039 A 
HETATM    7  C14 UNL     1      25.123   2.303  52.117  1.00  0.00     0.182 C 
HETATM    8  N5  UNL     1      25.531   0.997  52.619  1.00  0.00    -0.308 N 
HETATM    9  N6  UNL     1      24.577  -0.003  52.802  1.00  0.00    -0.233 NA
HETATM   10  C21 UNL     1      23.231   0.467  52.924  1.00  0.00     0.149 C 
HETATM   11  H24 UNL     1      24.617  -0.639  51.982  1.00  0.00     0.147 HD
ENDROOT
BRANCH   1  12
HETATM   12  N4  UNL     1      22.330   3.610  48.333  1.00  0.00    -0.333 N 
HETATM   13  H15 UNL     1      22.047   3.112  47.437  1.00  0.00     0.168 HD
BRANCH  12  14
HETATM   14  C7  UNL     1      22.428   4.935  47.919  1.00  0.00     0.172 C 
HETATM   15  S1  UNL     1      22.116   5.478  46.411  1.00  0.00    -0.041 SA
BRANCH  14  16
HETATM   16  N3  UNL     1      22.765   6.186  48.463  1.00  0.00    -0.365 N 
HETATM   17  H14 UNL     1      22.015   6.794  48.092  1.00  0.00     0.161 HD
BRANCH  16  18
HETATM   18  C6  UNL     1      23.697   6.898  49.287  1.00  0.00     0.141 C 
BRANCH  18  19
HETATM   19  C5  UNL     1      24.876   6.019  49.690  1.00  0.00     0.138 C 
BRANCH  19  20
HETATM   20  N2  UNL     1      26.106   6.725  49.625  1.00  0.00    -0.379 N 
HETATM   21  C1  UNL     1      26.938   6.434  48.499  1.00  0.00     0.338 C 
HETATM   22  C2  UNL     1      27.257   7.729  47.741  1.00  0.00     0.224 C 
HETATM   23  O1  UNL     1      27.876   8.647  48.554  1.00  0.00    -0.386 OA
HETATM   24  C3  UNL     1      27.340   8.793  49.810  1.00  0.00     0.187 C 
HETATM   25  C4  UNL     1      26.006   8.101  49.991  1.00  0.00     0.145 C 
BRANCH  21  26
HETATM   26  N1  UNL     1      28.252   5.922  48.914  1.00  0.00     0.103 N 
HETATM   27  H1  UNL     1      28.825   5.655  48.076  1.00  0.00     0.315 HD
HETATM   28  H2  UNL     1      28.776   6.649  49.456  1.00  0.00     0.315 HD
ENDBRANCH  21  26
ENDBRANCH  19  20
ENDBRANCH  18  19
ENDBRANCH  16  18
ENDBRANCH  14  16
ENDBRANCH  12  14
ENDBRANCH   1  12
BRANCH   8  29
HETATM   29  C15 UNL     1      26.867   0.614  52.957  1.00  0.00     0.047 A 
HETATM   30  C16 UNL     1      27.874   1.498  53.344  1.00  0.00     0.034 A 
HETATM   31  C17 UNL     1      29.126   1.005  53.646  1.00  0.00     0.046 A 
HETATM   32  C18 UNL     1      29.438  -0.338  53.583  1.00  0.00     0.138 A 
HETATM   33  F1  UNL     1      30.703  -0.668  53.907  1.00  0.00    -0.204 F 
HETATM   34  C19 UNL     1      28.457  -1.245  53.201  1.00  0.00     0.074 A 
HETATM   35 CL1  UNL     1      28.865  -2.922  53.128  1.00  0.00    -0.081 Cl
HETATM   36  C20 UNL     1      27.210  -0.721  52.904  1.00  0.00     0.057 A 
ENDBRANCH   8  29
TORSDOF 8
ENDMDL
