MODEL 1
REMARK VINA RESULT:      -8.7      0.000      0.000
REMARK  7 active torsions:
REMARK  status: ('A' for Active; 'I' for Inactive)
REMARK    1  A    between atoms: C5_6  and  O1_7 
REMARK    2  A    between atoms: C7_9  and  O2_10 
REMARK    3  A    between atoms: N2_15  and  C12_16 
REMARK    4  A    between atoms: C12_16  and  N3_17 
REMARK    5  A    between atoms: C15_20  and  C16_21 
REMARK    6  A    between atoms: C16_21  and  N4_23 
REMARK    7  A    between atoms: C20_27  and  C21_28 
ROOT
HETATM    1  C12 UNL     1      24.607   2.643  51.802  1.00  0.00     0.272 A 
HETATM    2  C13 UNL     1      25.767   2.090  51.084  1.00  0.00     0.042 A 
HETATM    3  C14 UNL     1      26.528   1.308  51.868  1.00  0.00     0.011 A 
HETATM    4  C15 UNL     1      25.902   1.295  53.188  1.00  0.00    -0.020 A 
HETATM    5  C22 UNL     1      24.814   2.047  53.162  1.00  0.00     0.051 A 
ENDROOT
BRANCH   1   6
HETATM    6  N2  UNL     1      23.327   2.244  51.257  1.00  0.00    -0.302 N 
HETATM    7  C2  UNL     1      22.762   2.424  49.989  1.00  0.00     0.109 A 
HETATM    8  C1  UNL     1      23.545   3.081  49.153  1.00  0.00     0.086 C 
HETATM    9  N1  UNL     1      21.462   1.901  49.750  1.00  0.00    -0.234 NA
HETATM   10  C3  UNL     1      20.805   1.272  50.667  1.00  0.00     0.073 A 
HETATM   11  C4  UNL     1      19.553   0.808  50.321  1.00  0.00     0.072 A 
HETATM   12  C10 UNL     1      21.332   1.075  51.931  1.00  0.00     0.011 A 
HETATM   13  C5  UNL     1      18.775   0.124  51.233  1.00  0.00     0.103 A 
HETATM   14  C7  UNL     1      19.277  -0.086  52.499  1.00  0.00     0.102 A 
HETATM   15  C9  UNL     1      20.539   0.389  52.828  1.00  0.00     0.054 A 
HETATM   16  C11 UNL     1      22.548   1.534  52.244  1.00  0.00     0.109 A 
BRANCH  13  17
HETATM   17  O1  UNL     1      17.521  -0.350  50.913  1.00  0.00    -0.353 OA
HETATM   18  C6  UNL     1      16.882  -0.113  49.683  1.00  0.00     0.210 C 
ENDBRANCH  13  17
BRANCH  14  19
HETATM   19  O2  UNL     1      18.495  -0.767  53.397  1.00  0.00    -0.353 OA
HETATM   20  C8  UNL     1      18.577  -2.133  53.710  1.00  0.00     0.210 C 
ENDBRANCH  14  19
ENDBRANCH   1   6
BRANCH   1  21
HETATM   21  N3  UNL     1      24.720   4.065  51.910  1.00  0.00     0.115 N 
HETATM   22  H12 UNL     1      25.462   4.291  52.605  1.00  0.00     0.317 HD
HETATM   23  H13 UNL     1      23.820   4.492  52.211  1.00  0.00     0.317 HD
ENDBRANCH   1  21
BRANCH   4  24
HETATM   24  C16 UNL     1      26.498   0.510  54.306  1.00  0.00     0.219 C 
HETATM   25 CL1  UNL     1      25.299  -0.716  54.746  1.00  0.00    -0.097 Cl
BRANCH  24  26
HETATM   26  N4  UNL     1      27.767  -0.068  53.923  1.00  0.00    -0.336 N 
HETATM   27  C17 UNL     1      27.902  -1.314  53.429  1.00  0.00     0.093 A 
HETATM   28  C18 UNL     1      29.234  -1.553  53.168  1.00  0.00     0.019 A 
HETATM   29  C19 UNL     1      29.850  -0.377  53.540  1.00  0.00     0.029 A 
HETATM   30  C20 UNL     1      28.943   0.570  54.018  1.00  0.00     0.041 A 
BRANCH  30  31
HETATM   31  C21 UNL     1      29.298   1.912  54.485  1.00  0.00     0.279 C 
HETATM   32  F1  UNL     1      28.798   2.936  53.677  1.00  0.00    -0.249 F 
ENDBRANCH  30  31
ENDBRANCH  24  26
ENDBRANCH   4  24
TORSDOF 7
ENDMDL
MODEL 2
REMARK VINA RESULT:      -8.2      3.973      7.960
REMARK  7 active torsions:
REMARK  status: ('A' for Active; 'I' for Inactive)
REMARK    1  A    between atoms: C5_6  and  O1_7 
REMARK    2  A    between atoms: C7_9  and  O2_10 
REMARK    3  A    between atoms: N2_15  and  C12_16 
REMARK    4  A    between atoms: C12_16  and  N3_17 
REMARK    5  A    between atoms: C15_20  and  C16_21 
REMARK    6  A    between atoms: C16_21  and  N4_23 
REMARK    7  A    between atoms: C20_27  and  C21_28 
ROOT
HETATM    1  C12 UNL     1      20.758   0.469  53.601  1.00  0.00     0.272 A 
HETATM    2  C13 UNL     1      20.032  -0.495  52.756  1.00  0.00     0.042 A 
HETATM    3  C14 UNL     1      19.403   0.100  51.728  1.00  0.00     0.011 A 
HETATM    4  C15 UNL     1      19.679   1.530  51.833  1.00  0.00    -0.020 A 
HETATM    5  C22 UNL     1      20.445   1.750  52.889  1.00  0.00     0.051 A 
ENDROOT
BRANCH   1   6
HETATM    6  N2  UNL     1      22.187   0.248  53.657  1.00  0.00    -0.302 N 
HETATM    7  C2  UNL     1      22.953  -0.706  54.338  1.00  0.00     0.109 A 
HETATM    8  C1  UNL     1      22.230  -1.544  55.057  1.00  0.00     0.086 C 
HETATM    9  N1  UNL     1      24.366  -0.669  54.186  1.00  0.00    -0.234 NA
HETATM   10  C3  UNL     1      24.945   0.215  53.443  1.00  0.00     0.073 A 
HETATM   11  C4  UNL     1      26.321   0.154  53.370  1.00  0.00     0.072 A 
HETATM   12  C10 UNL     1      24.219   1.172  52.755  1.00  0.00     0.011 A 
HETATM   13  C5  UNL     1      27.030   1.055  52.601  1.00  0.00     0.103 A 
HETATM   14  C7  UNL     1      26.331   2.018  51.906  1.00  0.00     0.102 A 
HETATM   15  C9  UNL     1      24.947   2.063  51.992  1.00  0.00     0.054 A 
HETATM   16  C11 UNL     1      22.886   1.212  52.840  1.00  0.00     0.109 A 
BRANCH  13  17
HETATM   17  O1  UNL     1      28.404   1.016  52.512  1.00  0.00    -0.353 OA
HETATM   18  C6  UNL     1      29.264   1.004  53.624  1.00  0.00     0.210 C 
ENDBRANCH  13  17
BRANCH  14  19
HETATM   19  O2  UNL     1      27.046   2.908  51.145  1.00  0.00    -0.353 OA
HETATM   20  C8  UNL     1      26.620   3.524  49.958  1.00  0.00     0.210 C 
ENDBRANCH  14  19
ENDBRANCH   1   6
BRANCH   1  21
HETATM   21  N3  UNL     1      20.175   0.522  54.906  1.00  0.00     0.115 N 
HETATM   22  H12 UNL     1      20.737  -0.073  55.550  1.00  0.00     0.317 HD
HETATM   23  H13 UNL     1      19.191   0.184  54.892  1.00  0.00     0.317 HD
ENDBRANCH   1  21
BRANCH   4  24
HETATM   24  C16 UNL     1      19.125   2.489  50.835  1.00  0.00     0.219 C 
HETATM   25 CL1  UNL     1      17.921   3.460  51.696  1.00  0.00    -0.097 Cl
BRANCH  24  26
HETATM   26  N4  UNL     1      20.170   3.296  50.246  1.00  0.00    -0.336 N 
HETATM   27  C17 UNL     1      20.391   4.584  50.571  1.00  0.00     0.093 A 
HETATM   28  C18 UNL     1      21.454   5.059  49.832  1.00  0.00     0.019 A 
HETATM   29  C19 UNL     1      21.826   3.971  49.070  1.00  0.00     0.029 A 
HETATM   30  C20 UNL     1      21.029   2.852  49.316  1.00  0.00     0.041 A 
BRANCH  30  31
HETATM   31  C21 UNL     1      21.183   1.551  48.661  1.00  0.00     0.279 C 
HETATM   32  F1  UNL     1      21.795   0.588  49.467  1.00  0.00    -0.249 F 
ENDBRANCH  30  31
ENDBRANCH  24  26
ENDBRANCH   4  24
TORSDOF 7
ENDMDL
MODEL 3
REMARK VINA RESULT:      -8.2      3.581      7.303
REMARK  7 active torsions:
REMARK  status: ('A' for Active; 'I' for Inactive)
REMARK    1  A    between atoms: C5_6  and  O1_7 
REMARK    2  A    between atoms: C7_9  and  O2_10 
REMARK    3  A    between atoms: N2_15  and  C12_16 
REMARK    4  A    between atoms: C12_16  and  N3_17 
REMARK    5  A    between atoms: C15_20  and  C16_21 
REMARK    6  A    between atoms: C16_21  and  N4_23 
REMARK    7  A    between atoms: C20_27  and  C21_28 
ROOT
HETATM    1  C12 UNL     1      23.225   3.407  49.993  1.00  0.00     0.272 A 
HETATM    2  C13 UNL     1      22.925   4.801  50.361  1.00  0.00     0.042 A 
HETATM    3  C14 UNL     1      21.751   4.919  51.005  1.00  0.00     0.011 A 
HETATM    4  C15 UNL     1      21.187   3.575  51.105  1.00  0.00    -0.020 A 
HETATM    5  C22 UNL     1      22.013   2.712  50.536  1.00  0.00     0.051 A 
ENDROOT
BRANCH   1   6
HETATM    6  N2  UNL     1      24.431   2.882  50.597  1.00  0.00    -0.302 N 
HETATM    7  C2  UNL     1      25.782   3.173  50.374  1.00  0.00     0.109 A 
HETATM    8  C1  UNL     1      25.976   4.087  49.441  1.00  0.00     0.086 C 
HETATM    9  N1  UNL     1      26.756   2.482  51.145  1.00  0.00    -0.234 NA
HETATM   10  C3  UNL     1      26.422   1.605  52.033  1.00  0.00     0.073 A 
HETATM   11  C4  UNL     1      27.452   0.999  52.720  1.00  0.00     0.072 A 
HETATM   12  C10 UNL     1      25.096   1.293  52.279  1.00  0.00     0.011 A 
HETATM   13  C5  UNL     1      27.194   0.050  53.688  1.00  0.00     0.103 A 
HETATM   14  C7  UNL     1      25.882  -0.280  53.954  1.00  0.00     0.102 A 
HETATM   15  C9  UNL     1      24.859   0.342  53.251  1.00  0.00     0.054 A 
HETATM   16  C11 UNL     1      24.114   1.895  51.601  1.00  0.00     0.109 A 
BRANCH  13  17
HETATM   17  O1  UNL     1      28.204  -0.572  54.389  1.00  0.00    -0.353 OA
HETATM   18  C6  UNL     1      29.440  -0.937  53.828  1.00  0.00     0.210 C 
ENDBRANCH  13  17
BRANCH  14  19
HETATM   19  O2  UNL     1      25.638  -1.224  54.918  1.00  0.00    -0.353 OA
HETATM   20  C8  UNL     1      24.502  -1.308  55.738  1.00  0.00     0.210 C 
ENDBRANCH  14  19
ENDBRANCH   1   6
BRANCH   1  21
HETATM   21  N3  UNL     1      23.232   3.259  48.571  1.00  0.00     0.115 N 
HETATM   22  H12 UNL     1      22.801   2.342  48.327  1.00  0.00     0.317 HD
HETATM   23  H13 UNL     1      24.201   3.298  48.194  1.00  0.00     0.317 HD
ENDBRANCH   1  21
BRANCH   4  24
HETATM   24  C16 UNL     1      19.875   3.347  51.775  1.00  0.00     0.219 C 
HETATM   25 CL1  UNL     1      18.699   4.355  50.917  1.00  0.00    -0.097 Cl
BRANCH  24  26
HETATM   26  N4  UNL     1      19.517   1.947  51.764  1.00  0.00    -0.336 N 
HETATM   27  C17 UNL     1      18.661   1.402  50.878  1.00  0.00     0.093 A 
HETATM   28  C18 UNL     1      18.538   0.054  51.142  1.00  0.00     0.019 A 
HETATM   29  C19 UNL     1      19.369  -0.138  52.224  1.00  0.00     0.029 A 
HETATM   30  C20 UNL     1      19.995   1.041  52.631  1.00  0.00     0.041 A 
BRANCH  30  31
HETATM   31  C21 UNL     1      20.933   1.152  53.750  1.00  0.00     0.279 C 
HETATM   32  F1  UNL     1      20.905   0.055  54.614  1.00  0.00    -0.249 F 
ENDBRANCH  30  31
ENDBRANCH  24  26
ENDBRANCH   4  24
TORSDOF 7
ENDMDL
MODEL 4
REMARK VINA RESULT:      -7.9      3.701      7.528
REMARK  7 active torsions:
REMARK  status: ('A' for Active; 'I' for Inactive)
REMARK    1  A    between atoms: C5_6  and  O1_7 
REMARK    2  A    between atoms: C7_9  and  O2_10 
REMARK    3  A    between atoms: N2_15  and  C12_16 
REMARK    4  A    between atoms: C12_16  and  N3_17 
REMARK    5  A    between atoms: C15_20  and  C16_21 
REMARK    6  A    between atoms: C16_21  and  N4_23 
REMARK    7  A    between atoms: C20_27  and  C21_28 
ROOT
HETATM    1  C12 UNL     1      23.909   4.720  51.115  1.00  0.00     0.272 A 
HETATM    2  C13 UNL     1      22.802   4.659  52.084  1.00  0.00     0.042 A 
HETATM    3  C14 UNL     1      21.607   4.507  51.487  1.00  0.00     0.011 A 
HETATM    4  C15 UNL     1      21.857   4.458  50.048  1.00  0.00    -0.020 A 
HETATM    5  C22 UNL     1      23.155   4.578  49.827  1.00  0.00     0.051 A 
ENDROOT
BRANCH   1   6
HETATM    6  N2  UNL     1      24.883   3.659  51.260  1.00  0.00    -0.302 N 
HETATM    7  C2  UNL     1      26.042   3.358  50.536  1.00  0.00     0.109 A 
HETATM    8  C1  UNL     1      26.275   4.198  49.544  1.00  0.00     0.086 C 
HETATM    9  N1  UNL     1      26.811   2.230  50.932  1.00  0.00    -0.234 NA
HETATM   10  C3  UNL     1      26.463   1.490  51.933  1.00  0.00     0.073 A 
HETATM   11  C4  UNL     1      27.286   0.423  52.226  1.00  0.00     0.072 A 
HETATM   12  C10 UNL     1      25.323   1.758  52.671  1.00  0.00     0.011 A 
HETATM   13  C5  UNL     1      26.998  -0.424  53.277  1.00  0.00     0.103 A 
HETATM   14  C7  UNL     1      25.868  -0.180  54.028  1.00  0.00     0.102 A 
HETATM   15  C9  UNL     1      25.053   0.899  53.717  1.00  0.00     0.054 A 
HETATM   16  C11 UNL     1      24.541   2.799  52.368  1.00  0.00     0.109 A 
BRANCH  13  17
HETATM   17  O1  UNL     1      27.802  -1.498  53.591  1.00  0.00    -0.353 OA
HETATM   18  C6  UNL     1      29.196  -1.517  53.404  1.00  0.00     0.210 C 
ENDBRANCH  13  17
BRANCH  14  19
HETATM   19  O2  UNL     1      25.592  -1.028  55.070  1.00  0.00    -0.353 OA
HETATM   20  C8  UNL     1      24.326  -1.309  55.607  1.00  0.00     0.210 C 
ENDBRANCH  14  19
ENDBRANCH   1   6
BRANCH   1  21
HETATM   21  N3  UNL     1      24.521   6.013  51.140  1.00  0.00     0.115 N 
HETATM   22  H12 UNL     1      24.935   6.206  50.204  1.00  0.00     0.317 HD
HETATM   23  H13 UNL     1      25.265   6.062  51.866  1.00  0.00     0.317 HD
ENDBRANCH   1  21
BRANCH   4  24
HETATM   24  C16 UNL     1      20.731   4.292  49.085  1.00  0.00     0.219 C 
HETATM   25 CL1  UNL     1      21.468   4.131  47.484  1.00  0.00    -0.097 Cl
BRANCH  24  26
HETATM   26  N4  UNL     1      19.907   3.156  49.433  1.00  0.00    -0.336 N 
HETATM   27  C17 UNL     1      18.636   3.260  49.867  1.00  0.00     0.093 A 
HETATM   28  C18 UNL     1      18.139   1.997  50.110  1.00  0.00     0.019 A 
HETATM   29  C19 UNL     1      19.194   1.170  49.790  1.00  0.00     0.029 A 
HETATM   30  C20 UNL     1      20.317   1.880  49.362  1.00  0.00     0.041 A 
BRANCH  30  31
HETATM   31  C21 UNL     1      21.588   1.277  48.955  1.00  0.00     0.279 C 
HETATM   32  F1  UNL     1      22.548   1.258  49.969  1.00  0.00    -0.249 F 
ENDBRANCH  30  31
ENDBRANCH  24  26
ENDBRANCH   4  24
TORSDOF 7
ENDMDL
MODEL 5
REMARK VINA RESULT:      -7.9      4.245      7.654
REMARK  7 active torsions:
REMARK  status: ('A' for Active; 'I' for Inactive)
REMARK    1  A    between atoms: C5_6  and  O1_7 
REMARK    2  A    between atoms: C7_9  and  O2_10 
REMARK    3  A    between atoms: N2_15  and  C12_16 
REMARK    4  A    between atoms: C12_16  and  N3_17 
REMARK    5  A    between atoms: C15_20  and  C16_21 
REMARK    6  A    between atoms: C16_21  and  N4_23 
REMARK    7  A    between atoms: C20_27  and  C21_28 
ROOT
HETATM    1  C12 UNL     1      23.533   4.869  51.463  1.00  0.00     0.272 A 
HETATM    2  C13 UNL     1      22.341   4.569  52.273  1.00  0.00     0.042 A 
HETATM    3  C14 UNL     1      21.213   4.565  51.541  1.00  0.00     0.011 A 
HETATM    4  C15 UNL     1      21.601   4.870  50.166  1.00  0.00    -0.020 A 
HETATM    5  C22 UNL     1      22.911   5.044  50.111  1.00  0.00     0.051 A 
ENDROOT
BRANCH   1   6
HETATM    6  N2  UNL     1      24.517   3.808  51.442  1.00  0.00    -0.302 N 
HETATM    7  C2  UNL     1      25.626   3.586  50.618  1.00  0.00     0.109 A 
HETATM    8  C1  UNL     1      25.789   4.517  49.695  1.00  0.00     0.086 C 
HETATM    9  N1  UNL     1      26.422   2.433  50.854  1.00  0.00    -0.234 NA
HETATM   10  C3  UNL     1      26.145   1.600  51.801  1.00  0.00     0.073 A 
HETATM   11  C4  UNL     1      26.988   0.517  51.938  1.00  0.00     0.072 A 
HETATM   12  C10 UNL     1      25.056   1.787  52.636  1.00  0.00     0.011 A 
HETATM   13  C5  UNL     1      26.773  -0.428  52.921  1.00  0.00     0.103 A 
HETATM   14  C7  UNL     1      25.696  -0.265  53.765  1.00  0.00     0.102 A 
HETATM   15  C9  UNL     1      24.859   0.831  53.612  1.00  0.00     0.054 A 
HETATM   16  C11 UNL     1      24.253   2.845  52.485  1.00  0.00     0.109 A 
BRANCH  13  17
HETATM   17  O1  UNL     1      27.599  -1.519  53.078  1.00  0.00    -0.353 OA
HETATM   18  C6  UNL     1      28.974  -1.429  53.359  1.00  0.00     0.210 C 
ENDBRANCH  13  17
BRANCH  14  19
HETATM   19  O2  UNL     1      25.493  -1.209  54.739  1.00  0.00    -0.353 OA
HETATM   20  C8  UNL     1      24.447  -1.234  55.675  1.00  0.00     0.210 C 
ENDBRANCH  14  19
ENDBRANCH   1   6
BRANCH   1  21
HETATM   21  N3  UNL     1      24.104   6.118  51.862  1.00  0.00     0.115 N 
HETATM   22  H12 UNL     1      23.857   6.297  52.858  1.00  0.00     0.317 HD
HETATM   23  H13 UNL     1      23.752   6.899  51.271  1.00  0.00     0.317 HD
ENDBRANCH   1  21
BRANCH   4  24
HETATM   24  C16 UNL     1      20.578   4.941  49.084  1.00  0.00     0.219 C 
HETATM   25 CL1  UNL     1      19.947   6.594  49.106  1.00  0.00    -0.097 Cl
BRANCH  24  26
HETATM   26  N4  UNL     1      21.143   4.580  47.803  1.00  0.00    -0.336 N 
HETATM   27  C17 UNL     1      21.393   5.467  46.821  1.00  0.00     0.093 A 
HETATM   28  C18 UNL     1      21.927   4.801  45.738  1.00  0.00     0.019 A 
HETATM   29  C19 UNL     1      21.968   3.489  46.157  1.00  0.00     0.029 A 
HETATM   30  C20 UNL     1      21.479   3.329  47.454  1.00  0.00     0.041 A 
BRANCH  30  31
HETATM   31  C21 UNL     1      21.397   2.054  48.170  1.00  0.00     0.279 C 
HETATM   32  F1  UNL     1      22.447   1.848  49.068  1.00  0.00    -0.249 F 
ENDBRANCH  30  31
ENDBRANCH  24  26
ENDBRANCH   4  24
TORSDOF 7
ENDMDL
MODEL 6
REMARK VINA RESULT:      -7.8      3.863      7.596
REMARK  7 active torsions:
REMARK  status: ('A' for Active; 'I' for Inactive)
REMARK    1  A    between atoms: C5_6  and  O1_7 
REMARK    2  A    between atoms: C7_9  and  O2_10 
REMARK    3  A    between atoms: N2_15  and  C12_16 
REMARK    4  A    between atoms: C12_16  and  N3_17 
REMARK    5  A    between atoms: C15_20  and  C16_21 
REMARK    6  A    between atoms: C16_21  and  N4_23 
REMARK    7  A    between atoms: C20_27  and  C21_28 
ROOT
HETATM    1  C12 UNL     1      21.159   1.277  52.125  1.00  0.00     0.272 A 
HETATM    2  C13 UNL     1      20.648   0.598  50.922  1.00  0.00     0.042 A 
HETATM    3  C14 UNL     1      20.710   1.379  49.830  1.00  0.00     0.011 A 
HETATM    4  C15 UNL     1      21.279   2.656  50.254  1.00  0.00    -0.020 A 
HETATM    5  C22 UNL     1      21.537   2.609  51.551  1.00  0.00     0.051 A 
ENDROOT
BRANCH   1   6
HETATM    6  N2  UNL     1      22.307   0.632  52.726  1.00  0.00    -0.302 N 
HETATM    7  C2  UNL     1      22.416  -0.515  53.521  1.00  0.00     0.109 A 
HETATM    8  C1  UNL     1      21.257  -1.101  53.761  1.00  0.00     0.086 C 
HETATM    9  N1  UNL     1      23.709  -0.908  53.963  1.00  0.00    -0.234 NA
HETATM   10  C3  UNL     1      24.766  -0.236  53.649  1.00  0.00     0.073 A 
HETATM   11  C4  UNL     1      25.967  -0.711  54.134  1.00  0.00     0.072 A 
HETATM   12  C10 UNL     1      24.695   0.903  52.865  1.00  0.00     0.011 A 
HETATM   13  C5  UNL     1      27.151  -0.061  53.852  1.00  0.00     0.103 A 
HETATM   14  C7  UNL     1      27.108   1.075  53.073  1.00  0.00     0.102 A 
HETATM   15  C9  UNL     1      25.891   1.538  52.594  1.00  0.00     0.054 A 
HETATM   16  C11 UNL     1      23.521   1.345  52.405  1.00  0.00     0.109 A 
BRANCH  13  17
HETATM   17  O1  UNL     1      28.363  -0.515  54.324  1.00  0.00    -0.353 OA
HETATM   18  C6  UNL     1      29.263  -1.285  53.566  1.00  0.00     0.210 C 
ENDBRANCH  13  17
BRANCH  14  19
HETATM   19  O2  UNL     1      28.291   1.713  52.799  1.00  0.00    -0.353 OA
HETATM   20  C8  UNL     1      29.023   2.532  53.673  1.00  0.00     0.210 C 
ENDBRANCH  14  19
ENDBRANCH   1   6
BRANCH   1  21
HETATM   21  N3  UNL     1      20.103   1.475  53.069  1.00  0.00     0.115 N 
HETATM   22  H12 UNL     1      19.831   2.481  53.063  1.00  0.00     0.317 HD
HETATM   23  H13 UNL     1      20.400   1.201  54.028  1.00  0.00     0.317 HD
ENDBRANCH   1  21
BRANCH   4  24
HETATM   24  C16 UNL     1      21.489   3.760  49.274  1.00  0.00     0.219 C 
HETATM   25 CL1  UNL     1      19.877   4.295  48.778  1.00  0.00    -0.097 Cl
BRANCH  24  26
HETATM   26  N4  UNL     1      22.276   4.828  49.849  1.00  0.00    -0.336 N 
HETATM   27  C17 UNL     1      21.745   5.867  50.522  1.00  0.00     0.093 A 
HETATM   28  C18 UNL     1      22.762   6.702  50.935  1.00  0.00     0.019 A 
HETATM   29  C19 UNL     1      23.898   6.083  50.461  1.00  0.00     0.029 A 
HETATM   30  C20 UNL     1      23.613   4.901  49.774  1.00  0.00     0.041 A 
BRANCH  30  31
HETATM   31  C21 UNL     1      24.613   4.025  49.158  1.00  0.00     0.279 C 
HETATM   32  F1  UNL     1      24.686   2.761  49.746  1.00  0.00    -0.249 F 
ENDBRANCH  30  31
ENDBRANCH  24  26
ENDBRANCH   4  24
TORSDOF 7
ENDMDL
MODEL 7
REMARK VINA RESULT:      -7.7      2.661      5.075
REMARK  7 active torsions:
REMARK  status: ('A' for Active; 'I' for Inactive)
REMARK    1  A    between atoms: C5_6  and  O1_7 
REMARK    2  A    between atoms: C7_9  and  O2_10 
REMARK    3  A    between atoms: N2_15  and  C12_16 
REMARK    4  A    between atoms: C12_16  and  N3_17 
REMARK    5  A    between atoms: C15_20  and  C16_21 
REMARK    6  A    between atoms: C16_21  and  N4_23 
REMARK    7  A    between atoms: C20_27  and  C21_28 
ROOT
HETATM    1  C12 UNL     1      24.861   0.251  53.145  1.00  0.00     0.272 A 
HETATM    2  C13 UNL     1      25.404   1.294  54.031  1.00  0.00     0.042 A 
HETATM    3  C14 UNL     1      25.629   2.450  53.384  1.00  0.00     0.011 A 
HETATM    4  C15 UNL     1      25.240   2.237  51.992  1.00  0.00    -0.020 A 
HETATM    5  C22 UNL     1      24.805   0.997  51.846  1.00  0.00     0.051 A 
ENDROOT
BRANCH   1   6
HETATM    6  N2  UNL     1      23.547  -0.223  53.523  1.00  0.00    -0.302 N 
HETATM    7  C2  UNL     1      23.114  -0.987  54.612  1.00  0.00     0.109 A 
HETATM    8  C1  UNL     1      24.090  -1.335  55.431  1.00  0.00     0.086 C 
HETATM    9  N1  UNL     1      21.730  -1.292  54.714  1.00  0.00    -0.234 NA
HETATM   10  C3  UNL     1      20.878  -0.882  53.834  1.00  0.00     0.073 A 
HETATM   11  C4  UNL     1      19.561  -1.237  54.036  1.00  0.00     0.072 A 
HETATM   12  C10 UNL     1      21.271  -0.124  52.744  1.00  0.00     0.011 A 
HETATM   13  C5  UNL     1      18.578  -0.845  53.150  1.00  0.00     0.103 A 
HETATM   14  C7  UNL     1      18.942  -0.089  52.056  1.00  0.00     0.102 A 
HETATM   15  C9  UNL     1      20.273   0.258  51.870  1.00  0.00     0.054 A 
HETATM   16  C11 UNL     1      22.553   0.209  52.569  1.00  0.00     0.109 A 
BRANCH  13  17
HETATM   17  O1  UNL     1      17.256  -1.187  53.328  1.00  0.00    -0.353 OA
HETATM   18  C6  UNL     1      16.706  -2.425  52.952  1.00  0.00     0.210 C 
ENDBRANCH  13  17
BRANCH  14  19
HETATM   19  O2  UNL     1      17.957   0.294  51.182  1.00  0.00    -0.353 OA
HETATM   20  C8  UNL     1      17.279   1.523  51.174  1.00  0.00     0.210 C 
ENDBRANCH  14  19
ENDBRANCH   1   6
BRANCH   1  21
HETATM   21  N3  UNL     1      25.797  -0.822  53.010  1.00  0.00     0.115 N 
HETATM   22  H12 UNL     1      25.433  -1.651  53.525  1.00  0.00     0.317 HD
HETATM   23  H13 UNL     1      26.729  -0.558  53.391  1.00  0.00     0.317 HD
ENDBRANCH   1  21
BRANCH   4  24
HETATM   24  C16 UNL     1      25.363   3.335  50.990  1.00  0.00     0.219 C 
HETATM   25 CL1  UNL     1      26.643   2.842  49.870  1.00  0.00    -0.097 Cl
BRANCH  24  26
HETATM   26  N4  UNL     1      24.104   3.577  50.321  1.00  0.00    -0.336 N 
HETATM   27  C17 UNL     1      23.775   3.040  49.131  1.00  0.00     0.093 A 
HETATM   28  C18 UNL     1      22.514   3.470  48.776  1.00  0.00     0.019 A 
HETATM   29  C19 UNL     1      22.144   4.280  49.828  1.00  0.00     0.029 A 
HETATM   30  C20 UNL     1      23.131   4.360  50.811  1.00  0.00     0.041 A 
BRANCH  30  31
HETATM   31  C21 UNL     1      23.027   5.142  52.045  1.00  0.00     0.279 C 
HETATM   32  F1  UNL     1      23.952   6.185  52.126  1.00  0.00    -0.249 F 
ENDBRANCH  30  31
ENDBRANCH  24  26
ENDBRANCH   4  24
TORSDOF 7
ENDMDL
MODEL 8
REMARK VINA RESULT:      -7.6      4.198      7.191
REMARK  7 active torsions:
REMARK  status: ('A' for Active; 'I' for Inactive)
REMARK    1  A    between atoms: C5_6  and  O1_7 
REMARK    2  A    between atoms: C7_9  and  O2_10 
REMARK    3  A    between atoms: N2_15  and  C12_16 
REMARK    4  A    between atoms: C12_16  and  N3_17 
REMARK    5  A    between atoms: C15_20  and  C16_21 
REMARK    6  A    between atoms: C16_21  and  N4_23 
REMARK    7  A    between atoms: C20_27  and  C21_28 
ROOT
HETATM    1  C12 UNL     1      22.293   3.637  51.401  1.00  0.00     0.272 A 
HETATM    2  C13 UNL     1      21.812   3.548  50.012  1.00  0.00     0.042 A 
HETATM    3  C14 UNL     1      22.385   4.464  49.213  1.00  0.00     0.011 A 
HETATM    4  C15 UNL     1      23.303   5.236  50.046  1.00  0.00    -0.020 A 
HETATM    5  C22 UNL     1      23.259   4.777  51.285  1.00  0.00     0.051 A 
ENDROOT
BRANCH   1   6
HETATM    6  N2  UNL     1      22.961   2.443  51.874  1.00  0.00    -0.302 N 
HETATM    7  C2  UNL     1      22.472   1.170  52.192  1.00  0.00     0.109 A 
HETATM    8  C1  UNL     1      21.167   1.053  52.031  1.00  0.00     0.086 C 
HETATM    9  N1  UNL     1      23.396   0.185  52.633  1.00  0.00    -0.234 NA
HETATM   10  C3  UNL     1      24.658   0.439  52.743  1.00  0.00     0.073 A 
HETATM   11  C4  UNL     1      25.460  -0.595  53.180  1.00  0.00     0.072 A 
HETATM   12  C10 UNL     1      25.176   1.686  52.438  1.00  0.00     0.011 A 
HETATM   13  C5  UNL     1      26.821  -0.420  53.329  1.00  0.00     0.103 A 
HETATM   14  C7  UNL     1      27.362   0.812  53.032  1.00  0.00     0.102 A 
HETATM   15  C9  UNL     1      26.539   1.840  52.594  1.00  0.00     0.054 A 
HETATM   16  C11 UNL     1      24.379   2.672  52.016  1.00  0.00     0.109 A 
BRANCH  13  17
HETATM   17  O1  UNL     1      27.644  -1.435  53.764  1.00  0.00    -0.353 OA
HETATM   18  C6  UNL     1      28.068  -2.504  52.955  1.00  0.00     0.210 C 
ENDBRANCH  13  17
BRANCH  14  19
HETATM   19  O2  UNL     1      28.715   0.974  53.184  1.00  0.00    -0.353 OA
HETATM   20  C8  UNL     1      29.385   1.361  54.355  1.00  0.00     0.210 C 
ENDBRANCH  14  19
ENDBRANCH   1   6
BRANCH   1  21
HETATM   21  N3  UNL     1      21.228   4.033  52.271  1.00  0.00     0.115 N 
HETATM   22  H12 UNL     1      21.084   3.288  52.985  1.00  0.00     0.317 HD
HETATM   23  H13 UNL     1      20.345   4.181  51.741  1.00  0.00     0.317 HD
ENDBRANCH   1  21
BRANCH   4  24
HETATM   24  C16 UNL     1      24.111   6.346  49.463  1.00  0.00     0.219 C 
HETATM   25 CL1  UNL     1      24.110   7.644  50.665  1.00  0.00    -0.097 Cl
BRANCH  24  26
HETATM   26  N4  UNL     1      25.446   5.902  49.127  1.00  0.00    -0.336 N 
HETATM   27  C17 UNL     1      25.960   4.720  49.519  1.00  0.00     0.093 A 
HETATM   28  C18 UNL     1      27.246   4.607  49.035  1.00  0.00     0.019 A 
HETATM   29  C19 UNL     1      27.435   5.786  48.347  1.00  0.00     0.029 A 
HETATM   30  C20 UNL     1      26.313   6.615  48.394  1.00  0.00     0.041 A 
BRANCH  30  31
HETATM   31  C21 UNL     1      26.213   7.931  47.757  1.00  0.00     0.279 C 
HETATM   32  F1  UNL     1      27.159   8.138  46.751  1.00  0.00    -0.249 F 
ENDBRANCH  30  31
ENDBRANCH  24  26
ENDBRANCH   4  24
TORSDOF 7
ENDMDL
MODEL 9
REMARK VINA RESULT:      -7.6      5.046      7.527
REMARK  7 active torsions:
REMARK  status: ('A' for Active; 'I' for Inactive)
REMARK    1  A    between atoms: C5_6  and  O1_7 
REMARK    2  A    between atoms: C7_9  and  O2_10 
REMARK    3  A    between atoms: N2_15  and  C12_16 
REMARK    4  A    between atoms: C12_16  and  N3_17 
REMARK    5  A    between atoms: C15_20  and  C16_21 
REMARK    6  A    between atoms: C16_21  and  N4_23 
REMARK    7  A    between atoms: C20_27  and  C21_28 
ROOT
HETATM    1  C12 UNL     1      24.443   5.312  50.213  1.00  0.00     0.272 A 
HETATM    2  C13 UNL     1      24.069   5.419  48.793  1.00  0.00     0.042 A 
HETATM    3  C14 UNL     1      24.636   6.479  48.193  1.00  0.00     0.011 A 
HETATM    4  C15 UNL     1      25.440   7.158  49.206  1.00  0.00    -0.020 A 
HETATM    5  C22 UNL     1      25.338   6.507  50.352  1.00  0.00     0.051 A 
ENDROOT
BRANCH   1   6
HETATM    6  N2  UNL     1      25.153   4.097  50.549  1.00  0.00    -0.302 N 
HETATM    7  C2  UNL     1      26.372   3.579  50.097  1.00  0.00     0.109 A 
HETATM    8  C1  UNL     1      26.968   4.344  49.201  1.00  0.00     0.086 C 
HETATM    9  N1  UNL     1      26.817   2.339  50.630  1.00  0.00    -0.234 NA
HETATM   10  C3  UNL     1      26.127   1.692  51.511  1.00  0.00     0.073 A 
HETATM   11  C4  UNL     1      26.658   0.500  51.957  1.00  0.00     0.072 A 
HETATM   12  C10 UNL     1      24.917   2.175  51.980  1.00  0.00     0.011 A 
HETATM   13  C5  UNL     1      25.994  -0.261  52.898  1.00  0.00     0.103 A 
HETATM   14  C7  UNL     1      24.787   0.196  53.382  1.00  0.00     0.102 A 
HETATM   15  C9  UNL     1      24.270   1.398  52.920  1.00  0.00     0.054 A 
HETATM   16  C11 UNL     1      24.423   3.333  51.533  1.00  0.00     0.109 A 
BRANCH  13  17
HETATM   17  O1  UNL     1      26.502  -1.456  53.360  1.00  0.00    -0.353 OA
HETATM   18  C6  UNL     1      27.216  -2.367  52.563  1.00  0.00     0.210 C 
ENDBRANCH  13  17
BRANCH  14  19
HETATM   19  O2  UNL     1      24.137  -0.569  54.316  1.00  0.00    -0.353 OA
HETATM   20  C8  UNL     1      22.767  -0.872  54.342  1.00  0.00     0.210 C 
ENDBRANCH  14  19
ENDBRANCH   1   6
BRANCH   1  21
HETATM   21  N3  UNL     1      23.296   5.508  51.045  1.00  0.00     0.115 N 
HETATM   22  H12 UNL     1      23.578   6.058  51.883  1.00  0.00     0.317 HD
HETATM   23  H13 UNL     1      22.892   4.598  51.348  1.00  0.00     0.317 HD
ENDBRANCH   1  21
BRANCH   4  24
HETATM   24  C16 UNL     1      26.213   8.388  48.867  1.00  0.00     0.219 C 
HETATM   25 CL1  UNL     1      26.775   9.059  50.406  1.00  0.00    -0.097 Cl
BRANCH  24  26
HETATM   26  N4  UNL     1      27.300   8.091  47.962  1.00  0.00    -0.336 N 
HETATM   27  C17 UNL     1      28.463   7.533  48.349  1.00  0.00     0.093 A 
HETATM   28  C18 UNL     1      29.280   7.385  47.248  1.00  0.00     0.019 A 
HETATM   29  C19 UNL     1      28.519   7.888  46.214  1.00  0.00     0.029 A 
HETATM   30  C20 UNL     1      27.269   8.338  46.643  1.00  0.00     0.041 A 
BRANCH  30  31
HETATM   31  C21 UNL     1      26.243   8.922  45.776  1.00  0.00     0.279 C 
HETATM   32  F1  UNL     1      25.343   7.984  45.266  1.00  0.00    -0.249 F 
ENDBRANCH  30  31
ENDBRANCH  24  26
ENDBRANCH   4  24
TORSDOF 7
ENDMDL
