MODEL 1
REMARK VINA RESULT:      -7.6      0.000      0.000
REMARK  6 active torsions:
REMARK  status: ('A' for Active; 'I' for Inactive)
REMARK    1  A    between atoms: N1_1  and  N2_2 
REMARK    2  A    between atoms: N2_2  and  C1_3 
REMARK    3  A    between atoms: C4_8  and  C5_9 
REMARK    4  A    between atoms: C8_12  and  O1_13 
REMARK    5  A    between atoms: O1_13  and  C9_14 
REMARK    6  A    between atoms: C9_14  and  C10_15 
ROOT
HETATM    1  C5  UNL     1      26.128   0.191  53.690  1.00  0.00    -0.006 A 
HETATM    2  C6  UNL     1      26.022   0.906  52.515  1.00  0.00     0.014 A 
HETATM    3  C7  UNL     1      24.866   1.147  51.817  1.00  0.00     0.037 A 
HETATM    4  C8  UNL     1      23.692   0.617  52.350  1.00  0.00     0.070 A 
HETATM    5  C14 UNL     1      23.755  -0.101  53.519  1.00  0.00     0.061 A 
HETATM    6  C15 UNL     1      24.946  -0.318  54.188  1.00  0.00     0.045 A 
HETATM    7 CL1  UNL     1      24.976  -1.239  55.674  1.00  0.00    -0.084 Cl
ENDROOT
BRANCH   1   8
HETATM    8  C4  UNL     1      27.446   0.002  54.347  1.00  0.00     0.197 C 
HETATM    9  C1  UNL     1      28.402  -0.781  53.538  1.00  0.00     0.067 C 
HETATM   10  C2  UNL     1      29.582  -0.215  53.238  1.00  0.00     0.147 C 
HETATM   11  N3  UNL     1      29.889   1.091  53.689  1.00  0.00    -0.236 NA
HETATM   12  C3  UNL     1      29.185   1.630  54.590  1.00  0.00     0.193 C 
HETATM   13  N4  UNL     1      27.995   1.266  54.791  1.00  0.00    -0.252 NA
BRANCH   9  14
HETATM   14  N2  UNL     1      27.966  -2.079  53.152  1.00  0.00    -0.324 N 
HETATM   15  H3  UNL     1      27.005  -1.826  52.835  1.00  0.00     0.180 HD
BRANCH  14  16
HETATM   16  N1  UNL     1      28.353  -3.414  53.067  1.00  0.00    -0.250 NA
HETATM   17  H1  UNL     1      28.803  -3.678  53.988  1.00  0.00     0.143 HD
HETATM   18  H2  UNL     1      29.133  -3.523  52.358  1.00  0.00     0.143 HD
ENDBRANCH  14  16
ENDBRANCH   9  14
ENDBRANCH   1   8
BRANCH   4  19
HETATM   19  O1  UNL     1      22.535   0.875  51.625  1.00  0.00    -0.345 OA
BRANCH  19  20
HETATM   20  C9  UNL     1      21.475   1.545  52.269  1.00  0.00     0.240 C 
BRANCH  20  21
HETATM   21  C10 UNL     1      20.282   0.661  52.379  1.00  0.00     0.076 A 
HETATM   22  C11 UNL     1      19.276   0.569  51.415  1.00  0.00     0.037 A 
HETATM   23  C12 UNL     1      18.403  -0.357  51.949  1.00  0.00     0.027 A 
HETATM   24  C13 UNL     1      18.882  -0.784  53.172  1.00  0.00     0.142 A 
HETATM   25  O2  UNL     1      19.996  -0.142  53.367  1.00  0.00    -0.325 OA
ENDBRANCH  20  21
ENDBRANCH  19  20
ENDBRANCH   4  19
TORSDOF 6
ENDMDL
MODEL 2
REMARK VINA RESULT:      -7.5      3.939      6.454
REMARK  6 active torsions:
REMARK  status: ('A' for Active; 'I' for Inactive)
REMARK    1  A    between atoms: N1_1  and  N2_2 
REMARK    2  A    between atoms: N2_2  and  C1_3 
REMARK    3  A    between atoms: C4_8  and  C5_9 
REMARK    4  A    between atoms: C8_12  and  O1_13 
REMARK    5  A    between atoms: O1_13  and  C9_14 
REMARK    6  A    between atoms: C9_14  and  C10_15 
ROOT
HETATM    1  C5  UNL     1      24.270   0.595  52.744  1.00  0.00    -0.006 A 
HETATM    2  C6  UNL     1      23.363   1.625  52.886  1.00  0.00     0.014 A 
HETATM    3  C7  UNL     1      23.499   2.896  52.388  1.00  0.00     0.037 A 
HETATM    4  C8  UNL     1      24.665   3.167  51.674  1.00  0.00     0.070 A 
HETATM    5  C14 UNL     1      25.593   2.168  51.510  1.00  0.00     0.061 A 
HETATM    6  C15 UNL     1      25.412   0.900  52.031  1.00  0.00     0.045 A 
HETATM    7 CL1  UNL     1      26.623  -0.339  51.797  1.00  0.00    -0.084 Cl
ENDROOT
BRANCH   1   8
HETATM    8  C4  UNL     1      24.001  -0.740  53.335  1.00  0.00     0.197 C 
HETATM    9  C1  UNL     1      24.419  -0.856  54.748  1.00  0.00     0.067 C 
HETATM   10  C2  UNL     1      23.489  -1.206  55.651  1.00  0.00     0.147 C 
HETATM   11  N3  UNL     1      22.154  -1.454  55.250  1.00  0.00    -0.236 NA
HETATM   12  C3  UNL     1      21.882  -1.613  54.026  1.00  0.00     0.193 C 
HETATM   13  N4  UNL     1      22.625  -1.137  53.126  1.00  0.00    -0.252 NA
BRANCH   9  14
HETATM   14  N2  UNL     1      25.789  -0.578  55.011  1.00  0.00    -0.324 N 
HETATM   15  H3  UNL     1      26.164  -1.544  54.889  1.00  0.00     0.180 HD
BRANCH  14  16
HETATM   16  N1  UNL     1      26.686   0.435  55.337  1.00  0.00    -0.250 NA
HETATM   17  H1  UNL     1      27.568  -0.020  55.706  1.00  0.00     0.143 HD
HETATM   18  H2  UNL     1      26.321   0.995  56.160  1.00  0.00     0.143 HD
ENDBRANCH  14  16
ENDBRANCH   9  14
ENDBRANCH   1   8
BRANCH   4  19
HETATM   19  O1  UNL     1      24.779   4.460  51.180  1.00  0.00    -0.345 OA
BRANCH  19  20
HETATM   20  C9  UNL     1      24.692   4.658  49.787  1.00  0.00     0.240 C 
BRANCH  20  21
HETATM   21  C10 UNL     1      25.984   5.157  49.244  1.00  0.00     0.076 A 
HETATM   22  C11 UNL     1      27.100   4.354  48.997  1.00  0.00     0.037 A 
HETATM   23  C12 UNL     1      28.035   5.244  48.509  1.00  0.00     0.027 A 
HETATM   24  C13 UNL     1      27.485   6.510  48.474  1.00  0.00     0.142 A 
HETATM   25  O2  UNL     1      26.271   6.389  48.922  1.00  0.00    -0.325 OA
ENDBRANCH  20  21
ENDBRANCH  19  20
ENDBRANCH   4  19
TORSDOF 6
ENDMDL
MODEL 3
REMARK VINA RESULT:      -7.5      7.363      9.280
REMARK  6 active torsions:
REMARK  status: ('A' for Active; 'I' for Inactive)
REMARK    1  A    between atoms: N1_1  and  N2_2 
REMARK    2  A    between atoms: N2_2  and  C1_3 
REMARK    3  A    between atoms: C4_8  and  C5_9 
REMARK    4  A    between atoms: C8_12  and  O1_13 
REMARK    5  A    between atoms: O1_13  and  C9_14 
REMARK    6  A    between atoms: C9_14  and  C10_15 
ROOT
HETATM    1  C5  UNL     1      27.109   7.107  48.475  1.00  0.00    -0.006 A 
HETATM    2  C6  UNL     1      28.061   6.153  48.178  1.00  0.00     0.014 A 
HETATM    3  C7  UNL     1      28.015   4.829  48.533  1.00  0.00     0.037 A 
HETATM    4  C8  UNL     1      26.901   4.414  49.261  1.00  0.00     0.070 A 
HETATM    5  C14 UNL     1      25.931   5.334  49.577  1.00  0.00     0.061 A 
HETATM    6  C15 UNL     1      26.021   6.660  49.197  1.00  0.00     0.045 A 
HETATM    7 CL1  UNL     1      24.760   7.795  49.622  1.00  0.00    -0.084 Cl
ENDROOT
BRANCH   1   8
HETATM    8  C4  UNL     1      27.280   8.514  48.030  1.00  0.00     0.197 C 
HETATM    9  C1  UNL     1      28.421   9.201  48.670  1.00  0.00     0.067 C 
HETATM   10  C2  UNL     1      29.367   9.723  47.873  1.00  0.00     0.147 C 
HETATM   11  N3  UNL     1      29.262   9.614  46.466  1.00  0.00    -0.236 NA
HETATM   12  C3  UNL     1      28.167   9.269  45.939  1.00  0.00     0.193 C 
HETATM   13  N4  UNL     1      27.313   8.605  46.586  1.00  0.00    -0.252 NA
BRANCH   9  14
HETATM   14  N2  UNL     1      28.400   9.238  50.092  1.00  0.00    -0.324 N 
HETATM   15  H3  UNL     1      29.359   8.865  50.266  1.00  0.00     0.180 HD
BRANCH  14  16
HETATM   16  N1  UNL     1      27.617   9.568  51.195  1.00  0.00    -0.250 NA
HETATM   17  H1  UNL     1      28.267   9.746  52.011  1.00  0.00     0.143 HD
HETATM   18  H2  UNL     1      27.044   8.729  51.500  1.00  0.00     0.143 HD
ENDBRANCH  14  16
ENDBRANCH   9  14
ENDBRANCH   1   8
BRANCH   4  19
HETATM   19  O1  UNL     1      26.878   3.069  49.608  1.00  0.00    -0.345 OA
BRANCH  19  20
HETATM   20  C9  UNL     1      26.054   2.665  50.678  1.00  0.00     0.240 C 
BRANCH  20  21
HETATM   21  C10 UNL     1      26.847   1.945  51.712  1.00  0.00     0.076 A 
HETATM   22  C11 UNL     1      26.622   0.622  52.098  1.00  0.00     0.037 A 
HETATM   23  C12 UNL     1      27.585   0.401  53.063  1.00  0.00     0.027 A 
HETATM   24  C13 UNL     1      28.335   1.548  53.229  1.00  0.00     0.142 A 
HETATM   25  O2  UNL     1      27.847   2.423  52.400  1.00  0.00    -0.325 OA
ENDBRANCH  20  21
ENDBRANCH  19  20
ENDBRANCH   4  19
TORSDOF 6
ENDMDL
MODEL 4
REMARK VINA RESULT:      -7.5      1.948      2.801
REMARK  6 active torsions:
REMARK  status: ('A' for Active; 'I' for Inactive)
REMARK    1  A    between atoms: N1_1  and  N2_2 
REMARK    2  A    between atoms: N2_2  and  C1_3 
REMARK    3  A    between atoms: C4_8  and  C5_9 
REMARK    4  A    between atoms: C8_12  and  O1_13 
REMARK    5  A    between atoms: O1_13  and  C9_14 
REMARK    6  A    between atoms: C9_14  and  C10_15 
ROOT
HETATM    1  C5  UNL     1      26.188   0.240  53.676  1.00  0.00    -0.006 A 
HETATM    2  C6  UNL     1      26.121   0.977  52.512  1.00  0.00     0.014 A 
HETATM    3  C7  UNL     1      24.986   1.244  51.789  1.00  0.00     0.037 A 
HETATM    4  C8  UNL     1      23.792   0.717  52.280  1.00  0.00     0.070 A 
HETATM    5  C14 UNL     1      23.817  -0.022  53.438  1.00  0.00     0.061 A 
HETATM    6  C15 UNL     1      24.987  -0.265  54.133  1.00  0.00     0.045 A 
HETATM    7 CL1  UNL     1      24.969  -1.213  55.602  1.00  0.00    -0.084 Cl
ENDROOT
BRANCH   1   8
HETATM    8  C4  UNL     1      27.486   0.025  54.364  1.00  0.00     0.197 C 
HETATM    9  C1  UNL     1      28.435  -0.801  53.589  1.00  0.00     0.067 C 
HETATM   10  C2  UNL     1      29.637  -0.276  53.303  1.00  0.00     0.147 C 
HETATM   11  N3  UNL     1      29.974   1.028  53.737  1.00  0.00    -0.236 NA
HETATM   12  C3  UNL     1      29.267   1.605  54.613  1.00  0.00     0.193 C 
HETATM   13  N4  UNL     1      28.063   1.280  54.796  1.00  0.00    -0.252 NA
BRANCH   9  14
HETATM   14  N2  UNL     1      27.968  -2.093  53.217  1.00  0.00    -0.324 N 
HETATM   15  H3  UNL     1      26.970  -1.846  53.038  1.00  0.00     0.180 HD
BRANCH  14  16
HETATM   16  N1  UNL     1      28.356  -3.417  53.035  1.00  0.00    -0.250 NA
HETATM   17  H1  UNL     1      27.483  -3.989  52.861  1.00  0.00     0.143 HD
HETATM   18  H2  UNL     1      28.745  -3.811  53.940  1.00  0.00     0.143 HD
ENDBRANCH  14  16
ENDBRANCH   9  14
ENDBRANCH   1   8
BRANCH   4  19
HETATM   19  O1  UNL     1      22.658   1.001  51.531  1.00  0.00    -0.345 OA
BRANCH  19  20
HETATM   20  C9  UNL     1      22.334   2.351  51.288  1.00  0.00     0.240 C 
BRANCH  20  21
HETATM   21  C10 UNL     1      22.331   2.638  49.827  1.00  0.00     0.076 A 
HETATM   22  C11 UNL     1      22.088   1.684  48.835  1.00  0.00     0.037 A 
HETATM   23  C12 UNL     1      22.190   2.406  47.664  1.00  0.00     0.027 A 
HETATM   24  C13 UNL     1      22.479   3.723  47.962  1.00  0.00     0.142 A 
HETATM   25  O2  UNL     1      22.550   3.792  49.259  1.00  0.00    -0.325 OA
ENDBRANCH  20  21
ENDBRANCH  19  20
ENDBRANCH   4  19
TORSDOF 6
ENDMDL
MODEL 5
REMARK VINA RESULT:      -7.3      1.794      2.917
REMARK  6 active torsions:
REMARK  status: ('A' for Active; 'I' for Inactive)
REMARK    1  A    between atoms: N1_1  and  N2_2 
REMARK    2  A    between atoms: N2_2  and  C1_3 
REMARK    3  A    between atoms: C4_8  and  C5_9 
REMARK    4  A    between atoms: C8_12  and  O1_13 
REMARK    5  A    between atoms: O1_13  and  C9_14 
REMARK    6  A    between atoms: C9_14  and  C10_15 
ROOT
HETATM    1  C5  UNL     1      25.722  -0.005  52.672  1.00  0.00    -0.006 A 
HETATM    2  C6  UNL     1      25.001  -0.720  53.606  1.00  0.00     0.014 A 
HETATM    3  C7  UNL     1      23.706  -0.476  53.985  1.00  0.00     0.037 A 
HETATM    4  C8  UNL     1      23.063   0.595  53.367  1.00  0.00     0.070 A 
HETATM    5  C14 UNL     1      23.748   1.332  52.431  1.00  0.00     0.061 A 
HETATM    6  C15 UNL     1      25.055   1.048  52.081  1.00  0.00     0.045 A 
HETATM    7 CL1  UNL     1      25.885   2.015  50.884  1.00  0.00    -0.084 Cl
ENDROOT
BRANCH   1   8
HETATM    8  C4  UNL     1      27.125  -0.374  52.351  1.00  0.00     0.197 C 
HETATM    9  C1  UNL     1      28.117   0.228  53.265  1.00  0.00     0.067 C 
HETATM   10  C2  UNL     1      28.944  -0.598  53.927  1.00  0.00     0.147 C 
HETATM   11  N3  UNL     1      28.858  -1.999  53.746  1.00  0.00    -0.236 NA
HETATM   12  C3  UNL     1      28.199  -2.471  52.776  1.00  0.00     0.193 C 
HETATM   13  N4  UNL     1      27.274  -1.809  52.233  1.00  0.00    -0.252 NA
BRANCH   9  14
HETATM   14  N2  UNL     1      28.094   1.648  53.352  1.00  0.00    -0.324 N 
HETATM   15  H3  UNL     1      28.659   1.859  52.501  1.00  0.00     0.180 HD
BRANCH  14  16
HETATM   16  N1  UNL     1      27.623   2.718  54.107  1.00  0.00    -0.250 NA
HETATM   17  H1  UNL     1      27.213   2.327  55.001  1.00  0.00     0.143 HD
HETATM   18  H2  UNL     1      26.797   3.172  53.622  1.00  0.00     0.143 HD
ENDBRANCH  14  16
ENDBRANCH   9  14
ENDBRANCH   1   8
BRANCH   4  19
HETATM   19  O1  UNL     1      21.753   0.821  53.768  1.00  0.00    -0.345 OA
BRANCH  19  20
HETATM   20  C9  UNL     1      20.946  -0.291  54.084  1.00  0.00     0.240 C 
BRANCH  20  21
HETATM   21  C10 UNL     1      19.764  -0.359  53.180  1.00  0.00     0.076 A 
HETATM   22  C11 UNL     1      19.721   0.188  51.895  1.00  0.00     0.037 A 
HETATM   23  C12 UNL     1      18.448  -0.120  51.459  1.00  0.00     0.027 A 
HETATM   24  C13 UNL     1      17.782  -0.814  52.448  1.00  0.00     0.142 A 
HETATM   25  O2  UNL     1      18.616  -0.921  53.440  1.00  0.00    -0.325 OA
ENDBRANCH  20  21
ENDBRANCH  19  20
ENDBRANCH   4  19
TORSDOF 6
ENDMDL
MODEL 6
REMARK VINA RESULT:      -7.2      6.975      9.100
REMARK  6 active torsions:
REMARK  status: ('A' for Active; 'I' for Inactive)
REMARK    1  A    between atoms: N1_1  and  N2_2 
REMARK    2  A    between atoms: N2_2  and  C1_3 
REMARK    3  A    between atoms: C4_8  and  C5_9 
REMARK    4  A    between atoms: C8_12  and  O1_13 
REMARK    5  A    between atoms: O1_13  and  C9_14 
REMARK    6  A    between atoms: C9_14  and  C10_15 
ROOT
HETATM    1  C5  UNL     1      26.279   6.688  48.831  1.00  0.00    -0.006 A 
HETATM    2  C6  UNL     1      27.294   5.851  48.416  1.00  0.00     0.014 A 
HETATM    3  C7  UNL     1      27.474   4.547  48.802  1.00  0.00     0.037 A 
HETATM    4  C8  UNL     1      26.543   4.025  49.698  1.00  0.00     0.070 A 
HETATM    5  C14 UNL     1      25.517   4.827  50.135  1.00  0.00     0.061 A 
HETATM    6  C15 UNL     1      25.376   6.137  49.717  1.00  0.00     0.045 A 
HETATM    7 CL1  UNL     1      24.053   7.120  50.301  1.00  0.00    -0.084 Cl
ENDROOT
BRANCH   1   8
HETATM    8  C4  UNL     1      26.197   8.085  48.334  1.00  0.00     0.197 C 
HETATM    9  C1  UNL     1      27.424   8.871  48.579  1.00  0.00     0.067 C 
HETATM   10  C2  UNL     1      28.035   9.427  47.520  1.00  0.00     0.147 C 
HETATM   11  N3  UNL     1      27.511   9.258  46.217  1.00  0.00    -0.236 NA
HETATM   12  C3  UNL     1      26.335   8.820  46.060  1.00  0.00     0.193 C 
HETATM   13  N4  UNL     1      25.776   8.125  46.950  1.00  0.00    -0.252 NA
BRANCH   9  14
HETATM   14  N2  UNL     1      27.840   8.960  49.937  1.00  0.00    -0.324 N 
HETATM   15  H3  UNL     1      28.581   8.225  49.915  1.00  0.00     0.180 HD
BRANCH  14  16
HETATM   16  N1  UNL     1      27.612   9.624  51.139  1.00  0.00    -0.250 NA
HETATM   17  H1  UNL     1      28.033  10.592  51.058  1.00  0.00     0.143 HD
HETATM   18  H2  UNL     1      28.166   9.167  51.918  1.00  0.00     0.143 HD
ENDBRANCH  14  16
ENDBRANCH   9  14
ENDBRANCH   1   8
BRANCH   4  19
HETATM   19  O1  UNL     1      26.747   2.703  50.074  1.00  0.00    -0.345 OA
BRANCH  19  20
HETATM   20  C9  UNL     1      26.113   2.231  51.240  1.00  0.00     0.240 C 
BRANCH  20  21
HETATM   21  C10 UNL     1      27.099   1.589  52.153  1.00  0.00     0.076 A 
HETATM   22  C11 UNL     1      27.045   0.253  52.559  1.00  0.00     0.037 A 
HETATM   23  C12 UNL     1      28.145   0.124  53.383  1.00  0.00     0.027 A 
HETATM   24  C13 UNL     1      28.808   1.333  53.453  1.00  0.00     0.142 A 
HETATM   25  O2  UNL     1      28.137   2.157  52.703  1.00  0.00    -0.325 OA
ENDBRANCH  20  21
ENDBRANCH  19  20
ENDBRANCH   4  19
TORSDOF 6
ENDMDL
MODEL 7
REMARK VINA RESULT:      -7.2      4.271      7.395
REMARK  6 active torsions:
REMARK  status: ('A' for Active; 'I' for Inactive)
REMARK    1  A    between atoms: N1_1  and  N2_2 
REMARK    2  A    between atoms: N2_2  and  C1_3 
REMARK    3  A    between atoms: C4_8  and  C5_9 
REMARK    4  A    between atoms: C8_12  and  O1_13 
REMARK    5  A    between atoms: O1_13  and  C9_14 
REMARK    6  A    between atoms: C9_14  and  C10_15 
ROOT
HETATM    1  C5  UNL     1      23.074   2.146  51.829  1.00  0.00    -0.006 A 
HETATM    2  C6  UNL     1      24.413   1.991  51.534  1.00  0.00     0.014 A 
HETATM    3  C7  UNL     1      25.255   1.052  52.072  1.00  0.00     0.037 A 
HETATM    4  C8  UNL     1      24.702   0.175  53.004  1.00  0.00     0.070 A 
HETATM    5  C14 UNL     1      23.371   0.296  53.324  1.00  0.00     0.061 A 
HETATM    6  C15 UNL     1      22.561   1.260  52.755  1.00  0.00     0.045 A 
HETATM    7 CL1  UNL     1      20.873   1.376  53.194  1.00  0.00    -0.084 Cl
ENDROOT
BRANCH   1   8
HETATM    8  C4  UNL     1      22.271   3.208  51.173  1.00  0.00     0.197 C 
HETATM    9  C1  UNL     1      22.823   4.566  51.360  1.00  0.00     0.067 C 
HETATM   10  C2  UNL     1      23.110   5.284  50.263  1.00  0.00     0.147 C 
HETATM   11  N3  UNL     1      22.887   4.746  48.972  1.00  0.00    -0.236 NA
HETATM   12  C3  UNL     1      22.176   3.710  48.834  1.00  0.00     0.193 C 
HETATM   13  N4  UNL     1      22.024   2.894  49.782  1.00  0.00    -0.252 NA
BRANCH   9  14
HETATM   14  N2  UNL     1      22.996   4.981  52.710  1.00  0.00    -0.324 N 
HETATM   15  H3  UNL     1      22.031   4.781  53.053  1.00  0.00     0.180 HD
BRANCH  14  16
HETATM   16  N1  UNL     1      23.917   5.503  53.614  1.00  0.00    -0.250 NA
HETATM   17  H1  UNL     1      24.830   4.984  53.480  1.00  0.00     0.143 HD
HETATM   18  H2  UNL     1      23.629   5.264  54.606  1.00  0.00     0.143 HD
ENDBRANCH  14  16
ENDBRANCH   9  14
ENDBRANCH   1   8
BRANCH   4  19
HETATM   19  O1  UNL     1      25.575  -0.767  53.534  1.00  0.00    -0.345 OA
BRANCH  19  20
HETATM   20  C9  UNL     1      26.569  -1.309  52.694  1.00  0.00     0.240 C 
BRANCH  20  21
HETATM   21  C10 UNL     1      27.925  -0.891  53.144  1.00  0.00     0.076 A 
HETATM   22  C11 UNL     1      29.021  -1.751  53.252  1.00  0.00     0.037 A 
HETATM   23  C12 UNL     1      30.033  -0.927  53.698  1.00  0.00     0.027 A 
HETATM   24  C13 UNL     1      29.546   0.357  53.844  1.00  0.00     0.142 A 
HETATM   25  O2  UNL     1      28.293   0.309  53.500  1.00  0.00    -0.325 OA
ENDBRANCH  20  21
ENDBRANCH  19  20
ENDBRANCH   4  19
TORSDOF 6
ENDMDL
MODEL 8
REMARK VINA RESULT:      -7.0      8.997     11.708
REMARK  6 active torsions:
REMARK  status: ('A' for Active; 'I' for Inactive)
REMARK    1  A    between atoms: N1_1  and  N2_2 
REMARK    2  A    between atoms: N2_2  and  C1_3 
REMARK    3  A    between atoms: C4_8  and  C5_9 
REMARK    4  A    between atoms: C8_12  and  O1_13 
REMARK    5  A    between atoms: O1_13  and  C9_14 
REMARK    6  A    between atoms: C9_14  and  C10_15 
ROOT
HETATM    1  C5  UNL     1      26.814   6.955  48.361  1.00  0.00    -0.006 A 
HETATM    2  C6  UNL     1      27.985   7.471  47.843  1.00  0.00     0.014 A 
HETATM    3  C7  UNL     1      29.165   6.791  47.683  1.00  0.00     0.037 A 
HETATM    4  C8  UNL     1      29.178   5.456  48.083  1.00  0.00     0.070 A 
HETATM    5  C14 UNL     1      28.032   4.905  48.604  1.00  0.00     0.061 A 
HETATM    6  C15 UNL     1      26.864   5.631  48.746  1.00  0.00     0.045 A 
HETATM    7 CL1  UNL     1      25.430   4.887  49.414  1.00  0.00    -0.084 Cl
ENDROOT
BRANCH   1   8
HETATM    8  C4  UNL     1      25.600   7.802  48.480  1.00  0.00     0.197 C 
HETATM    9  C1  UNL     1      25.858   9.120  49.097  1.00  0.00     0.067 C 
HETATM   10  C2  UNL     1      25.523  10.216  48.399  1.00  0.00     0.147 C 
HETATM   11  N3  UNL     1      24.941  10.101  47.114  1.00  0.00    -0.236 NA
HETATM   12  C3  UNL     1      24.488   8.987  46.724  1.00  0.00     0.193 C 
HETATM   13  N4  UNL     1      24.907   7.905  47.214  1.00  0.00    -0.252 NA
BRANCH   9  14
HETATM   14  N2  UNL     1      26.447   9.091  50.392  1.00  0.00    -0.324 N 
HETATM   15  H3  UNL     1      25.687   8.577  50.890  1.00  0.00     0.180 HD
BRANCH  14  16
HETATM   16  N1  UNL     1      27.567   9.474  51.125  1.00  0.00    -0.250 NA
HETATM   17  H1  UNL     1      28.301   8.720  51.010  1.00  0.00     0.143 HD
HETATM   18  H2  UNL     1      27.346   9.463  52.161  1.00  0.00     0.143 HD
ENDBRANCH  14  16
ENDBRANCH   9  14
ENDBRANCH   1   8
BRANCH   4  19
HETATM   19  O1  UNL     1      30.385   4.790  47.911  1.00  0.00    -0.345 OA
BRANCH  19  20
HETATM   20  C9  UNL     1      31.579   5.472  48.222  1.00  0.00     0.240 C 
BRANCH  20  21
HETATM   21  C10 UNL     1      32.762   4.600  47.981  1.00  0.00     0.076 A 
HETATM   22  C11 UNL     1      32.702   3.330  47.402  1.00  0.00     0.037 A 
HETATM   23  C12 UNL     1      34.020   2.922  47.388  1.00  0.00     0.027 A 
HETATM   24  C13 UNL     1      34.811   3.913  47.935  1.00  0.00     0.142 A 
HETATM   25  O2  UNL     1      34.004   4.877  48.266  1.00  0.00    -0.325 OA
ENDBRANCH  20  21
ENDBRANCH  19  20
ENDBRANCH   4  19
TORSDOF 6
ENDMDL
MODEL 9
REMARK VINA RESULT:      -7.0      4.317      7.713
REMARK  6 active torsions:
REMARK  status: ('A' for Active; 'I' for Inactive)
REMARK    1  A    between atoms: N1_1  and  N2_2 
REMARK    2  A    between atoms: N2_2  and  C1_3 
REMARK    3  A    between atoms: C4_8  and  C5_9 
REMARK    4  A    between atoms: C8_12  and  O1_13 
REMARK    5  A    between atoms: O1_13  and  C9_14 
REMARK    6  A    between atoms: C9_14  and  C10_15 
ROOT
HETATM    1  C5  UNL     1      22.574   1.486  52.340  1.00  0.00    -0.006 A 
HETATM    2  C6  UNL     1      22.539   0.162  52.724  1.00  0.00     0.014 A 
HETATM    3  C7  UNL     1      23.535  -0.514  53.383  1.00  0.00     0.037 A 
HETATM    4  C8  UNL     1      24.686   0.209  53.690  1.00  0.00     0.070 A 
HETATM    5  C14 UNL     1      24.759   1.531  53.325  1.00  0.00     0.061 A 
HETATM    6  C15 UNL     1      23.729   2.171  52.660  1.00  0.00     0.045 A 
HETATM    7 CL1  UNL     1      23.868   3.856  52.215  1.00  0.00    -0.084 Cl
ENDROOT
BRANCH   1   8
HETATM    8  C4  UNL     1      21.424   2.100  51.629  1.00  0.00     0.197 C 
HETATM    9  C1  UNL     1      21.336   1.713  50.205  1.00  0.00     0.067 C 
HETATM   10  C2  UNL     1      20.201   1.135  49.782  1.00  0.00     0.147 C 
HETATM   11  N3  UNL     1      19.130   0.909  50.679  1.00  0.00    -0.236 NA
HETATM   12  C3  UNL     1      19.119   1.481  51.806  1.00  0.00     0.193 C 
HETATM   13  N4  UNL     1      20.187   1.878  52.345  1.00  0.00    -0.252 NA
BRANCH   9  14
HETATM   14  N2  UNL     1      22.484   1.998  49.416  1.00  0.00    -0.324 N 
HETATM   15  H3  UNL     1      22.978   1.087  49.534  1.00  0.00     0.180 HD
BRANCH  14  16
HETATM   16  N1  UNL     1      23.092   2.974  48.631  1.00  0.00    -0.250 NA
HETATM   17  H1  UNL     1      22.905   2.737  47.617  1.00  0.00     0.143 HD
HETATM   18  H2  UNL     1      24.147   2.909  48.720  1.00  0.00     0.143 HD
ENDBRANCH  14  16
ENDBRANCH   9  14
ENDBRANCH   1   8
BRANCH   4  19
HETATM   19  O1  UNL     1      25.678  -0.498  54.357  1.00  0.00    -0.345 OA
BRANCH  19  20
HETATM   20  C9  UNL     1      26.756   0.221  54.914  1.00  0.00     0.240 C 
BRANCH  20  21
HETATM   21  C10 UNL     1      28.045  -0.202  54.302  1.00  0.00     0.076 A 
HETATM   22  C11 UNL     1      29.154   0.632  54.142  1.00  0.00     0.037 A 
HETATM   23  C12 UNL     1      30.087  -0.188  53.540  1.00  0.00     0.027 A 
HETATM   24  C13 UNL     1      29.543  -1.443  53.358  1.00  0.00     0.142 A 
HETATM   25  O2  UNL     1      28.333  -1.384  53.829  1.00  0.00    -0.325 OA
ENDBRANCH  20  21
ENDBRANCH  19  20
ENDBRANCH   4  19
TORSDOF 6
ENDMDL
