MODEL 1
REMARK VINA RESULT:      -8.9      0.000      0.000
REMARK  2 active torsions:
REMARK  status: ('A' for Active; 'I' for Inactive)
REMARK    1  A    between atoms: C5_6  and  N1_7 
REMARK    2  A    between atoms: N1_7  and  C6_8 
ROOT
HETATM    1  C6  UNL     1      25.256   4.280  50.815  1.00  0.00     0.171 A 
HETATM    2  C7  UNL     1      25.644   2.852  51.086  1.00  0.00     0.019 A 
HETATM    3  C8  UNL     1      26.055   1.632  51.301  1.00  0.00     0.153 C 
HETATM    4  O1  UNL     1      26.689   0.440  51.456  1.00  0.00    -0.324 OA
HETATM    5  C9  UNL     1      27.432   0.127  52.619  1.00  0.00     0.079 C 
HETATM    6  C10 UNL     1      28.631   0.673  52.893  1.00  0.00     0.011 C 
HETATM    7  C11 UNL     1      29.225   0.186  54.184  1.00  0.00     0.056 C 
HETATM    8  C12 UNL     1      28.204   0.231  55.295  1.00  0.00     0.172 C 
HETATM    9  O2  UNL     1      26.934  -0.133  54.863  1.00  0.00    -0.377 OA
HETATM   10  C13 UNL     1      26.977  -0.833  53.658  1.00  0.00     0.195 C 
HETATM   11  C14 UNL     1      25.578  -1.284  53.327  1.00  0.00     0.157 C 
HETATM   12  N2  UNL     1      24.643  -0.399  54.034  1.00  0.00    -0.396 N 
HETATM   13  C15 UNL     1      23.213  -0.574  53.932  1.00  0.00     0.079 C 
HETATM   14  C16 UNL     1      22.113   0.026  53.441  1.00  0.00    -0.002 C 
HETATM   15  C17 UNL     1      22.755   1.205  52.872  1.00  0.00     0.099 C 
HETATM   16  C18 UNL     1      22.283   2.252  52.219  1.00  0.00     0.097 C 
HETATM   17  N3  UNL     1      23.002   3.321  51.723  1.00  0.00    -0.290 NA
HETATM   18  C19 UNL     1      24.262   3.353  51.351  1.00  0.00     0.066 A 
HETATM   19  H15 UNL     1      24.723   0.440  54.680  1.00  0.00     0.158 HD
ENDROOT
BRANCH   1  20
HETATM   20  N1  UNL     1      25.309   4.591  49.384  1.00  0.00    -0.376 N 
HETATM   21  H4  UNL     1      24.638   4.295  48.643  1.00  0.00     0.160 HD
BRANCH  20  22
HETATM   22  C5  UNL     1      26.409   5.388  48.975  1.00  0.00     0.030 A 
HETATM   23  C4  UNL     1      27.644   4.828  48.633  1.00  0.00     0.029 A 
HETATM   24  C3  UNL     1      28.751   5.543  48.228  1.00  0.00     0.004 A 
HETATM   25  C2  UNL     1      28.594   6.911  48.165  1.00  0.00     0.019 A 
HETATM   26  C1  UNL     1      27.424   7.558  48.479  1.00  0.00     0.013 A 
HETATM   27 BR1  UNL     1      27.287   9.456  48.367  1.00  0.00    -0.051 Br
HETATM   28  C20 UNL     1      26.378   6.762  48.872  1.00  0.00     0.048 A 
ENDBRANCH  20  22
ENDBRANCH   1  20
TORSDOF 2
ENDMDL
MODEL 2
REMARK VINA RESULT:      -8.4      4.726      7.229
REMARK  2 active torsions:
REMARK  status: ('A' for Active; 'I' for Inactive)
REMARK    1  A    between atoms: C5_6  and  N1_7 
REMARK    2  A    between atoms: N1_7  and  C6_8 
ROOT
HETATM    1  C6  UNL     1      24.782   1.167  52.496  1.00  0.00     0.171 A 
HETATM    2  C7  UNL     1      23.471   1.892  52.358  1.00  0.00     0.019 A 
HETATM    3  C8  UNL     1      22.372   2.580  52.204  1.00  0.00     0.153 C 
HETATM    4  O1  UNL     1      21.366   3.456  51.948  1.00  0.00    -0.324 OA
HETATM    5  C9  UNL     1      20.746   3.544  50.678  1.00  0.00     0.079 C 
HETATM    6  C10 UNL     1      21.347   4.094  49.606  1.00  0.00     0.011 C 
HETATM    7  C11 UNL     1      20.491   4.072  48.371  1.00  0.00     0.056 C 
HETATM    8  C12 UNL     1      19.881   2.707  48.165  1.00  0.00     0.172 C 
HETATM    9  O2  UNL     1      19.496   2.112  49.361  1.00  0.00    -0.377 OA
HETATM   10  C13 UNL     1      19.377   3.046  50.390  1.00  0.00     0.195 C 
HETATM   11  C14 UNL     1      18.848   2.336  51.609  1.00  0.00     0.157 C 
HETATM   12  N2  UNL     1      19.169   0.910  51.471  1.00  0.00    -0.396 N 
HETATM   13  C15 UNL     1      18.786  -0.052  52.478  1.00  0.00     0.079 C 
HETATM   14  C16 UNL     1      19.316  -0.872  53.403  1.00  0.00    -0.002 C 
HETATM   15  C17 UNL     1      20.722  -0.562  53.176  1.00  0.00     0.099 C 
HETATM   16  C18 UNL     1      21.836  -1.002  53.736  1.00  0.00     0.097 C 
HETATM   17  N3  UNL     1      23.128  -0.627  53.429  1.00  0.00    -0.290 NA
HETATM   18  C19 UNL     1      23.548   0.508  52.914  1.00  0.00     0.066 A 
HETATM   19  H15 UNL     1      19.665   0.302  50.755  1.00  0.00     0.158 HD
ENDROOT
BRANCH   1  20
HETATM   20  N1  UNL     1      25.660   1.822  53.471  1.00  0.00    -0.376 N 
HETATM   21  H4  UNL     1      25.426   2.616  54.106  1.00  0.00     0.160 HD
BRANCH  20  22
HETATM   22  C5  UNL     1      26.978   1.305  53.547  1.00  0.00     0.030 A 
HETATM   23  C4  UNL     1      28.081   2.121  53.821  1.00  0.00     0.029 A 
HETATM   24  C3  UNL     1      29.385   1.684  53.909  1.00  0.00     0.004 A 
HETATM   25  C2  UNL     1      29.582   0.335  53.706  1.00  0.00     0.019 A 
HETATM   26  C1  UNL     1      28.569  -0.550  53.432  1.00  0.00     0.013 A 
HETATM   27 BR1  UNL     1      28.925  -2.403  53.163  1.00  0.00    -0.051 Br
HETATM   28  C20 UNL     1      27.305  -0.021  53.364  1.00  0.00     0.048 A 
ENDBRANCH  20  22
ENDBRANCH   1  20
TORSDOF 2
ENDMDL
MODEL 3
REMARK VINA RESULT:      -8.3      5.141      9.473
REMARK  2 active torsions:
REMARK  status: ('A' for Active; 'I' for Inactive)
REMARK    1  A    between atoms: C5_6  and  N1_7 
REMARK    2  A    between atoms: N1_7  and  C6_8 
ROOT
HETATM    1  C6  UNL     1      28.432   6.777  47.906  1.00  0.00     0.171 A 
HETATM    2  C7  UNL     1      29.865   6.485  48.261  1.00  0.00     0.019 A 
HETATM    3  C8  UNL     1      31.087   6.158  48.584  1.00  0.00     0.153 C 
HETATM    4  O1  UNL     1      32.270   5.607  48.963  1.00  0.00    -0.324 OA
HETATM    5  C9  UNL     1      33.070   4.852  48.073  1.00  0.00     0.079 C 
HETATM    6  C10 UNL     1      32.748   3.608  47.672  1.00  0.00     0.011 C 
HETATM    7  C11 UNL     1      33.752   3.011  46.727  1.00  0.00     0.056 C 
HETATM    8  C12 UNL     1      34.110   3.990  45.634  1.00  0.00     0.172 C 
HETATM    9  O2  UNL     1      34.197   5.296  46.102  1.00  0.00    -0.377 OA
HETATM   10  C13 UNL     1      34.344   5.343  47.488  1.00  0.00     0.195 C 
HETATM   11  C14 UNL     1      34.545   6.781  47.890  1.00  0.00     0.157 C 
HETATM   12  N2  UNL     1      33.978   7.625  46.832  1.00  0.00    -0.396 N 
HETATM   13  C15 UNL     1      34.019   9.067  46.911  1.00  0.00     0.079 C 
HETATM   14  C16 UNL     1      33.213  10.135  47.051  1.00  0.00    -0.002 C 
HETATM   15  C17 UNL     1      31.941   9.428  47.130  1.00  0.00     0.099 C 
HETATM   16  C18 UNL     1      30.695   9.844  47.273  1.00  0.00     0.097 C 
HETATM   17  N3  UNL     1      29.557   9.065  47.334  1.00  0.00    -0.290 NA
HETATM   18  C19 UNL     1      29.443   7.818  47.735  1.00  0.00     0.066 A 
HETATM   19  H15 UNL     1      33.481   7.465  45.906  1.00  0.00     0.158 HD
ENDROOT
BRANCH   1  20
HETATM   20  N1  UNL     1      27.567   6.746  49.089  1.00  0.00    -0.376 N 
HETATM   21  H4  UNL     1      27.563   7.412  49.892  1.00  0.00     0.160 HD
BRANCH  20  22
HETATM   22  C5  UNL     1      26.632   5.681  49.132  1.00  0.00     0.030 A 
HETATM   23  C4  UNL     1      27.023   4.360  49.375  1.00  0.00     0.029 A 
HETATM   24  C3  UNL     1      26.168   3.280  49.429  1.00  0.00     0.004 A 
HETATM   25  C2  UNL     1      24.833   3.559  49.227  1.00  0.00     0.019 A 
HETATM   26  C1  UNL     1      24.347   4.820  48.983  1.00  0.00     0.013 A 
HETATM   27 BR1  UNL     1      22.485   5.122  48.712  1.00  0.00    -0.051 Br
HETATM   28  C20 UNL     1      25.275   5.830  48.946  1.00  0.00     0.048 A 
ENDBRANCH  20  22
ENDBRANCH   1  20
TORSDOF 2
ENDMDL
MODEL 4
REMARK VINA RESULT:      -8.2      5.129      8.878
REMARK  2 active torsions:
REMARK  status: ('A' for Active; 'I' for Inactive)
REMARK    1  A    between atoms: C5_6  and  N1_7 
REMARK    2  A    between atoms: N1_7  and  C6_8 
ROOT
HETATM    1  C6  UNL     1      20.173  -0.623  52.756  1.00  0.00     0.171 A 
HETATM    2  C7  UNL     1      21.463  -0.079  53.309  1.00  0.00     0.019 A 
HETATM    3  C8  UNL     1      22.602   0.319  53.806  1.00  0.00     0.153 C 
HETATM    4  O1  UNL     1      23.826   0.508  54.364  1.00  0.00    -0.324 OA
HETATM    5  C9  UNL     1      25.024   0.356  53.624  1.00  0.00     0.079 C 
HETATM    6  C10 UNL     1      25.505  -0.843  53.247  1.00  0.00     0.011 C 
HETATM    7  C11 UNL     1      26.789  -0.750  52.472  1.00  0.00     0.056 C 
HETATM    8  C12 UNL     1      26.688   0.297  51.389  1.00  0.00     0.172 C 
HETATM    9  O2  UNL     1      25.970   1.415  51.799  1.00  0.00    -0.377 OA
HETATM   10  C13 UNL     1      25.877   1.491  53.188  1.00  0.00     0.195 C 
HETATM   11  C14 UNL     1      25.188   2.784  53.542  1.00  0.00     0.157 C 
HETATM   12  N2  UNL     1      24.398   3.203  52.377  1.00  0.00    -0.396 N 
HETATM   13  C15 UNL     1      23.620   4.420  52.390  1.00  0.00     0.079 C 
HETATM   14  C16 UNL     1      22.346   4.854  52.370  1.00  0.00    -0.002 C 
HETATM   15  C17 UNL     1      21.685   3.556  52.316  1.00  0.00     0.099 C 
HETATM   16  C18 UNL     1      20.412   3.202  52.274  1.00  0.00     0.097 C 
HETATM   17  N3  UNL     1      19.903   1.921  52.224  1.00  0.00    -0.290 NA
HETATM   18  C19 UNL     1      20.447   0.809  52.667  1.00  0.00     0.066 A 
HETATM   19  H15 UNL     1      24.206   2.823  51.404  1.00  0.00     0.158 HD
ENDROOT
BRANCH   1  20
HETATM   20  N1  UNL     1      19.319  -1.168  53.815  1.00  0.00    -0.376 N 
HETATM   21  H4  UNL     1      19.512  -1.190  54.839  1.00  0.00     0.160 HD
BRANCH  20  22
HETATM   22  C5  UNL     1      18.091  -1.727  53.379  1.00  0.00     0.030 A 
HETATM   23  C4  UNL     1      17.201  -1.020  52.564  1.00  0.00     0.029 A 
HETATM   24  C3  UNL     1      15.994  -1.502  52.105  1.00  0.00     0.004 A 
HETATM   25  C2  UNL     1      15.671  -2.784  52.498  1.00  0.00     0.019 A 
HETATM   26  C1  UNL     1      16.474  -3.561  53.295  1.00  0.00     0.013 A 
HETATM   27 BR1  UNL     1      15.954  -5.325  53.795  1.00  0.00    -0.051 Br
HETATM   28  C20 UNL     1      17.655  -2.994  53.702  1.00  0.00     0.048 A 
ENDBRANCH  20  22
ENDBRANCH   1  20
TORSDOF 2
ENDMDL
MODEL 5
REMARK VINA RESULT:      -8.2      2.383      4.761
REMARK  2 active torsions:
REMARK  status: ('A' for Active; 'I' for Inactive)
REMARK    1  A    between atoms: C5_6  and  N1_7 
REMARK    2  A    between atoms: N1_7  and  C6_8 
ROOT
HETATM    1  C6  UNL     1      25.571   4.398  49.766  1.00  0.00     0.171 A 
HETATM    2  C7  UNL     1      24.535   3.962  50.766  1.00  0.00     0.019 A 
HETATM    3  C8  UNL     1      23.588   3.637  51.604  1.00  0.00     0.153 C 
HETATM    4  O1  UNL     1      22.481   3.468  52.373  1.00  0.00    -0.324 OA
HETATM    5  C9  UNL     1      21.373   2.698  51.942  1.00  0.00     0.079 C 
HETATM    6  C10 UNL     1      20.515   3.116  50.994  1.00  0.00     0.011 C 
HETATM    7  C11 UNL     1      19.421   2.127  50.706  1.00  0.00     0.056 C 
HETATM    8  C12 UNL     1      19.986   0.739  50.525  1.00  0.00     0.172 C 
HETATM    9  O2  UNL     1      21.032   0.475  51.402  1.00  0.00    -0.377 OA
HETATM   10  C13 UNL     1      21.038   1.356  52.483  1.00  0.00     0.195 C 
HETATM   11  C14 UNL     1      22.126   0.927  53.433  1.00  0.00     0.157 C 
HETATM   12  N2  UNL     1      23.104   0.142  52.668  1.00  0.00    -0.396 N 
HETATM   13  C15 UNL     1      24.273  -0.428  53.296  1.00  0.00     0.079 C 
HETATM   14  C16 UNL     1      25.614  -0.320  53.315  1.00  0.00    -0.002 C 
HETATM   15  C17 UNL     1      25.750   0.752  52.337  1.00  0.00     0.099 C 
HETATM   16  C18 UNL     1      26.802   1.385  51.846  1.00  0.00     0.097 C 
HETATM   17  N3  UNL     1      26.803   2.398  50.909  1.00  0.00    -0.290 NA
HETATM   18  C19 UNL     1      25.854   3.269  50.649  1.00  0.00     0.066 A 
HETATM   19  H15 UNL     1      23.217  -0.167  51.658  1.00  0.00     0.158 HD
ENDROOT
BRANCH   1  20
HETATM   20  N1  UNL     1      26.078   5.741  50.065  1.00  0.00    -0.376 N 
HETATM   21  H4  UNL     1      26.193   6.183  51.003  1.00  0.00     0.160 HD
BRANCH  20  22
HETATM   22  C5  UNL     1      26.450   6.516  48.938  1.00  0.00     0.030 A 
HETATM   23  C4  UNL     1      25.508   7.209  48.170  1.00  0.00     0.029 A 
HETATM   24  C3  UNL     1      25.802   7.979  47.065  1.00  0.00     0.004 A 
HETATM   25  C2  UNL     1      27.134   8.052  46.719  1.00  0.00     0.019 A 
HETATM   26  C1  UNL     1      28.135   7.411  47.407  1.00  0.00     0.013 A 
HETATM   27 BR1  UNL     1      29.956   7.562  46.863  1.00  0.00    -0.051 Br
HETATM   28  C20 UNL     1      27.745   6.668  48.492  1.00  0.00     0.048 A 
ENDBRANCH  20  22
ENDBRANCH   1  20
TORSDOF 2
ENDMDL
MODEL 6
REMARK VINA RESULT:      -8.2      3.851      6.447
REMARK  2 active torsions:
REMARK  status: ('A' for Active; 'I' for Inactive)
REMARK    1  A    between atoms: C5_6  and  N1_7 
REMARK    2  A    between atoms: N1_7  and  C6_8 
ROOT
HETATM    1  C6  UNL     1      27.158   6.278  48.485  1.00  0.00     0.171 A 
HETATM    2  C7  UNL     1      26.060   6.391  49.508  1.00  0.00     0.019 A 
HETATM    3  C8  UNL     1      25.100   6.565  50.375  1.00  0.00     0.153 C 
HETATM    4  O1  UNL     1      24.097   6.965  51.200  1.00  0.00    -0.324 OA
HETATM    5  C9  UNL     1      22.748   7.023  50.774  1.00  0.00     0.079 C 
HETATM    6  C10 UNL     1      22.284   7.969  49.936  1.00  0.00     0.011 C 
HETATM    7  C11 UNL     1      20.820   7.824  49.630  1.00  0.00     0.056 C 
HETATM    8  C12 UNL     1      20.485   6.396  49.272  1.00  0.00     0.172 C 
HETATM    9  O2  UNL     1      21.190   5.478  50.041  1.00  0.00    -0.377 OA
HETATM   10  C13 UNL     1      21.703   6.058  51.201  1.00  0.00     0.195 C 
HETATM   11  C14 UNL     1      22.347   4.972  52.024  1.00  0.00     0.157 C 
HETATM   12  N2  UNL     1      22.696   3.871  51.117  1.00  0.00    -0.396 N 
HETATM   13  C15 UNL     1      23.326   2.665  51.600  1.00  0.00     0.079 C 
HETATM   14  C16 UNL     1      24.486   1.986  51.534  1.00  0.00    -0.002 C 
HETATM   15  C17 UNL     1      25.212   2.898  50.661  1.00  0.00     0.099 C 
HETATM   16  C18 UNL     1      26.436   2.874  50.162  1.00  0.00     0.097 C 
HETATM   17  N3  UNL     1      27.018   3.811  49.333  1.00  0.00    -0.290 NA
HETATM   18  C19 UNL     1      26.741   5.092  49.229  1.00  0.00     0.066 A 
HETATM   19  H15 UNL     1      22.610   3.679  50.075  1.00  0.00     0.158 HD
ENDROOT
BRANCH   1  20
HETATM   20  N1  UNL     1      28.344   7.043  48.880  1.00  0.00    -0.376 N 
HETATM   21  H4  UNL     1      28.433   7.717  49.672  1.00  0.00     0.160 HD
BRANCH  20  22
HETATM   22  C5  UNL     1      29.498   6.833  48.083  1.00  0.00     0.030 A 
HETATM   23  C4  UNL     1      29.928   7.770  47.138  1.00  0.00     0.029 A 
HETATM   24  C3  UNL     1      31.037   7.628  46.332  1.00  0.00     0.004 A 
HETATM   25  C2  UNL     1      31.756   6.463  46.497  1.00  0.00     0.019 A 
HETATM   26  C1  UNL     1      31.419   5.482  47.397  1.00  0.00     0.013 A 
HETATM   27 BR1  UNL     1      32.466   3.898  47.565  1.00  0.00    -0.051 Br
HETATM   28  C20 UNL     1      30.298   5.713  48.153  1.00  0.00     0.048 A 
ENDBRANCH  20  22
ENDBRANCH   1  20
TORSDOF 2
ENDMDL
MODEL 7
REMARK VINA RESULT:      -8.1      4.079      7.462
REMARK  2 active torsions:
REMARK  status: ('A' for Active; 'I' for Inactive)
REMARK    1  A    between atoms: C5_6  and  N1_7 
REMARK    2  A    between atoms: N1_7  and  C6_8 
ROOT
HETATM    1  C6  UNL     1      25.806   2.752  50.877  1.00  0.00     0.171 A 
HETATM    2  C7  UNL     1      24.896   3.936  50.692  1.00  0.00     0.019 A 
HETATM    3  C8  UNL     1      24.164   4.998  50.491  1.00  0.00     0.153 C 
HETATM    4  O1  UNL     1      23.587   6.185  50.168  1.00  0.00    -0.324 OA
HETATM    5  C9  UNL     1      22.980   6.410  48.909  1.00  0.00     0.079 C 
HETATM    6  C10 UNL     1      23.685   6.571  47.773  1.00  0.00     0.011 C 
HETATM    7  C11 UNL     1      22.820   6.797  46.566  1.00  0.00     0.056 C 
HETATM    8  C12 UNL     1      21.696   5.790  46.514  1.00  0.00     0.172 C 
HETATM    9  O2  UNL     1      21.177   5.511  47.772  1.00  0.00    -0.377 OA
HETATM   10  C13 UNL     1      21.512   6.495  48.702  1.00  0.00     0.195 C 
HETATM   11  C14 UNL     1      20.816   6.172  49.999  1.00  0.00     0.157 C 
HETATM   12  N2  UNL     1      20.520   4.734  50.002  1.00  0.00    -0.396 N 
HETATM   13  C15 UNL     1      19.842   4.104  51.110  1.00  0.00     0.079 C 
HETATM   14  C16 UNL     1      20.049   3.221  52.105  1.00  0.00    -0.002 C 
HETATM   15  C17 UNL     1      21.443   2.906  51.817  1.00  0.00     0.099 C 
HETATM   16  C18 UNL     1      22.314   2.097  52.395  1.00  0.00     0.097 C 
HETATM   17  N3  UNL     1      23.626   1.881  52.024  1.00  0.00    -0.290 NA
HETATM   18  C19 UNL     1      24.438   2.695  51.387  1.00  0.00     0.066 A 
HETATM   19  H15 UNL     1      20.682   3.916  49.342  1.00  0.00     0.158 HD
ENDROOT
BRANCH   1  20
HETATM   20  N1  UNL     1      26.932   3.069  51.760  1.00  0.00    -0.376 N 
HETATM   21  H4  UNL     1      27.379   3.999  51.911  1.00  0.00     0.160 HD
BRANCH  20  22
HETATM   22  C5  UNL     1      27.464   1.974  52.486  1.00  0.00     0.030 A 
HETATM   23  C4  UNL     1      28.391   2.148  53.518  1.00  0.00     0.029 A 
HETATM   24  C3  UNL     1      28.947   1.129  54.262  1.00  0.00     0.004 A 
HETATM   25  C2  UNL     1      28.535  -0.146  53.938  1.00  0.00     0.019 A 
HETATM   26  C1  UNL     1      27.630  -0.424  52.943  1.00  0.00     0.013 A 
HETATM   27 BR1  UNL     1      27.111  -2.217  52.556  1.00  0.00    -0.051 Br
HETATM   28  C20 UNL     1      27.133   0.655  52.258  1.00  0.00     0.048 A 
ENDBRANCH  20  22
ENDBRANCH   1  20
TORSDOF 2
ENDMDL
MODEL 8
REMARK VINA RESULT:      -8.0      2.986      5.385
REMARK  2 active torsions:
REMARK  status: ('A' for Active; 'I' for Inactive)
REMARK    1  A    between atoms: C5_6  and  N1_7 
REMARK    2  A    between atoms: N1_7  and  C6_8 
ROOT
HETATM    1  C6  UNL     1      26.377   4.825  49.072  1.00  0.00     0.171 A 
HETATM    2  C7  UNL     1      25.076   4.668  49.812  1.00  0.00     0.019 A 
HETATM    3  C8  UNL     1      23.917   4.587  50.407  1.00  0.00     0.153 C 
HETATM    4  O1  UNL     1      22.647   4.671  50.881  1.00  0.00    -0.324 OA
HETATM    5  C9  UNL     1      21.564   4.004  50.258  1.00  0.00     0.079 C 
HETATM    6  C10 UNL     1      21.035   4.401  49.086  1.00  0.00     0.011 C 
HETATM    7  C11 UNL     1      19.895   3.536  48.627  1.00  0.00     0.056 C 
HETATM    8  C12 UNL     1      20.255   2.074  48.732  1.00  0.00     0.172 C 
HETATM    9  O2  UNL     1      21.006   1.794  49.868  1.00  0.00    -0.377 OA
HETATM   10  C13 UNL     1      20.897   2.803  50.824  1.00  0.00     0.195 C 
HETATM   11  C14 UNL     1      21.644   2.365  52.057  1.00  0.00     0.157 C 
HETATM   12  N2  UNL     1      22.635   1.362  51.647  1.00  0.00    -0.396 N 
HETATM   13  C15 UNL     1      23.513   0.731  52.605  1.00  0.00     0.079 C 
HETATM   14  C16 UNL     1      24.810   0.662  52.955  1.00  0.00    -0.002 C 
HETATM   15  C17 UNL     1      25.347   1.565  51.945  1.00  0.00     0.099 C 
HETATM   16  C18 UNL     1      26.573   1.982  51.679  1.00  0.00     0.097 C 
HETATM   17  N3  UNL     1      26.961   2.851  50.680  1.00  0.00    -0.290 NA
HETATM   18  C19 UNL     1      26.255   3.797  50.102  1.00  0.00     0.066 A 
HETATM   19  H15 UNL     1      22.933   0.908  50.734  1.00  0.00     0.158 HD
ENDROOT
BRANCH   1  20
HETATM   20  N1  UNL     1      27.008   6.117  49.359  1.00  0.00    -0.376 N 
HETATM   21  H4  UNL     1      26.812   6.757  50.158  1.00  0.00     0.160 HD
BRANCH  20  22
HETATM   22  C5  UNL     1      27.998   6.530  48.431  1.00  0.00     0.030 A 
HETATM   23  C4  UNL     1      27.792   7.598  47.553  1.00  0.00     0.029 A 
HETATM   24  C3  UNL     1      28.709   8.051  46.629  1.00  0.00     0.004 A 
HETATM   25  C2  UNL     1      29.912   7.377  46.596  1.00  0.00     0.019 A 
HETATM   26  C1  UNL     1      30.213   6.317  47.415  1.00  0.00     0.013 A 
HETATM   27 BR1  UNL     1      31.901   5.438  47.307  1.00  0.00    -0.051 Br
HETATM   28  C20 UNL     1      29.237   5.940  48.301  1.00  0.00     0.048 A 
ENDBRANCH  20  22
ENDBRANCH   1  20
TORSDOF 2
ENDMDL
MODEL 9
REMARK VINA RESULT:      -7.9      6.068      9.132
REMARK  2 active torsions:
REMARK  status: ('A' for Active; 'I' for Inactive)
REMARK    1  A    between atoms: C5_6  and  N1_7 
REMARK    2  A    between atoms: N1_7  and  C6_8 
ROOT
HETATM    1  C6  UNL     1      30.652   6.442  47.791  1.00  0.00     0.171 A 
HETATM    2  C7  UNL     1      29.654   7.421  48.350  1.00  0.00     0.019 A 
HETATM    3  C8  UNL     1      28.839   8.327  48.817  1.00  0.00     0.153 C 
HETATM    4  O1  UNL     1      28.158   9.421  49.248  1.00  0.00    -0.324 OA
HETATM    5  C9  UNL     1      27.418  10.244  48.365  1.00  0.00     0.079 C 
HETATM    6  C10 UNL     1      27.996  11.087  47.490  1.00  0.00     0.011 C 
HETATM    7  C11 UNL     1      27.004  11.854  46.661  1.00  0.00     0.056 C 
HETATM    8  C12 UNL     1      25.948  10.933  46.099  1.00  0.00     0.172 C 
HETATM    9  O2  UNL     1      25.574   9.944  47.001  1.00  0.00    -0.377 OA
HETATM   10  C13 UNL     1      25.934  10.270  48.309  1.00  0.00     0.195 C 
HETATM   11  C14 UNL     1      25.390   9.205  49.225  1.00  0.00     0.157 C 
HETATM   12  N2  UNL     1      25.190   7.988  48.428  1.00  0.00    -0.396 N 
HETATM   13  C15 UNL     1      24.666   6.777  49.015  1.00  0.00     0.079 C 
HETATM   14  C16 UNL     1      25.025   5.518  49.325  1.00  0.00    -0.002 C 
HETATM   15  C17 UNL     1      26.401   5.571  48.848  1.00  0.00     0.099 C 
HETATM   16  C18 UNL     1      27.375   4.678  48.828  1.00  0.00     0.097 C 
HETATM   17  N3  UNL     1      28.655   4.849  48.341  1.00  0.00    -0.290 NA
HETATM   18  C19 UNL     1      29.347   5.963  48.240  1.00  0.00     0.066 A 
HETATM   19  H15 UNL     1      25.338   7.702  47.415  1.00  0.00     0.158 HD
ENDROOT
BRANCH   1  20
HETATM   20  N1  UNL     1      31.837   6.333  48.648  1.00  0.00    -0.376 N 
HETATM   21  H4  UNL     1      32.102   6.945  49.449  1.00  0.00     0.160 HD
BRANCH  20  22
HETATM   22  C5  UNL     1      32.714   5.263  48.338  1.00  0.00     0.030 A 
HETATM   23  C4  UNL     1      34.102   5.380  48.470  1.00  0.00     0.029 A 
HETATM   24  C3  UNL     1      35.010   4.382  48.187  1.00  0.00     0.004 A 
HETATM   25  C2  UNL     1      34.476   3.191  47.744  1.00  0.00     0.019 A 
HETATM   26  C1  UNL     1      33.129   2.973  47.582  1.00  0.00     0.013 A 
HETATM   27 BR1  UNL     1      32.470   1.296  46.964  1.00  0.00    -0.051 Br
HETATM   28  C20 UNL     1      32.305   4.026  47.888  1.00  0.00     0.048 A 
ENDBRANCH  20  22
ENDBRANCH   1  20
TORSDOF 2
ENDMDL
