MODEL 1
REMARK VINA RESULT:      -9.9      0.000      0.000
REMARK  6 active torsions:
REMARK  status: ('A' for Active; 'I' for Inactive)
REMARK    1  A    between atoms: O1_2  and  C2_3 
REMARK    2  A    between atoms: C7_8  and  C8_9 
REMARK       I    between atoms: C8_9  and  N1_11 
REMARK    3  A    between atoms: N1_11  and  C9_12 
REMARK    4  A    between atoms: C9_12  and  C10_13 
REMARK    5  A    between atoms: C15_18  and  N2_19 
REMARK    6  A    between atoms: N2_19  and  C16_20 
ROOT
HETATM    1  C10 UNL     1      23.512   3.169  50.562  1.00  0.00    -0.038 A 
HETATM    2  C11 UNL     1      23.184   2.764  49.305  1.00  0.00     0.009 A 
HETATM    3  C12 UNL     1      22.132   1.877  49.155  1.00  0.00     0.009 A 
HETATM    4  C13 UNL     1      21.410   1.389  50.209  1.00  0.00    -0.035 A 
HETATM    5  C14 UNL     1      20.322   0.414  49.915  1.00  0.00     0.050 C 
HETATM    6  C15 UNL     1      21.732   1.799  51.508  1.00  0.00     0.039 A 
HETATM    7  C25 UNL     1      22.807   2.704  51.648  1.00  0.00     0.038 A 
ENDROOT
BRANCH   6   8
HETATM    8  N2  UNL     1      21.010   1.326  52.670  1.00  0.00    -0.354 N 
HETATM    9  H16 UNL     1      20.211   2.039  52.817  1.00  0.00     0.166 HD
BRANCH   8  10
HETATM   10  C16 UNL     1      21.220   0.213  53.497  1.00  0.00     0.066 A 
HETATM   11  C17 UNL     1      22.371   0.128  54.131  1.00  0.00     0.083 A 
HETATM   12  C18 UNL     1      22.195  -1.122  54.858  1.00  0.00     0.145 A 
HETATM   13  N3  UNL     1      23.033  -1.733  55.669  1.00  0.00    -0.282 NA
HETATM   14  N4  UNL     1      20.924  -1.642  54.552  1.00  0.00    -0.227 NA
HETATM   15  H18 UNL     1      22.764  -2.628  56.117  1.00  0.00     0.188 HD
HETATM   16  C19 UNL     1      20.294  -0.873  53.738  1.00  0.00     0.097 A 
HETATM   17  C20 UNL     1      18.954  -1.152  53.275  1.00  0.00     0.013 A 
HETATM   18  C21 UNL     1      18.312  -2.278  53.687  1.00  0.00     0.017 A 
HETATM   19  C24 UNL     1      18.156  -0.406  52.456  1.00  0.00     0.130 A 
HETATM   20  C22 UNL     1      17.046  -2.699  53.379  1.00  0.00     0.020 A 
HETATM   21  C23 UNL     1      16.354  -1.847  52.545  1.00  0.00     0.116 A 
HETATM   22  N5  UNL     1      16.926  -0.730  52.109  1.00  0.00    -0.272 NA
ENDBRANCH   8  10
ENDBRANCH   6   8
BRANCH   1  23
HETATM   23  C9  UNL     1      24.658   4.015  51.114  1.00  0.00     0.161 C 
BRANCH  23  24
HETATM   24  N1  UNL     1      25.159   3.208  52.180  1.00  0.00    -0.353 N 
HETATM   25  C8  UNL     1      26.287   2.421  52.307  1.00  0.00     0.254 C 
HETATM   26  O2  UNL     1      27.078   2.350  51.291  1.00  0.00    -0.268 OA
HETATM   27  H8  UNL     1      24.693   3.125  53.093  1.00  0.00     0.163 HD
BRANCH  25  28
HETATM   28  C7  UNL     1      27.150   1.574  52.991  1.00  0.00     0.065 A 
HETATM   29  C2  UNL     1      27.948   0.766  53.616  1.00  0.00     0.084 A 
HETATM   30  C3  UNL     1      28.435  -0.452  53.867  1.00  0.00     0.038 A 
HETATM   31  C4  UNL     1      27.817  -1.400  53.099  1.00  0.00     0.003 A 
HETATM   32  C5  UNL     1      26.814  -1.007  52.191  1.00  0.00     0.001 A 
HETATM   33  C6  UNL     1      26.549   0.411  52.193  1.00  0.00     0.020 A 
BRANCH  29  34
HETATM   34  O1  UNL     1      28.430   1.954  54.273  1.00  0.00    -0.355 OA
HETATM   35  C1  UNL     1      29.768   2.149  54.579  1.00  0.00     0.210 C 
ENDBRANCH  29  34
ENDBRANCH  25  28
ENDBRANCH  23  24
ENDBRANCH   1  23
TORSDOF 6
ENDMDL
MODEL 2
REMARK VINA RESULT:      -9.6      3.265      6.248
REMARK  6 active torsions:
REMARK  status: ('A' for Active; 'I' for Inactive)
REMARK    1  A    between atoms: O1_2  and  C2_3 
REMARK    2  A    between atoms: C7_8  and  C8_9 
REMARK       I    between atoms: C8_9  and  N1_11 
REMARK    3  A    between atoms: N1_11  and  C9_12 
REMARK    4  A    between atoms: C9_12  and  C10_13 
REMARK    5  A    between atoms: C15_18  and  N2_19 
REMARK    6  A    between atoms: N2_19  and  C16_20 
ROOT
HETATM    1  C10 UNL     1      22.024   4.243  51.924  1.00  0.00    -0.038 A 
HETATM    2  C11 UNL     1      20.983   4.012  51.079  1.00  0.00     0.009 A 
HETATM    3  C12 UNL     1      20.841   2.743  50.544  1.00  0.00     0.009 A 
HETATM    4  C13 UNL     1      21.698   1.715  50.823  1.00  0.00    -0.035 A 
HETATM    5  C14 UNL     1      21.453   0.405  50.155  1.00  0.00     0.050 C 
HETATM    6  C15 UNL     1      22.771   1.934  51.693  1.00  0.00     0.039 A 
HETATM    7  C25 UNL     1      22.906   3.232  52.233  1.00  0.00     0.038 A 
ENDROOT
BRANCH   6   8
HETATM    8  N2  UNL     1      23.715   0.892  52.035  1.00  0.00    -0.354 N 
HETATM    9  H16 UNL     1      24.341   0.779  51.162  1.00  0.00     0.166 HD
BRANCH   8  10
HETATM   10  C16 UNL     1      23.866   0.129  53.203  1.00  0.00     0.066 A 
HETATM   11  C17 UNL     1      22.816  -0.529  53.645  1.00  0.00     0.083 A 
HETATM   12  C18 UNL     1      23.370  -1.173  54.829  1.00  0.00     0.145 A 
HETATM   13  N3  UNL     1      22.776  -1.967  55.695  1.00  0.00    -0.282 NA
HETATM   14  N4  UNL     1      24.722  -0.801  54.947  1.00  0.00    -0.227 NA
HETATM   15  H18 UNL     1      23.308  -2.351  56.497  1.00  0.00     0.188 HD
HETATM   16  C19 UNL     1      25.072  -0.019  53.990  1.00  0.00     0.097 A 
HETATM   17  C20 UNL     1      26.414   0.496  53.850  1.00  0.00     0.013 A 
HETATM   18  C21 UNL     1      27.367   0.172  54.765  1.00  0.00     0.017 A 
HETATM   19  C24 UNL     1      26.931   1.289  52.867  1.00  0.00     0.130 A 
HETATM   20  C22 UNL     1      28.686   0.540  54.790  1.00  0.00     0.020 A 
HETATM   21  C23 UNL     1      29.071   1.338  53.734  1.00  0.00     0.116 A 
HETATM   22  N5  UNL     1      28.186   1.689  52.807  1.00  0.00    -0.272 NA
ENDBRANCH   8  10
ENDBRANCH   6   8
BRANCH   1  23
HETATM   23  C9  UNL     1      22.561   5.509  52.589  1.00  0.00     0.161 C 
BRANCH  23  24
HETATM   24  N1  UNL     1      23.900   5.578  52.100  1.00  0.00    -0.353 N 
HETATM   25  C8  UNL     1      24.442   6.047  50.919  1.00  0.00     0.254 C 
HETATM   26  O2  UNL     1      23.626   6.517  50.038  1.00  0.00    -0.268 OA
HETATM   27  H8  UNL     1      24.717   5.268  52.643  1.00  0.00     0.163 HD
BRANCH  25  28
HETATM   28  C7  UNL     1      25.488   6.336  50.051  1.00  0.00     0.065 A 
HETATM   29  C2  UNL     1      26.467   6.584  49.239  1.00  0.00     0.084 A 
HETATM   30  C3  UNL     1      27.493   6.199  48.476  1.00  0.00     0.038 A 
HETATM   31  C4  UNL     1      27.664   4.843  48.522  1.00  0.00     0.003 A 
HETATM   32  C5  UNL     1      26.793   4.065  49.310  1.00  0.00     0.001 A 
HETATM   33  C6  UNL     1      25.790   4.834  50.005  1.00  0.00     0.020 A 
BRANCH  29  34
HETATM   34  O1  UNL     1      26.054   7.958  49.363  1.00  0.00    -0.355 OA
HETATM   35  C1  UNL     1      26.758   8.887  50.114  1.00  0.00     0.210 C 
ENDBRANCH  29  34
ENDBRANCH  25  28
ENDBRANCH  23  24
ENDBRANCH   1  23
TORSDOF 6
ENDMDL
MODEL 3
REMARK VINA RESULT:      -9.6      2.644      6.019
REMARK  6 active torsions:
REMARK  status: ('A' for Active; 'I' for Inactive)
REMARK    1  A    between atoms: O1_2  and  C2_3 
REMARK    2  A    between atoms: C7_8  and  C8_9 
REMARK       I    between atoms: C8_9  and  N1_11 
REMARK    3  A    between atoms: N1_11  and  C9_12 
REMARK    4  A    between atoms: C9_12  and  C10_13 
REMARK    5  A    between atoms: C15_18  and  N2_19 
REMARK    6  A    between atoms: N2_19  and  C16_20 
ROOT
HETATM    1  C10 UNL     1      22.384  -0.016  52.900  1.00  0.00    -0.038 A 
HETATM    2  C11 UNL     1      21.067  -0.258  52.661  1.00  0.00     0.009 A 
HETATM    3  C12 UNL     1      20.463   0.395  51.599  1.00  0.00     0.009 A 
HETATM    4  C13 UNL     1      21.127   1.270  50.785  1.00  0.00    -0.035 A 
HETATM    5  C14 UNL     1      20.352   1.932  49.698  1.00  0.00     0.050 C 
HETATM    6  C15 UNL     1      22.483   1.526  51.016  1.00  0.00     0.039 A 
HETATM    7  C25 UNL     1      23.089   0.855  52.100  1.00  0.00     0.038 A 
ENDROOT
BRANCH   6   8
HETATM    8  N2  UNL     1      23.249   2.438  50.193  1.00  0.00    -0.354 N 
HETATM    9  H16 UNL     1      23.697   1.821  49.428  1.00  0.00     0.166 HD
BRANCH   8  10
HETATM   10  C16 UNL     1      23.442   3.824  50.285  1.00  0.00     0.066 A 
HETATM   11  C17 UNL     1      23.916   4.304  51.415  1.00  0.00     0.083 A 
HETATM   12  C18 UNL     1      23.970   5.728  51.111  1.00  0.00     0.145 A 
HETATM   13  N3  UNL     1      24.363   6.724  51.877  1.00  0.00    -0.282 NA
HETATM   14  N4  UNL     1      23.502   5.922  49.799  1.00  0.00    -0.227 NA
HETATM   15  H18 UNL     1      24.342   7.696  51.517  1.00  0.00     0.188 HD
HETATM   16  C19 UNL     1      23.173   4.805  49.255  1.00  0.00     0.097 A 
HETATM   17  C20 UNL     1      22.684   4.708  47.899  1.00  0.00     0.013 A 
HETATM   18  C21 UNL     1      22.537   5.831  47.145  1.00  0.00     0.017 A 
HETATM   19  C24 UNL     1      22.347   3.594  47.187  1.00  0.00     0.130 A 
HETATM   20  C22 UNL     1      22.113   5.938  45.848  1.00  0.00     0.020 A 
HETATM   21  C23 UNL     1      21.810   4.733  45.251  1.00  0.00     0.116 A 
HETATM   22  N5  UNL     1      21.934   3.601  45.934  1.00  0.00    -0.272 NA
ENDBRANCH   8  10
ENDBRANCH   6   8
BRANCH   1  23
HETATM   23  C9  UNL     1      23.330  -0.441  54.022  1.00  0.00     0.161 C 
BRANCH  23  24
HETATM   24  N1  UNL     1      24.611  -0.077  53.509  1.00  0.00    -0.353 N 
HETATM   25  C8  UNL     1      25.890  -0.190  54.019  1.00  0.00     0.254 C 
HETATM   26  O2  UNL     1      26.016  -0.709  55.193  1.00  0.00    -0.268 OA
HETATM   27  H8  UNL     1      24.750   0.345  52.581  1.00  0.00     0.163 HD
BRANCH  25  28
HETATM   28  C7  UNL     1      27.272  -0.051  53.973  1.00  0.00     0.065 A 
HETATM   29  C2  UNL     1      28.563   0.057  53.920  1.00  0.00     0.084 A 
HETATM   30  C3  UNL     1      29.778  -0.428  53.651  1.00  0.00     0.038 A 
HETATM   31  C4  UNL     1      29.706  -1.708  53.176  1.00  0.00     0.003 A 
HETATM   32  C5  UNL     1      28.445  -2.320  53.030  1.00  0.00     0.001 A 
HETATM   33  C6  UNL     1      27.340  -1.482  53.425  1.00  0.00     0.020 A 
BRANCH  29  34
HETATM   34  O1  UNL     1      28.343   1.391  54.419  1.00  0.00    -0.355 OA
HETATM   35  C1  UNL     1      28.569   2.523  53.652  1.00  0.00     0.210 C 
ENDBRANCH  29  34
ENDBRANCH  25  28
ENDBRANCH  23  24
ENDBRANCH   1  23
TORSDOF 6
ENDMDL
MODEL 4
REMARK VINA RESULT:      -9.4      1.606      3.670
REMARK  6 active torsions:
REMARK  status: ('A' for Active; 'I' for Inactive)
REMARK    1  A    between atoms: O1_2  and  C2_3 
REMARK    2  A    between atoms: C7_8  and  C8_9 
REMARK       I    between atoms: C8_9  and  N1_11 
REMARK    3  A    between atoms: N1_11  and  C9_12 
REMARK    4  A    between atoms: C9_12  and  C10_13 
REMARK    5  A    between atoms: C15_18  and  N2_19 
REMARK    6  A    between atoms: N2_19  and  C16_20 
ROOT
HETATM    1  C10 UNL     1      23.030   3.727  50.883  1.00  0.00    -0.038 A 
HETATM    2  C11 UNL     1      22.334   4.858  51.183  1.00  0.00     0.009 A 
HETATM    3  C12 UNL     1      20.970   4.752  51.397  1.00  0.00     0.009 A 
HETATM    4  C13 UNL     1      20.292   3.567  51.317  1.00  0.00    -0.035 A 
HETATM    5  C14 UNL     1      18.818   3.594  51.536  1.00  0.00     0.050 C 
HETATM    6  C15 UNL     1      20.993   2.395  51.014  1.00  0.00     0.039 A 
HETATM    7  C25 UNL     1      22.383   2.515  50.798  1.00  0.00     0.038 A 
ENDROOT
BRANCH   6   8
HETATM    8  N2  UNL     1      20.340   1.107  50.915  1.00  0.00    -0.354 N 
HETATM    9  H16 UNL     1      20.493   0.789  49.894  1.00  0.00     0.166 HD
BRANCH   8  10
HETATM   10  C16 UNL     1      19.632   0.356  51.865  1.00  0.00     0.066 A 
HETATM   11  C17 UNL     1      18.332   0.229  51.703  1.00  0.00     0.083 A 
HETATM   12  C18 UNL     1      17.988  -0.594  52.855  1.00  0.00     0.145 A 
HETATM   13  N3  UNL     1      16.808  -1.044  53.228  1.00  0.00    -0.282 NA
HETATM   14  N4  UNL     1      19.163  -0.858  53.583  1.00  0.00    -0.227 NA
HETATM   15  H18 UNL     1      16.720  -1.624  54.083  1.00  0.00     0.188 HD
HETATM   16  C19 UNL     1      20.184  -0.310  53.026  1.00  0.00     0.097 A 
HETATM   17  C20 UNL     1      21.524  -0.442  53.548  1.00  0.00     0.013 A 
HETATM   18  C21 UNL     1      21.746  -1.154  54.686  1.00  0.00     0.017 A 
HETATM   19  C24 UNL     1      22.695   0.041  53.039  1.00  0.00     0.130 A 
HETATM   20  C22 UNL     1      22.935  -1.407  55.316  1.00  0.00     0.020 A 
HETATM   21  C23 UNL     1      24.034  -0.861  54.689  1.00  0.00     0.116 A 
HETATM   22  N5  UNL     1      23.884  -0.155  53.574  1.00  0.00    -0.272 NA
ENDBRANCH   8  10
ENDBRANCH   6   8
BRANCH   1  23
HETATM   23  C9  UNL     1      24.479   3.479  50.471  1.00  0.00     0.161 C 
BRANCH  23  24
HETATM   24  N1  UNL     1      24.850   2.362  51.280  1.00  0.00    -0.353 N 
HETATM   25  C8  UNL     1      26.075   1.842  51.651  1.00  0.00     0.254 C 
HETATM   26  O2  UNL     1      27.130   2.430  51.200  1.00  0.00    -0.268 OA
HETATM   27  H8  UNL     1      24.168   1.755  51.752  1.00  0.00     0.163 HD
BRANCH  25  28
HETATM   28  C7  UNL     1      26.904   0.947  52.316  1.00  0.00     0.065 A 
HETATM   29  C2  UNL     1      27.688   0.130  52.947  1.00  0.00     0.084 A 
HETATM   30  C3  UNL     1      28.715  -0.129  53.760  1.00  0.00     0.038 A 
HETATM   31  C4  UNL     1      29.298   1.025  54.204  1.00  0.00     0.003 A 
HETATM   32  C5  UNL     1      28.779   2.267  53.784  1.00  0.00     0.001 A 
HETATM   33  C6  UNL     1      27.650   2.155  52.894  1.00  0.00     0.020 A 
BRANCH  29  34
HETATM   34  O1  UNL     1      26.882  -0.903  52.348  1.00  0.00    -0.355 OA
HETATM   35  C1  UNL     1      27.155  -2.253  52.509  1.00  0.00     0.210 C 
ENDBRANCH  29  34
ENDBRANCH  25  28
ENDBRANCH  23  24
ENDBRANCH   1  23
TORSDOF 6
ENDMDL
MODEL 5
REMARK VINA RESULT:      -9.2      4.556      7.458
REMARK  6 active torsions:
REMARK  status: ('A' for Active; 'I' for Inactive)
REMARK    1  A    between atoms: O1_2  and  C2_3 
REMARK    2  A    between atoms: C7_8  and  C8_9 
REMARK       I    between atoms: C8_9  and  N1_11 
REMARK    3  A    between atoms: N1_11  and  C9_12 
REMARK    4  A    between atoms: C9_12  and  C10_13 
REMARK    5  A    between atoms: C15_18  and  N2_19 
REMARK    6  A    between atoms: N2_19  and  C16_20 
ROOT
HETATM    1  C10 UNL     1      25.782   4.581  49.501  1.00  0.00    -0.038 A 
HETATM    2  C11 UNL     1      24.760   5.315  48.983  1.00  0.00     0.009 A 
HETATM    3  C12 UNL     1      23.570   5.371  49.688  1.00  0.00     0.009 A 
HETATM    4  C13 UNL     1      23.374   4.723  50.876  1.00  0.00    -0.035 A 
HETATM    5  C14 UNL     1      22.034   4.837  51.518  1.00  0.00     0.050 C 
HETATM    6  C15 UNL     1      24.417   3.967  51.424  1.00  0.00     0.039 A 
HETATM    7  C25 UNL     1      25.626   3.917  50.696  1.00  0.00     0.038 A 
ENDROOT
BRANCH   6   8
HETATM    8  N2  UNL     1      24.281   3.257  52.678  1.00  0.00    -0.354 N 
HETATM    9  H16 UNL     1      24.289   4.023  53.439  1.00  0.00     0.166 HD
BRANCH   8  10
HETATM   10  C16 UNL     1      24.168   1.887  52.955  1.00  0.00     0.066 A 
HETATM   11  C17 UNL     1      23.005   1.310  52.736  1.00  0.00     0.083 A 
HETATM   12  C18 UNL     1      23.297  -0.061  53.131  1.00  0.00     0.145 A 
HETATM   13  N3  UNL     1      22.500  -1.110  53.136  1.00  0.00    -0.282 NA
HETATM   14  N4  UNL     1      24.637  -0.129  53.554  1.00  0.00    -0.227 NA
HETATM   15  H18 UNL     1      22.856  -2.031  53.450  1.00  0.00     0.188 HD
HETATM   16  C19 UNL     1      25.208   1.019  53.464  1.00  0.00     0.097 A 
HETATM   17  C20 UNL     1      26.595   1.232  53.807  1.00  0.00     0.013 A 
HETATM   18  C21 UNL     1      27.351   0.198  54.266  1.00  0.00     0.017 A 
HETATM   19  C24 UNL     1      27.336   2.375  53.716  1.00  0.00     0.130 A 
HETATM   20  C22 UNL     1      28.674   0.199  54.618  1.00  0.00     0.020 A 
HETATM   21  C23 UNL     1      29.297   1.420  54.472  1.00  0.00     0.116 A 
HETATM   22  N5  UNL     1      28.613   2.469  54.029  1.00  0.00    -0.272 NA
ENDBRANCH   8  10
ENDBRANCH   6   8
BRANCH   1  23
HETATM   23  C9  UNL     1      27.158   4.193  48.963  1.00  0.00     0.161 C 
BRANCH  23  24
HETATM   24  N1  UNL     1      27.852   5.440  48.943  1.00  0.00    -0.353 N 
HETATM   25  C8  UNL     1      29.082   5.818  48.440  1.00  0.00     0.254 C 
HETATM   26  O2  UNL     1      29.798   4.905  47.876  1.00  0.00    -0.268 OA
HETATM   27  H8  UNL     1      27.464   6.310  49.329  1.00  0.00     0.163 HD
BRANCH  25  28
HETATM   28  C7  UNL     1      30.093   6.730  48.163  1.00  0.00     0.065 A 
HETATM   29  C2  UNL     1      31.024   7.589  47.886  1.00  0.00     0.084 A 
HETATM   30  C3  UNL     1      31.541   8.570  47.142  1.00  0.00     0.038 A 
HETATM   31  C4  UNL     1      30.710   8.896  46.106  1.00  0.00     0.003 A 
HETATM   32  C5  UNL     1      29.487   8.211  45.960  1.00  0.00     0.001 A 
HETATM   33  C6  UNL     1      29.261   7.201  46.965  1.00  0.00     0.020 A 
BRANCH  29  34
HETATM   34  O1  UNL     1      31.682   7.059  49.054  1.00  0.00    -0.355 OA
HETATM   35  C1  UNL     1      32.842   6.305  48.980  1.00  0.00     0.210 C 
ENDBRANCH  29  34
ENDBRANCH  25  28
ENDBRANCH  23  24
ENDBRANCH   1  23
TORSDOF 6
ENDMDL
MODEL 6
REMARK VINA RESULT:      -9.2      5.260     10.143
REMARK  6 active torsions:
REMARK  status: ('A' for Active; 'I' for Inactive)
REMARK    1  A    between atoms: O1_2  and  C2_3 
REMARK    2  A    between atoms: C7_8  and  C8_9 
REMARK       I    between atoms: C8_9  and  N1_11 
REMARK    3  A    between atoms: N1_11  and  C9_12 
REMARK    4  A    between atoms: C9_12  and  C10_13 
REMARK    5  A    between atoms: C15_18  and  N2_19 
REMARK    6  A    between atoms: N2_19  and  C16_20 
ROOT
HETATM    1  C10 UNL     1      26.144   4.314  49.457  1.00  0.00    -0.038 A 
HETATM    2  C11 UNL     1      24.941   4.879  49.751  1.00  0.00     0.009 A 
HETATM    3  C12 UNL     1      24.745   6.211  49.425  1.00  0.00     0.009 A 
HETATM    4  C13 UNL     1      25.703   6.982  48.825  1.00  0.00    -0.035 A 
HETATM    5  C14 UNL     1      25.377   8.411  48.557  1.00  0.00     0.050 C 
HETATM    6  C15 UNL     1      26.943   6.414  48.514  1.00  0.00     0.039 A 
HETATM    7  C25 UNL     1      27.132   5.056  48.851  1.00  0.00     0.038 A 
ENDROOT
BRANCH   6   8
HETATM    8  N2  UNL     1      28.001   7.170  47.878  1.00  0.00    -0.354 N 
HETATM    9  H16 UNL     1      27.841   7.044  46.817  1.00  0.00     0.166 HD
BRANCH   8  10
HETATM   10  C16 UNL     1      29.054   7.921  48.421  1.00  0.00     0.066 A 
HETATM   11  C17 UNL     1      28.779   9.128  48.869  1.00  0.00     0.083 A 
HETATM   12  C18 UNL     1      30.090   9.556  49.336  1.00  0.00     0.145 A 
HETATM   13  N3  UNL     1      30.441  10.700  49.887  1.00  0.00    -0.282 NA
HETATM   14  N4  UNL     1      31.011   8.519  49.095  1.00  0.00    -0.227 NA
HETATM   15  H18 UNL     1      31.426  10.860  50.169  1.00  0.00     0.188 HD
HETATM   16  C19 UNL     1      30.436   7.509  48.547  1.00  0.00     0.097 A 
HETATM   17  C20 UNL     1      31.140   6.293  48.214  1.00  0.00     0.013 A 
HETATM   18  C21 UNL     1      32.473   6.188  48.461  1.00  0.00     0.017 A 
HETATM   19  C24 UNL     1      30.650   5.137  47.678  1.00  0.00     0.130 A 
HETATM   20  C22 UNL     1      33.301   5.120  48.237  1.00  0.00     0.020 A 
HETATM   21  C23 UNL     1      32.671   4.020  47.697  1.00  0.00     0.116 A 
HETATM   22  N5  UNL     1      31.370   4.060  47.432  1.00  0.00    -0.272 NA
ENDBRANCH   8  10
ENDBRANCH   6   8
BRANCH   1  23
HETATM   23  C9  UNL     1      26.753   2.949  49.772  1.00  0.00     0.161 C 
BRANCH  23  24
HETATM   24  N1  UNL     1      26.469   2.790  51.162  1.00  0.00    -0.353 N 
HETATM   25  C8  UNL     1      26.500   1.695  52.003  1.00  0.00     0.254 C 
HETATM   26  O2  UNL     1      26.833   0.560  51.487  1.00  0.00    -0.268 OA
HETATM   27  H8  UNL     1      26.194   3.568  51.776  1.00  0.00     0.163 HD
BRANCH  25  28
HETATM   28  C7  UNL     1      26.367   1.056  53.230  1.00  0.00     0.065 A 
HETATM   29  C2  UNL     1      26.224   0.450  54.367  1.00  0.00     0.084 A 
HETATM   30  C3  UNL     1      25.548  -0.338  55.207  1.00  0.00     0.038 A 
HETATM   31  C4  UNL     1      24.383  -0.779  54.643  1.00  0.00     0.003 A 
HETATM   32  C5  UNL     1      24.057  -0.381  53.331  1.00  0.00     0.001 A 
HETATM   33  C6  UNL     1      25.038   0.485  52.724  1.00  0.00     0.020 A 
BRANCH  29  34
HETATM   34  O1  UNL     1      27.496   1.040  54.696  1.00  0.00    -0.355 OA
HETATM   35  C1  UNL     1      28.669   0.303  54.758  1.00  0.00     0.210 C 
ENDBRANCH  29  34
ENDBRANCH  25  28
ENDBRANCH  23  24
ENDBRANCH   1  23
TORSDOF 6
ENDMDL
MODEL 7
REMARK VINA RESULT:      -9.2      2.516      5.806
REMARK  6 active torsions:
REMARK  status: ('A' for Active; 'I' for Inactive)
REMARK    1  A    between atoms: O1_2  and  C2_3 
REMARK    2  A    between atoms: C7_8  and  C8_9 
REMARK       I    between atoms: C8_9  and  N1_11 
REMARK    3  A    between atoms: N1_11  and  C9_12 
REMARK    4  A    between atoms: C9_12  and  C10_13 
REMARK    5  A    between atoms: C15_18  and  N2_19 
REMARK    6  A    between atoms: N2_19  and  C16_20 
ROOT
HETATM    1  C10 UNL     1      21.829  -0.156  52.895  1.00  0.00    -0.038 A 
HETATM    2  C11 UNL     1      20.484  -0.306  52.759  1.00  0.00     0.009 A 
HETATM    3  C12 UNL     1      19.856   0.330  51.701  1.00  0.00     0.009 A 
HETATM    4  C13 UNL     1      20.524   1.101  50.791  1.00  0.00    -0.035 A 
HETATM    5  C14 UNL     1      19.726   1.758  49.718  1.00  0.00     0.050 C 
HETATM    6  C15 UNL     1      21.909   1.262  50.914  1.00  0.00     0.039 A 
HETATM    7  C25 UNL     1      22.538   0.609  51.997  1.00  0.00     0.038 A 
ENDROOT
BRANCH   6   8
HETATM    8  N2  UNL     1      22.680   2.062  49.987  1.00  0.00    -0.354 N 
HETATM    9  H16 UNL     1      22.246   1.870  49.017  1.00  0.00     0.166 HD
BRANCH   8  10
HETATM   10  C16 UNL     1      23.771   2.920  50.193  1.00  0.00     0.066 A 
HETATM   11  C17 UNL     1      24.967   2.379  50.292  1.00  0.00     0.083 A 
HETATM   12  C18 UNL     1      25.792   3.563  50.490  1.00  0.00     0.145 A 
HETATM   13  N3  UNL     1      27.095   3.646  50.661  1.00  0.00    -0.282 NA
HETATM   14  N4  UNL     1      24.956   4.695  50.488  1.00  0.00    -0.227 NA
HETATM   15  H18 UNL     1      27.544   4.571  50.792  1.00  0.00     0.188 HD
HETATM   16  C19 UNL     1      23.728   4.362  50.308  1.00  0.00     0.097 A 
HETATM   17  C20 UNL     1      22.657   5.329  50.236  1.00  0.00     0.013 A 
HETATM   18  C21 UNL     1      22.924   6.655  50.379  1.00  0.00     0.017 A 
HETATM   19  C24 UNL     1      21.328   5.122  50.006  1.00  0.00     0.130 A 
HETATM   20  C22 UNL     1      22.056   7.712  50.320  1.00  0.00     0.020 A 
HETATM   21  C23 UNL     1      20.747   7.356  50.077  1.00  0.00     0.116 A 
HETATM   22  N5  UNL     1      20.421   6.076  49.929  1.00  0.00    -0.272 NA
ENDBRANCH   8  10
ENDBRANCH   6   8
BRANCH   1  23
HETATM   23  C9  UNL     1      22.818  -0.588  53.976  1.00  0.00     0.161 C 
BRANCH  23  24
HETATM   24  N1  UNL     1      24.083  -0.336  53.365  1.00  0.00    -0.353 N 
HETATM   25  C8  UNL     1      25.380  -0.405  53.836  1.00  0.00     0.254 C 
HETATM   26  O2  UNL     1      25.545  -0.747  55.069  1.00  0.00    -0.268 OA
HETATM   27  H8  UNL     1      24.191  -0.061  52.380  1.00  0.00     0.163 HD
BRANCH  25  28
HETATM   28  C7  UNL     1      26.761  -0.310  53.716  1.00  0.00     0.065 A 
HETATM   29  C2  UNL     1      28.048  -0.198  53.608  1.00  0.00     0.084 A 
HETATM   30  C3  UNL     1      29.170   0.525  53.559  1.00  0.00     0.038 A 
HETATM   31  C4  UNL     1      28.904   1.860  53.681  1.00  0.00     0.003 A 
HETATM   32  C5  UNL     1      27.570   2.287  53.840  1.00  0.00     0.001 A 
HETATM   33  C6  UNL     1      26.611   1.210  53.847  1.00  0.00     0.020 A 
BRANCH  29  34
HETATM   34  O1  UNL     1      28.037  -1.636  53.520  1.00  0.00    -0.355 OA
HETATM   35  C1  UNL     1      29.175  -2.378  53.244  1.00  0.00     0.210 C 
ENDBRANCH  29  34
ENDBRANCH  25  28
ENDBRANCH  23  24
ENDBRANCH   1  23
TORSDOF 6
ENDMDL
MODEL 8
REMARK VINA RESULT:      -9.1      4.496      6.195
REMARK  6 active torsions:
REMARK  status: ('A' for Active; 'I' for Inactive)
REMARK    1  A    between atoms: O1_2  and  C2_3 
REMARK    2  A    between atoms: C7_8  and  C8_9 
REMARK       I    between atoms: C8_9  and  N1_11 
REMARK    3  A    between atoms: N1_11  and  C9_12 
REMARK    4  A    between atoms: C9_12  and  C10_13 
REMARK    5  A    between atoms: C15_18  and  N2_19 
REMARK    6  A    between atoms: N2_19  and  C16_20 
ROOT
HETATM    1  C10 UNL     1      25.718   5.976  49.629  1.00  0.00    -0.038 A 
HETATM    2  C11 UNL     1      25.047   6.843  50.434  1.00  0.00     0.009 A 
HETATM    3  C12 UNL     1      24.203   6.322  51.401  1.00  0.00     0.009 A 
HETATM    4  C13 UNL     1      24.013   4.980  51.581  1.00  0.00    -0.035 A 
HETATM    5  C14 UNL     1      23.052   4.550  52.636  1.00  0.00     0.050 C 
HETATM    6  C15 UNL     1      24.699   4.075  50.764  1.00  0.00     0.039 A 
HETATM    7  C25 UNL     1      25.556   4.618  49.782  1.00  0.00     0.038 A 
ENDROOT
BRANCH   6   8
HETATM    8  N2  UNL     1      24.547   2.642  50.899  1.00  0.00    -0.354 N 
HETATM    9  H16 UNL     1      23.766   2.372  50.203  1.00  0.00     0.166 HD
BRANCH   8  10
HETATM   10  C16 UNL     1      25.206   1.718  51.724  1.00  0.00     0.066 A 
HETATM   11  C17 UNL     1      26.522   1.697  51.694  1.00  0.00     0.083 A 
HETATM   12  C18 UNL     1      26.804   0.642  52.658  1.00  0.00     0.145 A 
HETATM   13  N3  UNL     1      27.968   0.164  53.046  1.00  0.00    -0.282 NA
HETATM   14  N4  UNL     1      25.582   0.150  53.153  1.00  0.00    -0.227 NA
HETATM   15  H18 UNL     1      28.010  -0.597  53.748  1.00  0.00     0.188 HD
HETATM   16  C19 UNL     1      24.587   0.767  52.624  1.00  0.00     0.097 A 
HETATM   17  C20 UNL     1      23.214   0.482  52.971  1.00  0.00     0.013 A 
HETATM   18  C21 UNL     1      22.928  -0.489  53.879  1.00  0.00     0.017 A 
HETATM   19  C24 UNL     1      22.074   1.086  52.527  1.00  0.00     0.130 A 
HETATM   20  C22 UNL     1      21.704  -0.886  54.348  1.00  0.00     0.020 A 
HETATM   21  C23 UNL     1      20.642  -0.187  53.817  1.00  0.00     0.116 A 
HETATM   22  N5  UNL     1      20.856   0.774  52.924  1.00  0.00    -0.272 NA
ENDBRANCH   8  10
ENDBRANCH   6   8
BRANCH   1  23
HETATM   23  C9  UNL     1      26.611   6.175  48.406  1.00  0.00     0.161 C 
BRANCH  23  24
HETATM   24  N1  UNL     1      27.900   5.805  48.893  1.00  0.00    -0.353 N 
HETATM   25  C8  UNL     1      29.177   6.000  48.402  1.00  0.00     0.254 C 
HETATM   26  O2  UNL     1      29.291   6.621  47.277  1.00  0.00    -0.268 OA
HETATM   27  H8  UNL     1      28.049   5.310  49.782  1.00  0.00     0.163 HD
BRANCH  25  28
HETATM   28  C7  UNL     1      30.562   5.899  48.444  1.00  0.00     0.065 A 
HETATM   29  C2  UNL     1      31.855   5.827  48.489  1.00  0.00     0.084 A 
HETATM   30  C3  UNL     1      33.063   6.374  48.649  1.00  0.00     0.038 A 
HETATM   31  C4  UNL     1      32.969   7.715  48.900  1.00  0.00     0.003 A 
HETATM   32  C5  UNL     1      31.697   8.318  48.964  1.00  0.00     0.001 A 
HETATM   33  C6  UNL     1      30.606   7.403  48.739  1.00  0.00     0.020 A 
BRANCH  29  34
HETATM   34  O1  UNL     1      31.658   4.424  48.230  1.00  0.00    -0.355 OA
HETATM   35  C1  UNL     1      32.034   3.824  47.037  1.00  0.00     0.210 C 
ENDBRANCH  29  34
ENDBRANCH  25  28
ENDBRANCH  23  24
ENDBRANCH   1  23
TORSDOF 6
ENDMDL
MODEL 9
REMARK VINA RESULT:      -9.1      3.521      6.323
REMARK  6 active torsions:
REMARK  status: ('A' for Active; 'I' for Inactive)
REMARK    1  A    between atoms: O1_2  and  C2_3 
REMARK    2  A    between atoms: C7_8  and  C8_9 
REMARK       I    between atoms: C8_9  and  N1_11 
REMARK    3  A    between atoms: N1_11  and  C9_12 
REMARK    4  A    between atoms: C9_12  and  C10_13 
REMARK    5  A    between atoms: C15_18  and  N2_19 
REMARK    6  A    between atoms: N2_19  and  C16_20 
ROOT
HETATM    1  C10 UNL     1      26.684   4.365  49.359  1.00  0.00    -0.038 A 
HETATM    2  C11 UNL     1      27.540   5.070  48.573  1.00  0.00     0.009 A 
HETATM    3  C12 UNL     1      27.383   6.444  48.499  1.00  0.00     0.009 A 
HETATM    4  C13 UNL     1      26.407   7.121  49.177  1.00  0.00    -0.035 A 
HETATM    5  C14 UNL     1      26.323   8.597  48.985  1.00  0.00     0.050 C 
HETATM    6  C15 UNL     1      25.520   6.410  49.993  1.00  0.00     0.039 A 
HETATM    7  C25 UNL     1      25.691   5.010  50.061  1.00  0.00     0.038 A 
ENDROOT
BRANCH   6   8
HETATM    8  N2  UNL     1      24.465   7.061  50.741  1.00  0.00    -0.354 N 
HETATM    9  H16 UNL     1      24.935   7.409  51.649  1.00  0.00     0.166 HD
BRANCH   8  10
HETATM   10  C16 UNL     1      23.106   7.246  50.449  1.00  0.00     0.066 A 
HETATM   11  C17 UNL     1      22.753   8.360  49.843  1.00  0.00     0.083 A 
HETATM   12  C18 UNL     1      21.315   8.168  49.723  1.00  0.00     0.145 A 
HETATM   13  N3  UNL     1      20.412   8.971  49.198  1.00  0.00    -0.282 NA
HETATM   14  N4  UNL     1      20.981   6.926  50.295  1.00  0.00    -0.227 NA
HETATM   15  H18 UNL     1      19.414   8.693  49.187  1.00  0.00     0.188 HD
HETATM   16  C19 UNL     1      22.026   6.328  50.744  1.00  0.00     0.097 A 
HETATM   17  C20 UNL     1      21.977   5.022  51.359  1.00  0.00     0.013 A 
HETATM   18  C21 UNL     1      20.787   4.378  51.499  1.00  0.00     0.017 A 
HETATM   19  C24 UNL     1      23.004   4.257  51.832  1.00  0.00     0.130 A 
HETATM   20  C22 UNL     1      20.544   3.140  52.030  1.00  0.00     0.020 A 
HETATM   21  C23 UNL     1      21.673   2.480  52.465  1.00  0.00     0.116 A 
HETATM   22  N5  UNL     1      22.865   3.055  52.356  1.00  0.00    -0.272 NA
ENDBRANCH   8  10
ENDBRANCH   6   8
BRANCH   1  23
HETATM   23  C9  UNL     1      26.475   2.868  49.584  1.00  0.00     0.161 C 
BRANCH  23  24
HETATM   24  N1  UNL     1      26.361   2.775  51.004  1.00  0.00    -0.353 N 
HETATM   25  C8  UNL     1      26.504   1.723  51.887  1.00  0.00     0.254 C 
HETATM   26  O2  UNL     1      26.782   0.565  51.390  1.00  0.00    -0.268 OA
HETATM   27  H8  UNL     1      26.156   3.581  51.609  1.00  0.00     0.163 HD
BRANCH  25  28
HETATM   28  C7  UNL     1      26.525   1.144  53.150  1.00  0.00     0.065 A 
HETATM   29  C2  UNL     1      26.527   0.591  54.322  1.00  0.00     0.084 A 
HETATM   30  C3  UNL     1      26.002  -0.218  55.247  1.00  0.00     0.038 A 
HETATM   31  C4  UNL     1      24.860  -0.815  54.791  1.00  0.00     0.003 A 
HETATM   32  C5  UNL     1      24.406  -0.531  53.487  1.00  0.00     0.001 A 
HETATM   33  C6  UNL     1      25.239   0.402  52.769  1.00  0.00     0.020 A 
BRANCH  29  34
HETATM   34  O1  UNL     1      27.743   1.335  54.531  1.00  0.00    -0.355 OA
HETATM   35  C1  UNL     1      28.996   0.742  54.510  1.00  0.00     0.210 C 
ENDBRANCH  29  34
ENDBRANCH  25  28
ENDBRANCH  23  24
ENDBRANCH   1  23
TORSDOF 6
ENDMDL
