MODEL 1
REMARK VINA RESULT:      -7.3      0.000      0.000
REMARK  3 active torsions:
REMARK  status: ('A' for Active; 'I' for Inactive)
REMARK    1  A    between atoms: O1_2  and  C2_3 
REMARK    2  A    between atoms: C7_10  and  N3_11 
REMARK    3  A    between atoms: C13_18  and  O2_19 
ROOT
HETATM    1  C2  UNL     1      26.093   0.943  52.851  1.00  0.00     0.081 A 
HETATM    2  C3  UNL     1      24.807   0.774  52.605  1.00  0.00     0.052 A 
HETATM    3  C4  UNL     1      24.158  -0.044  53.611  1.00  0.00     0.041 A 
HETATM    4  C5  UNL     1      25.163  -0.366  54.493  1.00  0.00     0.085 A 
HETATM    5  N1  UNL     1      24.867  -1.151  55.539  1.00  0.00    -0.242 NA
HETATM    6  C6  UNL     1      23.598  -1.584  55.669  1.00  0.00     0.235 A 
HETATM    7  N2  UNL     1      22.642  -1.252  54.794  1.00  0.00    -0.223 NA
HETATM    8  C7  UNL     1      22.868  -0.463  53.715  1.00  0.00     0.147 A 
HETATM    9  C13 UNL     1      26.456   0.238  54.091  1.00  0.00     0.230 A 
ENDROOT
BRANCH   8  10
HETATM   10  N3  UNL     1      21.783  -0.135  52.902  1.00  0.00    -0.316 N 
HETATM   11  C8  UNL     1      21.652   0.599  51.705  1.00  0.00     0.094 A 
HETATM   12  C9  UNL     1      20.571   0.800  51.003  1.00  0.00    -0.004 A 
HETATM   13  C10 UNL     1      19.285   0.221  51.449  1.00  0.00     0.076 A 
HETATM   14  C11 UNL     1      19.352  -0.547  52.682  1.00  0.00     0.008 A 
HETATM   15 BR1  UNL     1      17.743  -1.311  53.306  1.00  0.00    -0.054 Br
HETATM   16  C12 UNL     1      20.500  -0.680  53.298  1.00  0.00     0.113 A 
ENDBRANCH   8  10
BRANCH   1  17
HETATM   17  O1  UNL     1      27.038   1.657  52.121  1.00  0.00    -0.357 OA
HETATM   18  C1  UNL     1      26.651   2.622  51.159  1.00  0.00     0.209 C 
ENDBRANCH   1  17
BRANCH   9  19
HETATM   19  O2  UNL     1      27.479  -0.680  53.962  1.00  0.00    -0.378 OA
HETATM   20  C14 UNL     1      28.587  -0.065  54.595  1.00  0.00     0.203 C 
ENDBRANCH   9  19
TORSDOF 3
ENDMDL
MODEL 2
REMARK VINA RESULT:      -7.2      3.583      6.175
REMARK  3 active torsions:
REMARK  status: ('A' for Active; 'I' for Inactive)
REMARK    1  A    between atoms: O1_2  and  C2_3 
REMARK    2  A    between atoms: C7_10  and  N3_11 
REMARK    3  A    between atoms: C13_18  and  O2_19 
ROOT
HETATM    1  C2  UNL     1      22.158   0.828  51.974  1.00  0.00     0.081 A 
HETATM    2  C3  UNL     1      23.421   0.943  52.339  1.00  0.00     0.052 A 
HETATM    3  C4  UNL     1      23.744   0.103  53.476  1.00  0.00     0.041 A 
HETATM    4  C5  UNL     1      22.562  -0.533  53.779  1.00  0.00     0.085 A 
HETATM    5  N1  UNL     1      22.540  -1.374  54.823  1.00  0.00    -0.242 NA
HETATM    6  C6  UNL     1      23.679  -1.552  55.520  1.00  0.00     0.235 A 
HETATM    7  N2  UNL     1      24.813  -0.918  55.199  1.00  0.00    -0.223 NA
HETATM    8  C7  UNL     1      24.910  -0.055  54.158  1.00  0.00     0.147 A 
HETATM    9  C13 UNL     1      21.475  -0.136  52.853  1.00  0.00     0.230 A 
ENDROOT
BRANCH   8  10
HETATM   10  N3  UNL     1      26.157   0.503  53.880  1.00  0.00    -0.316 N 
HETATM   11  C8  UNL     1      26.613   1.825  53.699  1.00  0.00     0.094 A 
HETATM   12  C9  UNL     1      27.835   2.228  53.486  1.00  0.00    -0.004 A 
HETATM   13  C10 UNL     1      28.934   1.243  53.412  1.00  0.00     0.076 A 
HETATM   14  C11 UNL     1      28.530  -0.143  53.589  1.00  0.00     0.008 A 
HETATM   15 BR1  UNL     1      29.887  -1.452  53.502  1.00  0.00    -0.054 Br
HETATM   16  C12 UNL     1      27.268  -0.425  53.798  1.00  0.00     0.113 A 
ENDBRANCH   8  10
BRANCH   1  17
HETATM   17  O1  UNL     1      21.483   1.467  50.939  1.00  0.00    -0.357 OA
HETATM   18  C1  UNL     1      21.346   0.863  49.665  1.00  0.00     0.209 C 
ENDBRANCH   1  17
BRANCH   9  19
HETATM   19  O2  UNL     1      20.353   0.352  53.493  1.00  0.00    -0.378 OA
HETATM   20  C14 UNL     1      19.314  -0.528  53.102  1.00  0.00     0.203 C 
ENDBRANCH   9  19
TORSDOF 3
ENDMDL
MODEL 3
REMARK VINA RESULT:      -7.1      1.857      3.059
REMARK  3 active torsions:
REMARK  status: ('A' for Active; 'I' for Inactive)
REMARK    1  A    between atoms: O1_2  and  C2_3 
REMARK    2  A    between atoms: C7_10  and  N3_11 
REMARK    3  A    between atoms: C13_18  and  O2_19 
ROOT
HETATM    1  C2  UNL     1      26.453  -0.017  53.817  1.00  0.00     0.081 A 
HETATM    2  C3  UNL     1      25.149  -0.219  53.796  1.00  0.00     0.052 A 
HETATM    3  C4  UNL     1      24.425   0.925  53.276  1.00  0.00     0.041 A 
HETATM    4  C5  UNL     1      25.403   1.847  52.985  1.00  0.00     0.085 A 
HETATM    5  N1  UNL     1      25.030   3.041  52.499  1.00  0.00    -0.242 NA
HETATM    6  C6  UNL     1      23.715   3.272  52.324  1.00  0.00     0.235 A 
HETATM    7  N2  UNL     1      22.787   2.353  52.617  1.00  0.00    -0.223 NA
HETATM    8  C7  UNL     1      23.090   1.126  53.109  1.00  0.00     0.147 A 
HETATM    9  C13 UNL     1      26.755   1.324  53.291  1.00  0.00     0.230 A 
ENDROOT
BRANCH   8  10
HETATM   10  N3  UNL     1      22.045   0.228  53.322  1.00  0.00    -0.316 N 
HETATM   11  C8  UNL     1      21.888  -0.900  54.154  1.00  0.00     0.094 A 
HETATM   12  C9  UNL     1      20.827  -1.644  54.301  1.00  0.00    -0.004 A 
HETATM   13  C10 UNL     1      19.598  -1.335  53.538  1.00  0.00     0.076 A 
HETATM   14  C11 UNL     1      19.696  -0.182  52.658  1.00  0.00     0.008 A 
HETATM   15 BR1  UNL     1      18.161   0.265  51.653  1.00  0.00    -0.054 Br
HETATM   16  C12 UNL     1      20.819   0.490  52.596  1.00  0.00     0.113 A 
ENDBRANCH   8  10
BRANCH   1  17
HETATM   17  O1  UNL     1      27.465  -0.873  54.243  1.00  0.00    -0.357 OA
HETATM   18  C1  UNL     1      28.592  -1.144  53.430  1.00  0.00     0.209 C 
ENDBRANCH   1  17
BRANCH   9  19
HETATM   19  O2  UNL     1      27.482   2.134  54.141  1.00  0.00    -0.378 OA
HETATM   20  C14 UNL     1      28.638   2.477  53.398  1.00  0.00     0.203 C 
ENDBRANCH   9  19
TORSDOF 3
ENDMDL
MODEL 4
REMARK VINA RESULT:      -7.0      3.579      5.756
REMARK  3 active torsions:
REMARK  status: ('A' for Active; 'I' for Inactive)
REMARK    1  A    between atoms: O1_2  and  C2_3 
REMARK    2  A    between atoms: C7_10  and  N3_11 
REMARK    3  A    between atoms: C13_18  and  O2_19 
ROOT
HETATM    1  C2  UNL     1      26.743   1.186  54.046  1.00  0.00     0.081 A 
HETATM    2  C3  UNL     1      26.679   1.983  52.996  1.00  0.00     0.052 A 
HETATM    3  C4  UNL     1      25.395   1.907  52.326  1.00  0.00     0.041 A 
HETATM    4  C5  UNL     1      24.680   0.987  53.056  1.00  0.00     0.085 A 
HETATM    5  N1  UNL     1      23.437   0.682  52.657  1.00  0.00    -0.242 NA
HETATM    6  C6  UNL     1      22.954   1.295  51.559  1.00  0.00     0.235 A 
HETATM    7  N2  UNL     1      23.675   2.187  50.870  1.00  0.00    -0.223 NA
HETATM    8  C7  UNL     1      24.937   2.544  51.215  1.00  0.00     0.147 A 
HETATM    9  C13 UNL     1      25.467   0.469  54.201  1.00  0.00     0.230 A 
ENDROOT
BRANCH   8  10
HETATM   10  N3  UNL     1      25.572   3.528  50.457  1.00  0.00    -0.316 N 
HETATM   11  C8  UNL     1      26.673   3.517  49.577  1.00  0.00     0.094 A 
HETATM   12  C9  UNL     1      27.150   4.511  48.879  1.00  0.00    -0.004 A 
HETATM   13  C10 UNL     1      26.517   5.844  48.967  1.00  0.00     0.076 A 
HETATM   14  C11 UNL     1      25.375   5.923  49.864  1.00  0.00     0.008 A 
HETATM   15 BR1  UNL     1      24.522   7.600  50.023  1.00  0.00    -0.054 Br
HETATM   16  C12 UNL     1      24.987   4.853  50.511  1.00  0.00     0.113 A 
ENDBRANCH   8  10
BRANCH   1  17
HETATM   17  O1  UNL     1      27.799   0.985  54.930  1.00  0.00    -0.357 OA
HETATM   18  C1  UNL     1      28.907   0.175  54.582  1.00  0.00     0.209 C 
ENDBRANCH   1  17
BRANCH   9  19
HETATM   19  O2  UNL     1      25.570  -0.908  54.224  1.00  0.00    -0.378 OA
HETATM   20  C14 UNL     1      24.801  -1.301  55.346  1.00  0.00     0.203 C 
ENDBRANCH   9  19
TORSDOF 3
ENDMDL
MODEL 5
REMARK VINA RESULT:      -7.0      3.855      6.908
REMARK  3 active torsions:
REMARK  status: ('A' for Active; 'I' for Inactive)
REMARK    1  A    between atoms: O1_2  and  C2_3 
REMARK    2  A    between atoms: C7_10  and  N3_11 
REMARK    3  A    between atoms: C13_18  and  O2_19 
ROOT
HETATM    1  C2  UNL     1      22.852   0.355  52.940  1.00  0.00     0.081 A 
HETATM    2  C3  UNL     1      24.159   0.489  53.067  1.00  0.00     0.052 A 
HETATM    3  C4  UNL     1      24.715   1.408  52.093  1.00  0.00     0.041 A 
HETATM    4  C5  UNL     1      23.631   1.821  51.354  1.00  0.00     0.085 A 
HETATM    5  N1  UNL     1      23.839   2.675  50.341  1.00  0.00    -0.242 NA
HETATM    6  C6  UNL     1      25.100   3.083  50.101  1.00  0.00     0.235 A 
HETATM    7  N2  UNL     1      26.133   2.663  50.840  1.00  0.00    -0.223 NA
HETATM    8  C7  UNL     1      25.999   1.801  51.879  1.00  0.00     0.147 A 
HETATM    9  C13 UNL     1      22.374   1.201  51.834  1.00  0.00     0.230 A 
ENDROOT
BRANCH   8  10
HETATM   10  N3  UNL     1      27.138   1.478  52.615  1.00  0.00    -0.316 N 
HETATM   11  C8  UNL     1      28.011   2.224  53.434  1.00  0.00     0.094 A 
HETATM   12  C9  UNL     1      29.033   1.790  54.118  1.00  0.00    -0.004 A 
HETATM   13  C10 UNL     1      29.386   0.354  54.086  1.00  0.00     0.076 A 
HETATM   14  C11 UNL     1      28.525  -0.471  53.255  1.00  0.00     0.008 A 
HETATM   15 BR1  UNL     1      28.924  -2.314  53.168  1.00  0.00    -0.054 Br
HETATM   16  C12 UNL     1      27.525   0.081  52.613  1.00  0.00     0.113 A 
ENDBRANCH   8  10
BRANCH   1  17
HETATM   17  O1  UNL     1      21.976  -0.430  53.683  1.00  0.00    -0.357 OA
HETATM   18  C1  UNL     1      20.913   0.147  54.419  1.00  0.00     0.209 C 
ENDBRANCH   1  17
BRANCH   9  19
HETATM   19  O2  UNL     1      21.675   0.532  50.849  1.00  0.00    -0.378 OA
HETATM   20  C14 UNL     1      20.436   1.214  50.771  1.00  0.00     0.203 C 
ENDBRANCH   9  19
TORSDOF 3
ENDMDL
MODEL 6
REMARK VINA RESULT:      -6.7      2.980      4.280
REMARK  3 active torsions:
REMARK  status: ('A' for Active; 'I' for Inactive)
REMARK    1  A    between atoms: O1_2  and  C2_3 
REMARK    2  A    between atoms: C7_10  and  N3_11 
REMARK    3  A    between atoms: C13_18  and  O2_19 
ROOT
HETATM    1  C2  UNL     1      25.728  -0.077  53.911  1.00  0.00     0.081 A 
HETATM    2  C3  UNL     1      24.753   0.285  53.099  1.00  0.00     0.052 A 
HETATM    3  C4  UNL     1      25.182   1.281  52.135  1.00  0.00     0.041 A 
HETATM    4  C5  UNL     1      26.507   1.499  52.434  1.00  0.00     0.085 A 
HETATM    5  N1  UNL     1      27.182   2.406  51.712  1.00  0.00    -0.242 NA
HETATM    6  C6  UNL     1      26.525   3.055  50.732  1.00  0.00     0.235 A 
HETATM    7  N2  UNL     1      25.235   2.819  50.466  1.00  0.00    -0.223 NA
HETATM    8  C7  UNL     1      24.490   1.917  51.152  1.00  0.00     0.147 A 
HETATM    9  C13 UNL     1      26.957   0.656  53.566  1.00  0.00     0.230 A 
ENDROOT
BRANCH   8  10
HETATM   10  N3  UNL     1      23.171   1.711  50.749  1.00  0.00    -0.316 N 
HETATM   11  C8  UNL     1      22.081   1.014  51.309  1.00  0.00     0.094 A 
HETATM   12  C9  UNL     1      20.863   0.933  50.851  1.00  0.00    -0.004 A 
HETATM   13  C10 UNL     1      20.498   1.627  49.597  1.00  0.00     0.076 A 
HETATM   14  C11 UNL     1      21.582   2.364  48.966  1.00  0.00     0.008 A 
HETATM   15 BR1  UNL     1      21.183   3.271  47.359  1.00  0.00    -0.054 Br
HETATM   16  C12 UNL     1      22.767   2.372  49.524  1.00  0.00     0.113 A 
ENDBRANCH   8  10
BRANCH   1  17
HETATM   17  O1  UNL     1      25.703  -0.997  54.954  1.00  0.00    -0.357 OA
HETATM   18  C1  UNL     1      24.508  -1.278  55.660  1.00  0.00     0.209 C 
ENDBRANCH   1  17
BRANCH   9  19
HETATM   19  O2  UNL     1      27.518   1.375  54.603  1.00  0.00    -0.378 OA
HETATM   20  C14 UNL     1      28.866   0.941  54.644  1.00  0.00     0.203 C 
ENDBRANCH   9  19
TORSDOF 3
ENDMDL
MODEL 7
REMARK VINA RESULT:      -6.7      3.588      6.208
REMARK  3 active torsions:
REMARK  status: ('A' for Active; 'I' for Inactive)
REMARK    1  A    between atoms: O1_2  and  C2_3 
REMARK    2  A    between atoms: C7_10  and  N3_11 
REMARK    3  A    between atoms: C13_18  and  O2_19 
ROOT
HETATM    1  C2  UNL     1      23.756   1.584  51.471  1.00  0.00     0.081 A 
HETATM    2  C3  UNL     1      24.870   1.073  51.960  1.00  0.00     0.052 A 
HETATM    3  C4  UNL     1      24.625   0.207  53.098  1.00  0.00     0.041 A 
HETATM    4  C5  UNL     1      23.260   0.239  53.265  1.00  0.00     0.085 A 
HETATM    5  N1  UNL     1      22.725  -0.462  54.276  1.00  0.00    -0.242 NA
HETATM    6  C6  UNL     1      23.556  -1.159  55.075  1.00  0.00     0.235 A 
HETATM    7  N2  UNL     1      24.880  -1.170  54.885  1.00  0.00    -0.223 NA
HETATM    8  C7  UNL     1      25.490  -0.488  53.884  1.00  0.00     0.147 A 
HETATM    9  C13 UNL     1      22.605   1.097  52.250  1.00  0.00     0.230 A 
ENDROOT
BRANCH   8  10
HETATM   10  N3  UNL     1      26.871  -0.619  53.747  1.00  0.00    -0.316 N 
HETATM   11  C8  UNL     1      27.703  -1.618  53.201  1.00  0.00     0.094 A 
HETATM   12  C9  UNL     1      29.003  -1.604  53.087  1.00  0.00    -0.004 A 
HETATM   13  C10 UNL     1      29.772  -0.434  53.563  1.00  0.00     0.076 A 
HETATM   14  C11 UNL     1      28.970   0.633  54.141  1.00  0.00     0.008 A 
HETATM   15 BR1  UNL     1      29.893   2.155  54.771  1.00  0.00    -0.054 Br
HETATM   16  C12 UNL     1      27.668   0.503  54.200  1.00  0.00     0.113 A 
ENDBRANCH   8  10
BRANCH   1  17
HETATM   17  O1  UNL     1      23.588   2.449  50.395  1.00  0.00    -0.357 OA
HETATM   18  C1  UNL     1      23.914   3.824  50.496  1.00  0.00     0.209 C 
ENDBRANCH   1  17
BRANCH   9  19
HETATM   19  O2  UNL     1      21.808   2.086  52.792  1.00  0.00    -0.378 OA
HETATM   20  C14 UNL     1      20.544   1.893  52.183  1.00  0.00     0.203 C 
ENDBRANCH   9  19
TORSDOF 3
ENDMDL
MODEL 8
REMARK VINA RESULT:      -6.4      2.591      3.122
REMARK  3 active torsions:
REMARK  status: ('A' for Active; 'I' for Inactive)
REMARK    1  A    between atoms: O1_2  and  C2_3 
REMARK    2  A    between atoms: C7_10  and  N3_11 
REMARK    3  A    between atoms: C13_18  and  O2_19 
ROOT
HETATM    1  C2  UNL     1      26.881   1.156  53.051  1.00  0.00     0.081 A 
HETATM    2  C3  UNL     1      25.753   1.610  52.539  1.00  0.00     0.052 A 
HETATM    3  C4  UNL     1      24.594   0.896  53.042  1.00  0.00     0.041 A 
HETATM    4  C5  UNL     1      25.116  -0.041  53.903  1.00  0.00     0.085 A 
HETATM    5  N1  UNL     1      24.272  -0.883  54.516  1.00  0.00    -0.242 NA
HETATM    6  C6  UNL     1      22.955  -0.767  54.254  1.00  0.00     0.235 A 
HETATM    7  N2  UNL     1      22.480   0.156  53.410  1.00  0.00    -0.223 NA
HETATM    8  C7  UNL     1      23.272   1.041  52.757  1.00  0.00     0.147 A 
HETATM    9  C13 UNL     1      26.592   0.056  53.986  1.00  0.00     0.230 A 
ENDROOT
BRANCH   8  10
HETATM   10  N3  UNL     1      22.661   1.997  51.946  1.00  0.00    -0.316 N 
HETATM   11  C8  UNL     1      22.022   3.227  52.207  1.00  0.00     0.094 A 
HETATM   12  C9  UNL     1      21.523   4.068  51.344  1.00  0.00    -0.004 A 
HETATM   13  C10 UNL     1      21.594   3.770  49.897  1.00  0.00     0.076 A 
HETATM   14  C11 UNL     1      22.240   2.511  49.561  1.00  0.00     0.008 A 
HETATM   15 BR1  UNL     1      22.361   2.069  47.730  1.00  0.00    -0.054 Br
HETATM   16  C12 UNL     1      22.705   1.748  50.519  1.00  0.00     0.113 A 
ENDBRANCH   8  10
BRANCH   1  17
HETATM   17  O1  UNL     1      28.184   1.581  52.814  1.00  0.00    -0.357 OA
HETATM   18  C1  UNL     1      28.850   2.451  53.711  1.00  0.00     0.209 C 
ENDBRANCH   1  17
BRANCH   9  19
HETATM   19  O2  UNL     1      27.241  -1.131  53.707  1.00  0.00    -0.378 OA
HETATM   20  C14 UNL     1      26.780  -1.491  52.417  1.00  0.00     0.203 C 
ENDBRANCH   9  19
TORSDOF 3
ENDMDL
MODEL 9
REMARK VINA RESULT:      -6.3      4.379      6.345
REMARK  3 active torsions:
REMARK  status: ('A' for Active; 'I' for Inactive)
REMARK    1  A    between atoms: O1_2  and  C2_3 
REMARK    2  A    between atoms: C7_10  and  N3_11 
REMARK    3  A    between atoms: C13_18  and  O2_19 
ROOT
HETATM    1  C2  UNL     1      21.286   1.169  52.438  1.00  0.00     0.081 A 
HETATM    2  C3  UNL     1      22.048   2.061  51.835  1.00  0.00     0.052 A 
HETATM    3  C4  UNL     1      23.458   1.735  51.934  1.00  0.00     0.041 A 
HETATM    4  C5  UNL     1      23.490   0.565  52.656  1.00  0.00     0.085 A 
HETATM    5  N1  UNL     1      24.683   0.020  52.935  1.00  0.00    -0.242 NA
HETATM    6  C6  UNL     1      25.789   0.649  52.491  1.00  0.00     0.235 A 
HETATM    7  N2  UNL     1      25.724   1.787  51.789  1.00  0.00    -0.223 NA
HETATM    8  C7  UNL     1      24.554   2.394  51.470  1.00  0.00     0.147 A 
HETATM    9  C13 UNL     1      22.127   0.111  53.021  1.00  0.00     0.230 A 
ENDROOT
BRANCH   8  10
HETATM   10  N3  UNL     1      24.604   3.545  50.684  1.00  0.00    -0.316 N 
HETATM   11  C8  UNL     1      23.670   4.555  50.379  1.00  0.00     0.094 A 
HETATM   12  C9  UNL     1      23.855   5.625  49.656  1.00  0.00    -0.004 A 
HETATM   13  C10 UNL     1      25.176   5.883  49.045  1.00  0.00     0.076 A 
HETATM   14  C11 UNL     1      26.187   4.873  49.320  1.00  0.00     0.008 A 
HETATM   15 BR1  UNL     1      27.896   5.142  48.566  1.00  0.00    -0.054 Br
HETATM   16  C12 UNL     1      25.881   3.840  50.064  1.00  0.00     0.113 A 
ENDBRANCH   8  10
BRANCH   1  17
HETATM   17  O1  UNL     1      19.899   1.140  52.558  1.00  0.00    -0.357 OA
HETATM   18  C1  UNL     1      19.132   0.097  51.983  1.00  0.00     0.209 C 
ENDBRANCH   1  17
BRANCH   9  19
HETATM   19  O2  UNL     1      21.955  -0.090  54.376  1.00  0.00    -0.378 OA
HETATM   20  C14 UNL     1      21.669  -1.473  54.493  1.00  0.00     0.203 C 
ENDBRANCH   9  19
TORSDOF 3
ENDMDL
