MODEL 1
REMARK VINA RESULT:      -7.4      0.000      0.000
REMARK  5 active torsions:
REMARK  status: ('A' for Active; 'I' for Inactive)
REMARK    1  A    between atoms: C3_3  and  N1_4 
REMARK    2  A    between atoms: N1_4  and  O1_5 
REMARK    3  A    between atoms: N1_4  and  C4_6 
REMARK    4  A    between atoms: C5_7  and  C6_8 
REMARK    5  A    between atoms: N3_13  and  C10_14 
ROOT
HETATM    1  C6  UNL     1      24.138   3.061  52.460  1.00  0.00     0.136 C 
HETATM    2  C7  UNL     1      23.621   4.468  52.642  1.00  0.00     0.036 C 
HETATM    3  C8  UNL     1      22.436   4.857  52.187  1.00  0.00     0.079 C 
HETATM    4  N2  UNL     1      21.824   4.141  51.325  1.00  0.00    -0.268 NA
HETATM    5  C9  UNL     1      22.375   2.876  50.866  1.00  0.00     0.275 C 
HETATM    6  N3  UNL     1      22.982   2.285  52.046  1.00  0.00    -0.351 N 
ENDROOT
BRANCH   1   7
HETATM    7  C5  UNL     1      25.098   3.115  51.333  1.00  0.00     0.022 C 
HETATM    8  C4  UNL     1      26.286   2.651  51.103  1.00  0.00     0.120 C 
BRANCH   8   9
HETATM    9  N1  UNL     1      27.112   1.869  51.949  1.00  0.00    -0.248 N 
BRANCH   9  10
HETATM   10  C3  UNL     1      26.623   0.531  51.824  1.00  0.00     0.118 C 
HETATM   11  C2  UNL     1      27.159  -0.379  52.616  1.00  0.00    -0.011 C 
HETATM   12  C1  UNL     1      26.689  -1.784  52.528  1.00  0.00     0.037 C 
ENDBRANCH   9  10
BRANCH   9  13
HETATM   13  O1  UNL     1      27.916   2.844  52.408  1.00  0.00    -0.284 OA
HETATM   14  H6  UNL     1      28.278   2.667  53.298  1.00  0.00     0.245 HD
ENDBRANCH   9  13
ENDBRANCH   8   9
ENDBRANCH   1   7
BRANCH   6  15
HETATM   15  C10 UNL     1      22.536   1.121  52.727  1.00  0.00     0.034 A 
HETATM   16  C11 UNL     1      23.345   0.277  53.454  1.00  0.00     0.032 A 
HETATM   17  C12 UNL     1      22.862  -0.833  54.100  1.00  0.00     0.046 A 
HETATM   18  C13 UNL     1      21.528  -1.173  54.060  1.00  0.00     0.138 A 
HETATM   19  F1  UNL     1      21.071  -2.266  54.698  1.00  0.00    -0.204 F 
HETATM   20  C14 UNL     1      20.706  -0.337  53.335  1.00  0.00     0.074 A 
HETATM   21 CL1  UNL     1      19.011  -0.793  53.302  1.00  0.00    -0.081 Cl
HETATM   22  C15 UNL     1      21.208   0.764  52.701  1.00  0.00     0.056 A 
ENDBRANCH   6  15
TORSDOF 5
ENDMDL
MODEL 2
REMARK VINA RESULT:      -7.4      1.892      4.186
REMARK  5 active torsions:
REMARK  status: ('A' for Active; 'I' for Inactive)
REMARK    1  A    between atoms: C3_3  and  N1_4 
REMARK    2  A    between atoms: N1_4  and  O1_5 
REMARK    3  A    between atoms: N1_4  and  C4_6 
REMARK    4  A    between atoms: C5_7  and  C6_8 
REMARK    5  A    between atoms: N3_13  and  C10_14 
ROOT
HETATM    1  C6  UNL     1      26.088   0.255  52.171  1.00  0.00     0.136 C 
HETATM    2  C7  UNL     1      27.323  -0.599  52.334  1.00  0.00     0.036 C 
HETATM    3  C8  UNL     1      27.776  -0.978  53.522  1.00  0.00     0.079 C 
HETATM    4  N2  UNL     1      27.356  -0.390  54.576  1.00  0.00    -0.268 NA
HETATM    5  C9  UNL     1      26.349   0.656  54.506  1.00  0.00     0.275 C 
HETATM    6  N3  UNL     1      25.433   0.222  53.467  1.00  0.00    -0.351 N 
ENDROOT
BRANCH   1   7
HETATM    7  C5  UNL     1      26.568   1.634  51.920  1.00  0.00     0.022 C 
HETATM    8  C4  UNL     1      26.013   2.784  51.698  1.00  0.00     0.120 C 
BRANCH   8   9
HETATM    9  N1  UNL     1      24.635   3.104  51.622  1.00  0.00    -0.248 N 
BRANCH   9  10
HETATM   10  C3  UNL     1      24.264   2.862  50.263  1.00  0.00     0.118 C 
HETATM   11  C2  UNL     1      22.993   2.593  50.027  1.00  0.00    -0.011 C 
HETATM   12  C1  UNL     1      22.554   2.333  48.634  1.00  0.00     0.037 C 
ENDBRANCH   9  10
BRANCH   9  13
HETATM   13  O1  UNL     1      24.437   3.464  52.903  1.00  0.00    -0.284 OA
HETATM   14  H6  UNL     1      23.876   2.841  53.404  1.00  0.00     0.245 HD
ENDBRANCH   9  13
ENDBRANCH   8   9
ENDBRANCH   1   7
BRANCH   6  15
HETATM   15  C10 UNL     1      24.086  -0.188  53.651  1.00  0.00     0.034 A 
HETATM   16  C11 UNL     1      23.625  -0.916  54.725  1.00  0.00     0.032 A 
HETATM   17  C12 UNL     1      22.310  -1.282  54.859  1.00  0.00     0.046 A 
HETATM   18  C13 UNL     1      21.362  -0.941  53.920  1.00  0.00     0.138 A 
HETATM   19  F1  UNL     1      20.076  -1.309  54.065  1.00  0.00    -0.204 F 
HETATM   20  C14 UNL     1      21.809  -0.212  52.838  1.00  0.00     0.074 A 
HETATM   21 CL1  UNL     1      20.581   0.209  51.657  1.00  0.00    -0.081 Cl
HETATM   22  C15 UNL     1      23.123   0.142  52.726  1.00  0.00     0.056 A 
ENDBRANCH   6  15
TORSDOF 5
ENDMDL
MODEL 3
REMARK VINA RESULT:      -7.2      3.979      6.298
REMARK  5 active torsions:
REMARK  status: ('A' for Active; 'I' for Inactive)
REMARK    1  A    between atoms: C3_3  and  N1_4 
REMARK    2  A    between atoms: N1_4  and  O1_5 
REMARK    3  A    between atoms: N1_4  and  C4_6 
REMARK    4  A    between atoms: C5_7  and  C6_8 
REMARK    5  A    between atoms: N3_13  and  C10_14 
ROOT
HETATM    1  C6  UNL     1      22.779   0.304  52.691  1.00  0.00     0.136 C 
HETATM    2  C7  UNL     1      22.076   0.557  51.379  1.00  0.00     0.036 C 
HETATM    3  C8  UNL     1      22.333   1.619  50.625  1.00  0.00     0.079 C 
HETATM    4  N2  UNL     1      22.965   2.611  51.124  1.00  0.00    -0.268 NA
HETATM    5  C9  UNL     1      23.457   2.581  52.492  1.00  0.00     0.275 C 
HETATM    6  N3  UNL     1      23.910   1.216  52.695  1.00  0.00    -0.351 N 
ENDROOT
BRANCH   1   7
HETATM    7  C5  UNL     1      21.835   0.719  53.754  1.00  0.00     0.022 C 
HETATM    8  C4  UNL     1      20.795   0.199  54.326  1.00  0.00     0.120 C 
BRANCH   8   9
HETATM    9  N1  UNL     1      20.185  -1.057  54.084  1.00  0.00    -0.248 N 
BRANCH   9  10
HETATM   10  C3  UNL     1      19.102  -0.786  53.191  1.00  0.00     0.118 C 
HETATM   11  C2  UNL     1      18.007  -1.508  53.341  1.00  0.00    -0.011 C 
HETATM   12  C1  UNL     1      16.852  -1.269  52.440  1.00  0.00     0.037 C 
ENDBRANCH   9  10
BRANCH   9  13
HETATM   13  O1  UNL     1      20.984  -1.824  54.847  1.00  0.00    -0.284 OA
HETATM   14  H6  UNL     1      20.505  -2.506  55.356  1.00  0.00     0.245 HD
ENDBRANCH   9  13
ENDBRANCH   8   9
ENDBRANCH   1   7
BRANCH   6  15
HETATM   15  C10 UNL     1      25.254   0.794  52.870  1.00  0.00     0.034 A 
HETATM   16  C11 UNL     1      25.690  -0.508  52.772  1.00  0.00     0.032 A 
HETATM   17  C12 UNL     1      27.003  -0.863  52.944  1.00  0.00     0.046 A 
HETATM   18  C13 UNL     1      27.975   0.070  53.229  1.00  0.00     0.138 A 
HETATM   19  F1  UNL     1      29.260  -0.295  53.397  1.00  0.00    -0.204 F 
HETATM   20  C14 UNL     1      27.555   1.379  53.332  1.00  0.00     0.074 A 
HETATM   21 CL1  UNL     1      28.814   2.547  53.695  1.00  0.00    -0.081 Cl
HETATM   22  C15 UNL     1      26.241   1.709  53.155  1.00  0.00     0.056 A 
ENDBRANCH   6  15
TORSDOF 5
ENDMDL
MODEL 4
REMARK VINA RESULT:      -7.1      4.026      5.601
REMARK  5 active torsions:
REMARK  status: ('A' for Active; 'I' for Inactive)
REMARK    1  A    between atoms: C3_3  and  N1_4 
REMARK    2  A    between atoms: N1_4  and  O1_5 
REMARK    3  A    between atoms: N1_4  and  C4_6 
REMARK    4  A    between atoms: C5_7  and  C6_8 
REMARK    5  A    between atoms: N3_13  and  C10_14 
ROOT
HETATM    1  C6  UNL     1      24.545   1.454  51.937  1.00  0.00     0.136 C 
HETATM    2  C7  UNL     1      23.114   0.998  51.785  1.00  0.00     0.036 C 
HETATM    3  C8  UNL     1      22.089   1.841  51.823  1.00  0.00     0.079 C 
HETATM    4  N2  UNL     1      22.257   3.020  52.286  1.00  0.00    -0.268 NA
HETATM    5  C9  UNL     1      23.564   3.479  52.725  1.00  0.00     0.275 C 
HETATM    6  N3  UNL     1      24.500   2.898  51.779  1.00  0.00    -0.351 N 
ENDROOT
BRANCH   1   7
HETATM    7  C5  UNL     1      24.932   1.145  53.333  1.00  0.00     0.022 C 
HETATM    8  C4  UNL     1      26.036   1.147  54.012  1.00  0.00     0.120 C 
BRANCH   8   9
HETATM    9  N1  UNL     1      27.343   1.483  53.579  1.00  0.00    -0.248 N 
BRANCH   9  10
HETATM   10  C3  UNL     1      27.918   0.257  53.122  1.00  0.00     0.118 C 
HETATM   11  C2  UNL     1      28.919  -0.237  53.828  1.00  0.00    -0.011 C 
HETATM   12  C1  UNL     1      29.553  -1.507  53.399  1.00  0.00     0.037 C 
ENDBRANCH   9  10
BRANCH   9  13
HETATM   13  O1  UNL     1      27.314   2.801  53.845  1.00  0.00    -0.284 OA
HETATM   14  H6  UNL     1      26.446   3.216  53.677  1.00  0.00     0.245 HD
ENDBRANCH   9  13
ENDBRANCH   8   9
ENDBRANCH   1   7
BRANCH   6  15
HETATM   15  C10 UNL     1      25.273   3.604  50.820  1.00  0.00     0.034 A 
HETATM   16  C11 UNL     1      26.404   3.114  50.205  1.00  0.00     0.032 A 
HETATM   17  C12 UNL     1      27.113   3.836  49.279  1.00  0.00     0.046 A 
HETATM   18  C13 UNL     1      26.733   5.105  48.903  1.00  0.00     0.138 A 
HETATM   19  F1  UNL     1      27.440   5.800  47.994  1.00  0.00    -0.204 F 
HETATM   20  C14 UNL     1      25.603   5.610  49.511  1.00  0.00     0.074 A 
HETATM   21 CL1  UNL     1      25.142   7.229  49.014  1.00  0.00    -0.081 Cl
HETATM   22  C15 UNL     1      24.912   4.873  50.430  1.00  0.00     0.056 A 
ENDBRANCH   6  15
TORSDOF 5
ENDMDL
MODEL 5
REMARK VINA RESULT:      -7.0      3.762      5.412
REMARK  5 active torsions:
REMARK  status: ('A' for Active; 'I' for Inactive)
REMARK    1  A    between atoms: C3_3  and  N1_4 
REMARK    2  A    between atoms: N1_4  and  O1_5 
REMARK    3  A    between atoms: N1_4  and  C4_6 
REMARK    4  A    between atoms: C5_7  and  C6_8 
REMARK    5  A    between atoms: N3_13  and  C10_14 
ROOT
HETATM    1  C6  UNL     1      22.676   1.284  51.585  1.00  0.00     0.136 C 
HETATM    2  C7  UNL     1      22.443   1.620  50.131  1.00  0.00     0.036 C 
HETATM    3  C8  UNL     1      23.076   2.613  49.519  1.00  0.00     0.079 C 
HETATM    4  N2  UNL     1      23.678   3.501  50.211  1.00  0.00    -0.268 NA
HETATM    5  C9  UNL     1      23.730   3.420  51.662  1.00  0.00     0.275 C 
HETATM    6  N3  UNL     1      23.882   2.006  51.950  1.00  0.00    -0.351 N 
ENDROOT
BRANCH   1   7
HETATM    7  C5  UNL     1      21.535   1.864  52.332  1.00  0.00     0.022 C 
HETATM    8  C4  UNL     1      20.600   1.403  53.103  1.00  0.00     0.120 C 
BRANCH   8   9
HETATM    9  N1  UNL     1      20.364   0.066  53.508  1.00  0.00    -0.248 N 
BRANCH   9  10
HETATM   10  C3  UNL     1      21.269  -0.169  54.589  1.00  0.00     0.118 C 
HETATM   11  C2  UNL     1      22.132  -1.158  54.445  1.00  0.00    -0.011 C 
HETATM   12  C1  UNL     1      23.094  -1.446  55.537  1.00  0.00     0.037 C 
ENDBRANCH   9  10
BRANCH   9  13
HETATM   13  O1  UNL     1      19.394  -0.245  52.629  1.00  0.00    -0.284 OA
HETATM   14  H6  UNL     1      19.008   0.531  52.180  1.00  0.00     0.245 HD
ENDBRANCH   9  13
ENDBRANCH   8   9
ENDBRANCH   1   7
BRANCH   6  15
HETATM   15  C10 UNL     1      25.030   1.379  52.504  1.00  0.00     0.034 A 
HETATM   16  C11 UNL     1      25.132   0.037  52.794  1.00  0.00     0.032 A 
HETATM   17  C12 UNL     1      26.268  -0.520  53.323  1.00  0.00     0.046 A 
HETATM   18  C13 UNL     1      27.386   0.236  53.600  1.00  0.00     0.138 A 
HETATM   19  F1  UNL     1      28.492  -0.326  54.121  1.00  0.00    -0.204 F 
HETATM   20  C14 UNL     1      27.299   1.582  53.316  1.00  0.00     0.074 A 
HETATM   21 CL1  UNL     1      28.737   2.522  53.678  1.00  0.00    -0.081 Cl
HETATM   22  C15 UNL     1      26.157   2.115  52.788  1.00  0.00     0.056 A 
ENDBRANCH   6  15
TORSDOF 5
ENDMDL
MODEL 6
REMARK VINA RESULT:      -6.5      2.314      2.804
REMARK  5 active torsions:
REMARK  status: ('A' for Active; 'I' for Inactive)
REMARK    1  A    between atoms: C3_3  and  N1_4 
REMARK    2  A    between atoms: N1_4  and  O1_5 
REMARK    3  A    between atoms: N1_4  and  C4_6 
REMARK    4  A    between atoms: C5_7  and  C6_8 
REMARK    5  A    between atoms: N3_13  and  C10_14 
ROOT
HETATM    1  C6  UNL     1      22.642   2.684  51.085  1.00  0.00     0.136 C 
HETATM    2  C7  UNL     1      21.451   3.547  50.744  1.00  0.00     0.036 C 
HETATM    3  C8  UNL     1      20.302   3.039  50.315  1.00  0.00     0.079 C 
HETATM    4  N2  UNL     1      20.261   1.834  49.895  1.00  0.00    -0.268 NA
HETATM    5  C9  UNL     1      21.440   0.984  49.925  1.00  0.00     0.275 C 
HETATM    6  N3  UNL     1      22.118   1.331  51.160  1.00  0.00    -0.351 N 
ENDROOT
BRANCH   1   7
HETATM    7  C5  UNL     1      23.562   2.770  49.927  1.00  0.00     0.022 C 
HETATM    8  C4  UNL     1      24.772   3.192  49.731  1.00  0.00     0.120 C 
BRANCH   8   9
HETATM    9  N1  UNL     1      25.675   3.756  50.665  1.00  0.00    -0.248 N 
BRANCH   9  10
HETATM   10  C3  UNL     1      26.597   2.711  50.981  1.00  0.00     0.118 C 
HETATM   11  C2  UNL     1      26.519   2.186  52.189  1.00  0.00    -0.011 C 
HETATM   12  C1  UNL     1      27.453   1.098  52.570  1.00  0.00     0.037 C 
ENDBRANCH   9  10
BRANCH   9  13
HETATM   13  O1  UNL     1      25.150   4.993  50.736  1.00  0.00    -0.284 OA
HETATM   14  H6  UNL     1      24.754   5.202  51.604  1.00  0.00     0.245 HD
ENDBRANCH   9  13
ENDBRANCH   8   9
ENDBRANCH   1   7
BRANCH   6  15
HETATM   15  C10 UNL     1      22.265   0.498  52.302  1.00  0.00     0.034 A 
HETATM   16  C11 UNL     1      21.238  -0.181  52.918  1.00  0.00     0.032 A 
HETATM   17  C12 UNL     1      21.435  -0.979  54.016  1.00  0.00     0.046 A 
HETATM   18  C13 UNL     1      22.682  -1.151  54.574  1.00  0.00     0.138 A 
HETATM   19  F1  UNL     1      22.858  -1.936  55.652  1.00  0.00    -0.204 F 
HETATM   20  C14 UNL     1      23.721  -0.476  53.968  1.00  0.00     0.074 A 
HETATM   21 CL1  UNL     1      25.299  -0.713  54.700  1.00  0.00    -0.081 Cl
HETATM   22  C15 UNL     1      23.502   0.312  52.875  1.00  0.00     0.056 A 
ENDBRANCH   6  15
TORSDOF 5
ENDMDL
MODEL 7
REMARK VINA RESULT:      -6.4      4.337      5.954
REMARK  5 active torsions:
REMARK  status: ('A' for Active; 'I' for Inactive)
REMARK    1  A    between atoms: C3_3  and  N1_4 
REMARK    2  A    between atoms: N1_4  and  O1_5 
REMARK    3  A    between atoms: N1_4  and  C4_6 
REMARK    4  A    between atoms: C5_7  and  C6_8 
REMARK    5  A    between atoms: N3_13  and  C10_14 
ROOT
HETATM    1  C6  UNL     1      22.934   1.777  50.672  1.00  0.00     0.136 C 
HETATM    2  C7  UNL     1      21.791   1.303  49.807  1.00  0.00     0.036 C 
HETATM    3  C8  UNL     1      20.996   2.141  49.153  1.00  0.00     0.079 C 
HETATM    4  N2  UNL     1      20.986   3.379  49.469  1.00  0.00    -0.268 NA
HETATM    5  C9  UNL     1      21.869   3.903  50.498  1.00  0.00     0.275 C 
HETATM    6  N3  UNL     1      23.114   3.176  50.326  1.00  0.00    -0.351 N 
ENDROOT
BRANCH   1   7
HETATM    7  C5  UNL     1      22.456   1.696  52.072  1.00  0.00     0.022 C 
HETATM    8  C4  UNL     1      22.721   0.954  53.102  1.00  0.00     0.120 C 
BRANCH   8   9
HETATM    9  N1  UNL     1      23.645  -0.114  53.211  1.00  0.00    -0.248 N 
BRANCH   9  10
HETATM   10  C3  UNL     1      24.926   0.505  53.343  1.00  0.00     0.118 C 
HETATM   11  C2  UNL     1      25.862   0.137  52.488  1.00  0.00    -0.011 C 
HETATM   12  C1  UNL     1      27.211   0.748  52.581  1.00  0.00     0.037 C 
ENDBRANCH   9  10
BRANCH   9  13
HETATM   13  O1  UNL     1      22.781  -1.142  53.128  1.00  0.00    -0.284 OA
HETATM   14  H6  UNL     1      21.853  -0.865  53.003  1.00  0.00     0.245 HD
ENDBRANCH   9  13
ENDBRANCH   8   9
ENDBRANCH   1   7
BRANCH   6  15
HETATM   15  C10 UNL     1      24.348   3.719  49.880  1.00  0.00     0.034 A 
HETATM   16  C11 UNL     1      25.568   3.090  49.986  1.00  0.00     0.032 A 
HETATM   17  C12 UNL     1      26.733   3.656  49.532  1.00  0.00     0.046 A 
HETATM   18  C13 UNL     1      26.752   4.898  48.939  1.00  0.00     0.138 A 
HETATM   19  F1  UNL     1      27.903   5.440  48.501  1.00  0.00    -0.204 F 
HETATM   20  C14 UNL     1      25.538   5.541  48.827  1.00  0.00     0.074 A 
HETATM   21 CL1  UNL     1      25.592   7.123  48.067  1.00  0.00    -0.081 Cl
HETATM   22  C15 UNL     1      24.391   4.958  49.284  1.00  0.00     0.056 A 
ENDBRANCH   6  15
TORSDOF 5
ENDMDL
MODEL 8
REMARK VINA RESULT:      -6.4      7.460      9.346
REMARK  5 active torsions:
REMARK  status: ('A' for Active; 'I' for Inactive)
REMARK    1  A    between atoms: C3_3  and  N1_4 
REMARK    2  A    between atoms: N1_4  and  O1_5 
REMARK    3  A    between atoms: N1_4  and  C4_6 
REMARK    4  A    between atoms: C5_7  and  C6_8 
REMARK    5  A    between atoms: N3_13  and  C10_14 
ROOT
HETATM    1  C6  UNL     1      30.702   8.378  49.276  1.00  0.00     0.136 C 
HETATM    2  C7  UNL     1      30.651   9.881  49.134  1.00  0.00     0.036 C 
HETATM    3  C8  UNL     1      30.196  10.479  48.040  1.00  0.00     0.079 C 
HETATM    4  N2  UNL     1      30.065   9.808  46.961  1.00  0.00    -0.268 NA
HETATM    5  C9  UNL     1      30.355   8.384  46.918  1.00  0.00     0.275 C 
HETATM    6  N3  UNL     1      29.882   7.869  48.190  1.00  0.00    -0.351 N 
ENDROOT
BRANCH   1   7
HETATM    7  C5  UNL     1      32.109   7.987  49.028  1.00  0.00     0.022 C 
HETATM    8  C4  UNL     1      32.766   6.870  48.975  1.00  0.00     0.120 C 
BRANCH   8   9
HETATM    9  N1  UNL     1      32.285   5.549  49.153  1.00  0.00    -0.248 N 
BRANCH   9  10
HETATM   10  C3  UNL     1      32.724   4.827  48.001  1.00  0.00     0.118 C 
HETATM   11  C2  UNL     1      31.853   4.010  47.437  1.00  0.00    -0.011 C 
HETATM   12  C1  UNL     1      32.256   3.235  46.238  1.00  0.00     0.037 C 
ENDBRANCH   9  10
BRANCH   9  13
HETATM   13  O1  UNL     1      31.670   5.714  50.338  1.00  0.00    -0.284 OA
HETATM   14  H6  UNL     1      31.399   4.876  50.760  1.00  0.00     0.245 HD
ENDBRANCH   9  13
ENDBRANCH   8   9
ENDBRANCH   1   7
BRANCH   6  15
HETATM   15  C10 UNL     1      28.779   6.996  48.386  1.00  0.00     0.034 A 
HETATM   16  C11 UNL     1      28.849   5.622  48.363  1.00  0.00     0.032 A 
HETATM   17  C12 UNL     1      27.753   4.822  48.565  1.00  0.00     0.046 A 
HETATM   18  C13 UNL     1      26.504   5.351  48.806  1.00  0.00     0.138 A 
HETATM   19  F1  UNL     1      25.439   4.553  49.001  1.00  0.00    -0.204 F 
HETATM   20  C14 UNL     1      26.418   6.727  48.831  1.00  0.00     0.074 A 
HETATM   21 CL1  UNL     1      24.815   7.374  49.140  1.00  0.00    -0.081 Cl
HETATM   22  C15 UNL     1      27.523   7.503  48.629  1.00  0.00     0.056 A 
ENDBRANCH   6  15
TORSDOF 5
ENDMDL
MODEL 9
REMARK VINA RESULT:      -6.3      3.958      6.080
REMARK  5 active torsions:
REMARK  status: ('A' for Active; 'I' for Inactive)
REMARK    1  A    between atoms: C3_3  and  N1_4 
REMARK    2  A    between atoms: N1_4  and  O1_5 
REMARK    3  A    between atoms: N1_4  and  C4_6 
REMARK    4  A    between atoms: C5_7  and  C6_8 
REMARK    5  A    between atoms: N3_13  and  C10_14 
ROOT
HETATM    1  C6  UNL     1      21.754   0.871  52.804  1.00  0.00     0.136 C 
HETATM    2  C7  UNL     1      20.941   0.613  54.050  1.00  0.00     0.036 C 
HETATM    3  C8  UNL     1      21.255  -0.338  54.922  1.00  0.00     0.079 C 
HETATM    4  N2  UNL     1      22.077  -1.257  54.587  1.00  0.00    -0.268 NA
HETATM    5  C9  UNL     1      22.721  -1.255  53.284  1.00  0.00     0.275 C 
HETATM    6  N3  UNL     1      22.995   0.143  53.006  1.00  0.00    -0.351 N 
ENDROOT
BRANCH   1   7
HETATM    7  C5  UNL     1      21.013   0.238  51.688  1.00  0.00     0.022 C 
HETATM    8  C4  UNL     1      20.311   0.660  50.683  1.00  0.00     0.120 C 
BRANCH   8   9
HETATM    9  N1  UNL     1      20.010   1.993  50.309  1.00  0.00    -0.248 N 
BRANCH   9  10
HETATM   10  C3  UNL     1      21.123   2.428  49.526  1.00  0.00     0.118 C 
HETATM   11  C2  UNL     1      21.387   1.745  48.427  1.00  0.00    -0.011 C 
HETATM   12  C1  UNL     1      22.532   2.153  47.576  1.00  0.00     0.037 C 
ENDBRANCH   9  10
BRANCH   9  13
HETATM   13  O1  UNL     1      18.814   2.110  50.913  1.00  0.00    -0.284 OA
HETATM   14  H6  UNL     1      18.847   2.604  51.756  1.00  0.00     0.245 HD
ENDBRANCH   9  13
ENDBRANCH   8   9
ENDBRANCH   1   7
BRANCH   6  15
HETATM   15  C10 UNL     1      24.277   0.751  52.938  1.00  0.00     0.034 A 
HETATM   16  C11 UNL     1      24.611   1.792  52.102  1.00  0.00     0.032 A 
HETATM   17  C12 UNL     1      25.865   2.349  52.080  1.00  0.00     0.046 A 
HETATM   18  C13 UNL     1      26.875   1.895  52.900  1.00  0.00     0.138 A 
HETATM   19  F1  UNL     1      28.100   2.450  52.865  1.00  0.00    -0.204 F 
HETATM   20  C14 UNL     1      26.555   0.851  53.742  1.00  0.00     0.074 A 
HETATM   21 CL1  UNL     1      27.860   0.293  54.776  1.00  0.00    -0.081 Cl
HETATM   22  C15 UNL     1      25.300   0.313  53.748  1.00  0.00     0.056 A 
ENDBRANCH   6  15
TORSDOF 5
ENDMDL
