MODEL 1
REMARK VINA RESULT:      -9.2      0.000      0.000
REMARK  7 active torsions:
REMARK  status: ('A' for Active; 'I' for Inactive)
REMARK    1  A    between atoms: C2_2  and  N1_3 
REMARK    2  A    between atoms: N2_6  and  C5_7 
REMARK    3  A    between atoms: C5_7  and  C6_8 
REMARK    4  A    between atoms: C6_8  and  C7_9 
REMARK    5  A    between atoms: C7_9  and  N3_10 
REMARK    6  A    between atoms: C7_9  and  C19_23 
REMARK    7  A    between atoms: N3_10  and  C8_11 
ROOT
HETATM    1  C7  UNL     1      23.472   1.226  52.544  1.00  0.00     0.117 C 
ENDROOT
BRANCH   1   2
HETATM    2  C6  UNL     1      22.766   2.076  51.548  1.00  0.00     0.060 C 
BRANCH   2   3
HETATM    3  C5  UNL     1      22.994   3.522  51.943  1.00  0.00     0.275 C 
BRANCH   3   4
HETATM    4  N2  UNL     1      23.656   4.328  50.964  1.00  0.00     0.094 N 
HETATM    5  C4  UNL     1      25.016   3.952  50.662  1.00  0.00     0.287 C 
HETATM    6  C3  UNL     1      25.302   4.371  49.216  1.00  0.00     0.124 C 
HETATM    7  N1  UNL     1      25.451   5.773  49.074  1.00  0.00    -0.290 NA
HETATM    8  P1  UNL     1      24.591   6.762  50.310  1.00  0.00    -0.025 P 
HETATM    9  C25 UNL     1      23.772   5.670  51.575  1.00  0.00     0.319 C 
HETATM   10  H31 UNL     1      23.480   7.452  49.624  1.00  0.00     0.075 HD
BRANCH   7  11
HETATM   11  C2  UNL     1      26.817   6.226  48.869  1.00  0.00     0.090 C 
HETATM   12  C1  UNL     1      27.682   5.015  48.578  1.00  0.00     0.021 C 
ENDBRANCH   7  11
ENDBRANCH   3   4
ENDBRANCH   2   3
ENDBRANCH   1   2
BRANCH   1  13
HETATM   13  N3  UNL     1      24.795   0.849  52.292  1.00  0.00    -0.369 N 
HETATM   14  H15 UNL     1      25.275   0.294  51.568  1.00  0.00     0.161 HD
BRANCH  13  15
HETATM   15  C8  UNL     1      25.991   1.097  52.928  1.00  0.00     0.110 C 
HETATM   16  C9  UNL     1      27.146   0.371  52.838  1.00  0.00     0.041 A 
HETATM   17  C10 UNL     1      26.543  -0.889  52.119  1.00  0.00     0.034 C 
HETATM   18  C15 UNL     1      28.810   0.020  53.208  1.00  0.00     0.005 A 
HETATM   19  C16 UNL     1      27.758   0.344  52.971  1.00  0.00     0.002 A 
HETATM   20  C11 UNL     1      27.861  -1.232  52.981  1.00  0.00    -0.005 A 
HETATM   21  C12 UNL     1      28.158  -2.493  53.040  1.00  0.00    -0.019 A 
HETATM   22  C14 UNL     1      29.519  -1.153  53.368  1.00  0.00     0.032 A 
HETATM   23  C13 UNL     1      29.519  -2.447  53.361  1.00  0.00    -0.023 A 
HETATM   24  C17 UNL     1      28.274   1.871  53.126  1.00  0.00     0.059 C 
HETATM   25  C18 UNL     1      27.480   2.452  54.259  1.00  0.00     0.092 C 
HETATM   26  N4  UNL     1      26.272   2.181  53.888  1.00  0.00    -0.251 NA
ENDBRANCH  13  15
ENDBRANCH   1  13
BRANCH   1  27
HETATM   27  C19 UNL     1      22.667   0.213  53.244  1.00  0.00    -0.035 A 
HETATM   28  C20 UNL     1      21.308   0.415  52.918  1.00  0.00     0.009 A 
HETATM   29  C21 UNL     1      20.304  -0.388  53.410  1.00  0.00     0.001 A 
HETATM   30  C22 UNL     1      20.591  -1.446  54.255  1.00  0.00     0.000 A 
HETATM   31  C23 UNL     1      21.907  -1.610  54.548  1.00  0.00     0.001 A 
HETATM   32  C24 UNL     1      22.936  -0.827  54.077  1.00  0.00     0.009 A 
ENDBRANCH   1  27
TORSDOF 7
ENDMDL
MODEL 2
REMARK VINA RESULT:      -9.2      2.401      6.727
REMARK  7 active torsions:
REMARK  status: ('A' for Active; 'I' for Inactive)
REMARK    1  A    between atoms: C2_2  and  N1_3 
REMARK    2  A    between atoms: N2_6  and  C5_7 
REMARK    3  A    between atoms: C5_7  and  C6_8 
REMARK    4  A    between atoms: C6_8  and  C7_9 
REMARK    5  A    between atoms: C7_9  and  N3_10 
REMARK    6  A    between atoms: C7_9  and  C19_23 
REMARK    7  A    between atoms: N3_10  and  C8_11 
ROOT
HETATM    1  C7  UNL     1      25.853   0.620  52.608  1.00  0.00     0.117 C 
ENDROOT
BRANCH   1   2
HETATM    2  C6  UNL     1      24.963  -0.562  52.762  1.00  0.00     0.060 C 
BRANCH   2   3
HETATM    3  C5  UNL     1      23.811  -0.148  53.657  1.00  0.00     0.275 C 
BRANCH   3   4
HETATM    4  N2  UNL     1      22.511  -0.246  53.068  1.00  0.00     0.094 N 
HETATM    5  C4  UNL     1      22.125   0.857  52.222  1.00  0.00     0.287 C 
HETATM    6  C3  UNL     1      21.146   0.316  51.175  1.00  0.00     0.124 C 
HETATM    7  N1  UNL     1      19.869   0.031  51.719  1.00  0.00    -0.290 NA
HETATM    8  P1  UNL     1      19.857  -0.360  53.477  1.00  0.00    -0.025 P 
HETATM    9  C25 UNL     1      21.563  -0.191  54.201  1.00  0.00     0.319 C 
HETATM   10  H31 UNL     1      19.528  -1.795  53.605  1.00  0.00     0.075 HD
BRANCH   7  11
HETATM   11  C2  UNL     1      18.826   0.981  51.365  1.00  0.00     0.090 C 
HETATM   12  C1  UNL     1      18.011   0.393  50.230  1.00  0.00     0.021 C 
ENDBRANCH   7  11
ENDBRANCH   3   4
ENDBRANCH   2   3
ENDBRANCH   1   2
BRANCH   1  13
HETATM   13  N3  UNL     1      25.650   1.481  51.524  1.00  0.00    -0.369 N 
HETATM   14  H15 UNL     1      25.788   1.421  50.505  1.00  0.00     0.161 HD
BRANCH  13  15
HETATM   15  C8  UNL     1      25.164   2.763  51.408  1.00  0.00     0.110 C 
HETATM   16  C9  UNL     1      25.395   3.651  50.394  1.00  0.00     0.041 A 
HETATM   17  C10 UNL     1      26.569   2.872  49.701  1.00  0.00     0.034 C 
HETATM   18  C15 UNL     1      25.222   5.178  49.577  1.00  0.00     0.005 A 
HETATM   19  C16 UNL     1      25.238   4.199  50.133  1.00  0.00     0.002 A 
HETATM   20  C11 UNL     1      26.630   4.460  49.434  1.00  0.00    -0.005 A 
HETATM   21  C12 UNL     1      27.682   4.863  48.790  1.00  0.00    -0.019 A 
HETATM   22  C14 UNL     1      26.074   5.945  48.810  1.00  0.00     0.032 A 
HETATM   23  C13 UNL     1      27.243   6.086  48.272  1.00  0.00    -0.023 A 
HETATM   24  C17 UNL     1      23.714   4.514  50.581  1.00  0.00     0.059 C 
HETATM   25  C18 UNL     1      23.742   4.595  52.079  1.00  0.00     0.092 C 
HETATM   26  N4  UNL     1      24.319   3.480  52.383  1.00  0.00    -0.251 NA
ENDBRANCH  13  15
ENDBRANCH   1  13
BRANCH   1  27
HETATM   27  C19 UNL     1      27.260   0.450  53.003  1.00  0.00    -0.035 A 
HETATM   28  C20 UNL     1      27.579  -0.925  52.950  1.00  0.00     0.009 A 
HETATM   29  C21 UNL     1      28.833  -1.403  53.251  1.00  0.00     0.001 A 
HETATM   30  C22 UNL     1      29.852  -0.542  53.623  1.00  0.00     0.000 A 
HETATM   31  C23 UNL     1      29.509   0.771  53.665  1.00  0.00     0.001 A 
HETATM   32  C24 UNL     1      28.267   1.285  53.372  1.00  0.00     0.009 A 
ENDBRANCH   1  27
TORSDOF 7
ENDMDL
MODEL 3
REMARK VINA RESULT:      -9.1      2.109      6.983
REMARK  7 active torsions:
REMARK  status: ('A' for Active; 'I' for Inactive)
REMARK    1  A    between atoms: C2_2  and  N1_3 
REMARK    2  A    between atoms: N2_6  and  C5_7 
REMARK    3  A    between atoms: C5_7  and  C6_8 
REMARK    4  A    between atoms: C6_8  and  C7_9 
REMARK    5  A    between atoms: C7_9  and  N3_10 
REMARK    6  A    between atoms: C7_9  and  C19_23 
REMARK    7  A    between atoms: N3_10  and  C8_11 
ROOT
HETATM    1  C7  UNL     1      25.936   0.620  52.480  1.00  0.00     0.117 C 
ENDROOT
BRANCH   1   2
HETATM    2  C6  UNL     1      24.751  -0.280  52.439  1.00  0.00     0.060 C 
BRANCH   2   3
HETATM    3  C5  UNL     1      24.172  -0.332  53.839  1.00  0.00     0.275 C 
BRANCH   3   4
HETATM    4  N2  UNL     1      22.748  -0.226  53.917  1.00  0.00     0.094 N 
HETATM    5  C4  UNL     1      22.010  -1.370  53.440  1.00  0.00     0.287 C 
HETATM    6  C3  UNL     1      20.684  -1.418  54.208  1.00  0.00     0.124 C 
HETATM    7  N1  UNL     1      19.776  -0.413  53.792  1.00  0.00    -0.290 NA
HETATM    8  P1  UNL     1      20.537   1.061  53.091  1.00  0.00    -0.025 P 
HETATM    9  C25 UNL     1      22.385   0.863  52.984  1.00  0.00     0.319 C 
HETATM   10  H31 UNL     1      20.327   2.163  54.053  1.00  0.00     0.075 HD
BRANCH   7  11
HETATM   11  C2  UNL     1      18.664  -0.888  52.984  1.00  0.00     0.090 C 
HETATM   12  C1  UNL     1      18.696  -0.160  51.654  1.00  0.00     0.021 C 
ENDBRANCH   7  11
ENDBRANCH   3   4
ENDBRANCH   2   3
ENDBRANCH   1   2
BRANCH   1  13
HETATM   13  N3  UNL     1      26.020   1.667  51.557  1.00  0.00    -0.369 N 
HETATM   14  H15 UNL     1      26.582   1.857  50.713  1.00  0.00     0.161 HD
BRANCH  13  15
HETATM   15  C8  UNL     1      25.358   2.865  51.416  1.00  0.00     0.110 C 
HETATM   16  C9  UNL     1      25.450   3.748  50.376  1.00  0.00     0.041 A 
HETATM   17  C10 UNL     1      26.712   3.122  49.683  1.00  0.00     0.034 C 
HETATM   18  C15 UNL     1      25.054   5.213  49.523  1.00  0.00     0.005 A 
HETATM   19  C16 UNL     1      25.214   4.262  50.104  1.00  0.00     0.002 A 
HETATM   20  C11 UNL     1      26.547   4.694  49.376  1.00  0.00    -0.005 A 
HETATM   21  C12 UNL     1      27.523   5.222  48.704  1.00  0.00    -0.019 A 
HETATM   22  C14 UNL     1      25.781   6.070  48.723  1.00  0.00     0.032 A 
HETATM   23  C13 UNL     1      26.911   6.358  48.162  1.00  0.00    -0.023 A 
HETATM   24  C17 UNL     1      23.667   4.373  50.569  1.00  0.00     0.059 C 
HETATM   25  C18 UNL     1      23.703   4.499  52.064  1.00  0.00     0.092 C 
HETATM   26  N4  UNL     1      24.434   3.483  52.386  1.00  0.00    -0.251 NA
ENDBRANCH  13  15
ENDBRANCH   1  13
BRANCH   1  27
HETATM   27  C19 UNL     1      27.225   0.007  52.835  1.00  0.00    -0.035 A 
HETATM   28  C20 UNL     1      28.111   1.028  53.244  1.00  0.00     0.009 A 
HETATM   29  C21 UNL     1      29.398   0.767  53.654  1.00  0.00     0.001 A 
HETATM   30  C22 UNL     1      29.885  -0.529  53.686  1.00  0.00     0.000 A 
HETATM   31  C23 UNL     1      29.007  -1.484  53.284  1.00  0.00     0.001 A 
HETATM   32  C24 UNL     1      27.715  -1.261  52.867  1.00  0.00     0.009 A 
ENDBRANCH   1  27
TORSDOF 7
ENDMDL
MODEL 4
REMARK VINA RESULT:      -9.1      2.337      6.604
REMARK  7 active torsions:
REMARK  status: ('A' for Active; 'I' for Inactive)
REMARK    1  A    between atoms: C2_2  and  N1_3 
REMARK    2  A    between atoms: N2_6  and  C5_7 
REMARK    3  A    between atoms: C5_7  and  C6_8 
REMARK    4  A    between atoms: C6_8  and  C7_9 
REMARK    5  A    between atoms: C7_9  and  N3_10 
REMARK    6  A    between atoms: C7_9  and  C19_23 
REMARK    7  A    between atoms: N3_10  and  C8_11 
ROOT
HETATM    1  C7  UNL     1      24.321   2.703  51.047  1.00  0.00     0.117 C 
ENDROOT
BRANCH   1   2
HETATM    2  C6  UNL     1      23.822   2.761  52.447  1.00  0.00     0.060 C 
BRANCH   2   3
HETATM    3  C5  UNL     1      24.245   1.477  53.133  1.00  0.00     0.275 C 
BRANCH   3   4
HETATM    4  N2  UNL     1      25.627   1.136  52.996  1.00  0.00     0.094 N 
HETATM    5  C4  UNL     1      26.006  -0.152  53.521  1.00  0.00     0.287 C 
HETATM    6  C3  UNL     1      27.211  -0.646  52.711  1.00  0.00     0.124 C 
HETATM    7  N1  UNL     1      28.403   0.052  53.026  1.00  0.00    -0.290 NA
HETATM    8  P1  UNL     1      28.166   1.723  53.655  1.00  0.00    -0.025 P 
HETATM    9  C25 UNL     1      26.355   2.108  53.841  1.00  0.00     0.319 C 
HETATM   10  H31 UNL     1      28.650   2.655  52.615  1.00  0.00     0.075 HD
BRANCH   7  11
HETATM   11  C2  UNL     1      29.360  -0.699  53.823  1.00  0.00     0.090 C 
HETATM   12  C1  UNL     1      29.377  -2.131  53.322  1.00  0.00     0.021 C 
ENDBRANCH   7  11
ENDBRANCH   3   4
ENDBRANCH   2   3
ENDBRANCH   1   2
BRANCH   1  13
HETATM   13  N3  UNL     1      25.334   3.584  50.654  1.00  0.00    -0.369 N 
HETATM   14  H15 UNL     1      26.358   3.525  50.552  1.00  0.00     0.161 HD
BRANCH  13  15
HETATM   15  C8  UNL     1      25.342   4.894  50.231  1.00  0.00     0.110 C 
HETATM   16  C9  UNL     1      26.097   5.439  49.231  1.00  0.00     0.041 A 
HETATM   17  C10 UNL     1      27.083   4.233  49.034  1.00  0.00     0.034 C 
HETATM   18  C15 UNL     1      26.646   6.739  48.211  1.00  0.00     0.005 A 
HETATM   19  C16 UNL     1      26.200   5.940  48.867  1.00  0.00     0.002 A 
HETATM   20  C11 UNL     1      27.728   5.643  48.597  1.00  0.00    -0.005 A 
HETATM   21  C12 UNL     1      28.978   5.587  48.257  1.00  0.00    -0.019 A 
HETATM   22  C14 UNL     1      27.866   7.052  47.648  1.00  0.00     0.032 A 
HETATM   23  C13 UNL     1      29.111   6.741  47.478  1.00  0.00    -0.023 A 
HETATM   24  C17 UNL     1      24.805   6.757  48.785  1.00  0.00     0.059 C 
HETATM   25  C18 UNL     1      24.484   7.150  50.197  1.00  0.00     0.092 C 
HETATM   26  N4  UNL     1      24.566   6.011  50.803  1.00  0.00    -0.251 NA
ENDBRANCH  13  15
ENDBRANCH   1  13
BRANCH   1  27
HETATM   27  C19 UNL     1      23.334   2.395  50.000  1.00  0.00    -0.035 A 
HETATM   28  C20 UNL     1      22.398   1.475  50.521  1.00  0.00     0.009 A 
HETATM   29  C21 UNL     1      21.337   1.004  49.782  1.00  0.00     0.001 A 
HETATM   30  C22 UNL     1      21.138   1.421  48.477  1.00  0.00     0.000 A 
HETATM   31  C23 UNL     1      22.058   2.304  48.009  1.00  0.00     0.001 A 
HETATM   32  C24 UNL     1      23.131   2.795  48.717  1.00  0.00     0.009 A 
ENDBRANCH   1  27
TORSDOF 7
ENDMDL
MODEL 5
REMARK VINA RESULT:      -8.8      1.557      5.355
REMARK  7 active torsions:
REMARK  status: ('A' for Active; 'I' for Inactive)
REMARK    1  A    between atoms: C2_2  and  N1_3 
REMARK    2  A    between atoms: N2_6  and  C5_7 
REMARK    3  A    between atoms: C5_7  and  C6_8 
REMARK    4  A    between atoms: C6_8  and  C7_9 
REMARK    5  A    between atoms: C7_9  and  N3_10 
REMARK    6  A    between atoms: C7_9  and  C19_23 
REMARK    7  A    between atoms: N3_10  and  C8_11 
ROOT
HETATM    1  C7  UNL     1      25.698   2.256  51.041  1.00  0.00     0.117 C 
ENDROOT
BRANCH   1   2
HETATM    2  C6  UNL     1      26.354   3.445  50.433  1.00  0.00     0.060 C 
BRANCH   2   3
HETATM    3  C5  UNL     1      25.473   3.915  49.292  1.00  0.00     0.275 C 
BRANCH   3   4
HETATM    4  N2  UNL     1      25.480   5.326  49.053  1.00  0.00     0.094 N 
HETATM    5  C4  UNL     1      26.769   5.904  48.768  1.00  0.00     0.287 C 
HETATM    6  C3  UNL     1      26.539   7.133  47.882  1.00  0.00     0.124 C 
HETATM    7  N1  UNL     1      25.989   8.226  48.597  1.00  0.00    -0.290 NA
HETATM    8  P1  UNL     1      25.028   7.779  50.054  1.00  0.00    -0.025 P 
HETATM    9  C25 UNL     1      25.075   5.940  50.336  1.00  0.00     0.319 C 
HETATM   10  H31 UNL     1      23.613   8.085  49.756  1.00  0.00     0.075 HD
BRANCH   7  11
HETATM   11  C2  UNL     1      26.919   9.310  48.869  1.00  0.00     0.090 C 
HETATM   12  C1  UNL     1      27.339   9.224  50.324  1.00  0.00     0.021 C 
ENDBRANCH   7  11
ENDBRANCH   3   4
ENDBRANCH   2   3
ENDBRANCH   1   2
BRANCH   1  13
HETATM   13  N3  UNL     1      24.389   2.379  51.518  1.00  0.00    -0.369 N 
HETATM   14  H15 UNL     1      23.903   3.010  52.172  1.00  0.00     0.161 HD
BRANCH  13  15
HETATM   15  C8  UNL     1      23.222   1.690  51.277  1.00  0.00     0.110 C 
HETATM   16  C9  UNL     1      22.440   1.035  52.188  1.00  0.00     0.041 A 
HETATM   17  C10 UNL     1      23.454   1.060  53.387  1.00  0.00     0.034 C 
HETATM   18  C15 UNL     1      21.064   0.090  52.682  1.00  0.00     0.005 A 
HETATM   19  C16 UNL     1      21.894   0.747  52.297  1.00  0.00     0.002 A 
HETATM   20  C11 UNL     1      22.416  -0.169  53.473  1.00  0.00    -0.005 A 
HETATM   21  C12 UNL     1      22.639  -1.002  54.442  1.00  0.00    -0.019 A 
HETATM   22  C14 UNL     1      20.879  -0.886  53.640  1.00  0.00     0.032 A 
HETATM   23  C13 UNL     1      21.385  -1.604  54.591  1.00  0.00    -0.023 A 
HETATM   24  C17 UNL     1      20.829   1.337  51.229  1.00  0.00     0.059 C 
HETATM   25  C18 UNL     1      21.382   0.995  49.877  1.00  0.00     0.092 C 
HETATM   26  N4  UNL     1      22.582   1.467  49.967  1.00  0.00    -0.251 NA
ENDBRANCH  13  15
ENDBRANCH   1  13
BRANCH   1  27
HETATM   27  C19 UNL     1      26.554   1.349  51.819  1.00  0.00    -0.035 A 
HETATM   28  C20 UNL     1      27.452   2.124  52.585  1.00  0.00     0.009 A 
HETATM   29  C21 UNL     1      28.377   1.559  53.434  1.00  0.00     0.001 A 
HETATM   30  C22 UNL     1      28.464   0.185  53.576  1.00  0.00     0.000 A 
HETATM   31  C23 UNL     1      27.586  -0.529  52.824  1.00  0.00     0.001 A 
HETATM   32  C24 UNL     1      26.651   0.000  51.965  1.00  0.00     0.009 A 
ENDBRANCH   1  27
TORSDOF 7
ENDMDL
MODEL 6
REMARK VINA RESULT:      -8.8      2.510      5.969
REMARK  7 active torsions:
REMARK  status: ('A' for Active; 'I' for Inactive)
REMARK    1  A    between atoms: C2_2  and  N1_3 
REMARK    2  A    between atoms: N2_6  and  C5_7 
REMARK    3  A    between atoms: C5_7  and  C6_8 
REMARK    4  A    between atoms: C6_8  and  C7_9 
REMARK    5  A    between atoms: C7_9  and  N3_10 
REMARK    6  A    between atoms: C7_9  and  C19_23 
REMARK    7  A    between atoms: N3_10  and  C8_11 
ROOT
HETATM    1  C7  UNL     1      24.358   3.971  50.643  1.00  0.00     0.117 C 
ENDROOT
BRANCH   1   2
HETATM    2  C6  UNL     1      23.816   4.896  51.674  1.00  0.00     0.060 C 
BRANCH   2   3
HETATM    3  C5  UNL     1      22.304   4.854  51.572  1.00  0.00     0.275 C 
BRANCH   3   4
HETATM    4  N2  UNL     1      21.734   5.701  50.569  1.00  0.00     0.094 N 
HETATM    5  C4  UNL     1      21.618   7.094  50.922  1.00  0.00     0.287 C 
HETATM    6  C3  UNL     1      21.698   7.908  49.625  1.00  0.00     0.124 C 
HETATM    7  N1  UNL     1      20.520   7.806  48.844  1.00  0.00    -0.290 NA
HETATM    8  P1  UNL     1      19.573   6.293  49.084  1.00  0.00    -0.025 P 
HETATM    9  C25 UNL     1      20.337   5.241  50.416  1.00  0.00     0.319 C 
HETATM   10  H31 UNL     1      19.700   5.495  47.847  1.00  0.00     0.075 HD
BRANCH   7  11
HETATM   11  C2  UNL     1      19.672   8.987  48.856  1.00  0.00     0.090 C 
HETATM   12  C1  UNL     1      20.536  10.190  49.181  1.00  0.00     0.021 C 
ENDBRANCH   7  11
ENDBRANCH   3   4
ENDBRANCH   2   3
ENDBRANCH   1   2
BRANCH   1  13
HETATM   13  N3  UNL     1      24.328   2.594  50.888  1.00  0.00    -0.369 N 
HETATM   14  H15 UNL     1      23.988   1.766  50.377  1.00  0.00     0.161 HD
BRANCH  13  15
HETATM   15  C8  UNL     1      24.765   1.805  51.927  1.00  0.00     0.110 C 
HETATM   16  C9  UNL     1      24.079   0.803  52.555  1.00  0.00     0.041 A 
HETATM   17  C10 UNL     1      22.662   1.115  51.956  1.00  0.00     0.034 C 
HETATM   18  C15 UNL     1      23.887  -0.472  53.725  1.00  0.00     0.005 A 
HETATM   19  C16 UNL     1      24.107   0.324  52.960  1.00  0.00     0.002 A 
HETATM   20  C11 UNL     1      22.586   0.371  53.383  1.00  0.00    -0.005 A 
HETATM   21  C12 UNL     1      21.389   0.242  53.866  1.00  0.00    -0.019 A 
HETATM   22  C14 UNL     1      22.814  -0.926  54.464  1.00  0.00     0.032 A 
HETATM   23  C13 UNL     1      21.559  -0.820  54.761  1.00  0.00    -0.023 A 
HETATM   24  C17 UNL     1      25.642  -0.192  52.974  1.00  0.00     0.059 C 
HETATM   25  C18 UNL     1      26.457   0.979  53.438  1.00  0.00     0.092 C 
HETATM   26  N4  UNL     1      26.062   1.902  52.625  1.00  0.00    -0.251 NA
ENDBRANCH  13  15
ENDBRANCH   1  13
BRANCH   1  27
HETATM   27  C19 UNL     1      25.528   4.435  49.882  1.00  0.00    -0.035 A 
HETATM   28  C20 UNL     1      25.380   5.815  49.626  1.00  0.00     0.009 A 
HETATM   29  C21 UNL     1      26.326   6.544  48.942  1.00  0.00     0.001 A 
HETATM   30  C22 UNL     1      27.481   5.945  48.471  1.00  0.00     0.000 A 
HETATM   31  C23 UNL     1      27.589   4.617  48.733  1.00  0.00     0.001 A 
HETATM   32  C24 UNL     1      26.665   3.856  49.412  1.00  0.00     0.009 A 
ENDBRANCH   1  27
TORSDOF 7
ENDMDL
MODEL 7
REMARK VINA RESULT:      -8.7      2.643      5.899
REMARK  7 active torsions:
REMARK  status: ('A' for Active; 'I' for Inactive)
REMARK    1  A    between atoms: C2_2  and  N1_3 
REMARK    2  A    between atoms: N2_6  and  C5_7 
REMARK    3  A    between atoms: C5_7  and  C6_8 
REMARK    4  A    between atoms: C6_8  and  C7_9 
REMARK    5  A    between atoms: C7_9  and  N3_10 
REMARK    6  A    between atoms: C7_9  and  C19_23 
REMARK    7  A    between atoms: N3_10  and  C8_11 
ROOT
HETATM    1  C7  UNL     1      24.382   3.767  50.470  1.00  0.00     0.117 C 
ENDROOT
BRANCH   1   2
HETATM    2  C6  UNL     1      23.667   4.680  51.402  1.00  0.00     0.060 C 
BRANCH   2   3
HETATM    3  C5  UNL     1      22.197   4.644  51.034  1.00  0.00     0.275 C 
BRANCH   3   4
HETATM    4  N2  UNL     1      21.909   4.205  49.702  1.00  0.00     0.094 N 
HETATM    5  C4  UNL     1      21.595   5.248  48.757  1.00  0.00     0.287 C 
HETATM    6  C3  UNL     1      22.017   4.755  47.368  1.00  0.00     0.124 C 
HETATM    7  N1  UNL     1      21.148   3.760  46.856  1.00  0.00    -0.290 NA
HETATM    8  P1  UNL     1      20.278   2.791  48.101  1.00  0.00    -0.025 P 
HETATM    9  C25 UNL     1      20.663   3.417  49.811  1.00  0.00     0.319 C 
HETATM   10  H31 UNL     1      20.835   1.423  48.061  1.00  0.00     0.075 HD
BRANCH   7  11
HETATM   11  C2  UNL     1      20.260   4.207  45.796  1.00  0.00     0.090 C 
HETATM   12  C1  UNL     1      20.946   3.966  44.465  1.00  0.00     0.021 C 
ENDBRANCH   7  11
ENDBRANCH   3   4
ENDBRANCH   2   3
ENDBRANCH   1   2
BRANCH   1  13
HETATM   13  N3  UNL     1      24.487   2.412  50.800  1.00  0.00    -0.369 N 
HETATM   14  H15 UNL     1      24.335   1.521  50.303  1.00  0.00     0.161 HD
BRANCH  13  15
HETATM   15  C8  UNL     1      24.856   1.739  51.943  1.00  0.00     0.110 C 
HETATM   16  C9  UNL     1      24.159   0.758  52.592  1.00  0.00     0.041 A 
HETATM   17  C10 UNL     1      22.794   0.940  51.837  1.00  0.00     0.034 C 
HETATM   18  C15 UNL     1      23.911  -0.422  53.848  1.00  0.00     0.005 A 
HETATM   19  C16 UNL     1      24.168   0.317  53.038  1.00  0.00     0.002 A 
HETATM   20  C11 UNL     1      22.613   0.317  53.311  1.00  0.00    -0.005 A 
HETATM   21  C12 UNL     1      21.381   0.165  53.689  1.00  0.00    -0.019 A 
HETATM   22  C14 UNL     1      22.793  -0.870  54.521  1.00  0.00     0.032 A 
HETATM   23  C13 UNL     1      21.511  -0.807  54.688  1.00  0.00    -0.023 A 
HETATM   24  C17 UNL     1      25.717  -0.112  53.242  1.00  0.00     0.059 C 
HETATM   25  C18 UNL     1      26.427   1.137  53.674  1.00  0.00     0.092 C 
HETATM   26  N4  UNL     1      26.072   1.965  52.748  1.00  0.00    -0.251 NA
ENDBRANCH  13  15
ENDBRANCH   1  13
BRANCH   1  27
HETATM   27  C19 UNL     1      25.545   4.318  49.760  1.00  0.00    -0.035 A 
HETATM   28  C20 UNL     1      25.279   5.667  49.439  1.00  0.00     0.009 A 
HETATM   29  C21 UNL     1      26.190   6.463  48.782  1.00  0.00     0.001 A 
HETATM   30  C22 UNL     1      27.425   5.966  48.403  1.00  0.00     0.000 A 
HETATM   31  C23 UNL     1      27.646   4.665  48.726  1.00  0.00     0.001 A 
HETATM   32  C24 UNL     1      26.761   3.840  49.380  1.00  0.00     0.009 A 
ENDBRANCH   1  27
TORSDOF 7
ENDMDL
MODEL 8
REMARK VINA RESULT:      -8.6      2.581      6.193
REMARK  7 active torsions:
REMARK  status: ('A' for Active; 'I' for Inactive)
REMARK    1  A    between atoms: C2_2  and  N1_3 
REMARK    2  A    between atoms: N2_6  and  C5_7 
REMARK    3  A    between atoms: C5_7  and  C6_8 
REMARK    4  A    between atoms: C6_8  and  C7_9 
REMARK    5  A    between atoms: C7_9  and  N3_10 
REMARK    6  A    between atoms: C7_9  and  C19_23 
REMARK    7  A    between atoms: N3_10  and  C8_11 
ROOT
HETATM    1  C7  UNL     1      24.224   3.860  51.074  1.00  0.00     0.117 C 
ENDROOT
BRANCH   1   2
HETATM    2  C6  UNL     1      23.528   4.593  52.165  1.00  0.00     0.060 C 
BRANCH   2   3
HETATM    3  C5  UNL     1      22.230   5.131  51.595  1.00  0.00     0.275 C 
BRANCH   3   4
HETATM    4  N2  UNL     1      21.369   4.153  51.003  1.00  0.00     0.094 N 
HETATM    5  C4  UNL     1      20.468   4.647  49.991  1.00  0.00     0.287 C 
HETATM    6  C3  UNL     1      20.186   3.495  49.020  1.00  0.00     0.124 C 
HETATM    7  N1  UNL     1      19.333   2.510  49.577  1.00  0.00    -0.290 NA
HETATM    8  P1  UNL     1      19.374   2.391  51.374  1.00  0.00    -0.025 P 
HETATM    9  C25 UNL     1      20.483   3.699  52.096  1.00  0.00     0.319 C 
HETATM   10  H31 UNL     1      20.024   1.108  51.714  1.00  0.00     0.075 HD
BRANCH   7  11
HETATM   11  C2  UNL     1      17.973   2.515  49.062  1.00  0.00     0.090 C 
HETATM   12  C1  UNL     1      17.058   3.063  50.140  1.00  0.00     0.021 C 
ENDBRANCH   7  11
ENDBRANCH   3   4
ENDBRANCH   2   3
ENDBRANCH   1   2
BRANCH   1  13
HETATM   13  N3  UNL     1      24.573   2.521  51.276  1.00  0.00    -0.369 N 
HETATM   14  H15 UNL     1      24.711   1.699  50.668  1.00  0.00     0.161 HD
BRANCH  13  15
HETATM   15  C8  UNL     1      24.884   1.778  52.392  1.00  0.00     0.110 C 
HETATM   16  C9  UNL     1      24.191   0.717  52.904  1.00  0.00     0.041 A 
HETATM   17  C10 UNL     1      22.884   0.892  52.051  1.00  0.00     0.034 C 
HETATM   18  C15 UNL     1      23.907  -0.569  54.043  1.00  0.00     0.005 A 
HETATM   19  C16 UNL     1      24.188   0.243  53.315  1.00  0.00     0.002 A 
HETATM   20  C11 UNL     1      22.618   0.147  53.455  1.00  0.00    -0.005 A 
HETATM   21  C12 UNL     1      21.370  -0.094  53.714  1.00  0.00    -0.019 A 
HETATM   22  C14 UNL     1      22.764  -1.122  54.583  1.00  0.00     0.032 A 
HETATM   23  C13 UNL     1      21.472  -1.134  54.645  1.00  0.00    -0.023 A 
HETATM   24  C17 UNL     1      25.736  -0.126  53.618  1.00  0.00     0.059 C 
HETATM   25  C18 UNL     1      26.340   1.118  54.201  1.00  0.00     0.092 C 
HETATM   26  N4  UNL     1      26.016   1.998  53.312  1.00  0.00    -0.251 NA
ENDBRANCH  13  15
ENDBRANCH   1  13
BRANCH   1  27
HETATM   27  C19 UNL     1      25.179   4.628  50.260  1.00  0.00    -0.035 A 
HETATM   28  C20 UNL     1      26.181   3.749  49.793  1.00  0.00     0.009 A 
HETATM   29  C21 UNL     1      27.215   4.170  48.988  1.00  0.00     0.001 A 
HETATM   30  C22 UNL     1      27.316   5.493  48.595  1.00  0.00     0.000 A 
HETATM   31  C23 UNL     1      26.336   6.310  49.063  1.00  0.00     0.001 A 
HETATM   32  C24 UNL     1      25.290   5.925  49.870  1.00  0.00     0.009 A 
ENDBRANCH   1  27
TORSDOF 7
ENDMDL
MODEL 9
REMARK VINA RESULT:      -8.6      2.530      6.864
REMARK  7 active torsions:
REMARK  status: ('A' for Active; 'I' for Inactive)
REMARK    1  A    between atoms: C2_2  and  N1_3 
REMARK    2  A    between atoms: N2_6  and  C5_7 
REMARK    3  A    between atoms: C5_7  and  C6_8 
REMARK    4  A    between atoms: C6_8  and  C7_9 
REMARK    5  A    between atoms: C7_9  and  N3_10 
REMARK    6  A    between atoms: C7_9  and  C19_23 
REMARK    7  A    between atoms: N3_10  and  C8_11 
ROOT
HETATM    1  C7  UNL     1      24.698   2.699  51.102  1.00  0.00     0.117 C 
ENDROOT
BRANCH   1   2
HETATM    2  C6  UNL     1      23.485   2.464  50.273  1.00  0.00     0.060 C 
BRANCH   2   3
HETATM    3  C5  UNL     1      22.377   3.333  50.834  1.00  0.00     0.275 C 
BRANCH   3   4
HETATM    4  N2  UNL     1      21.243   2.625  51.343  1.00  0.00     0.094 N 
HETATM    5  C4  UNL     1      21.189   1.220  51.024  1.00  0.00     0.287 C 
HETATM    6  C3  UNL     1      20.417   0.519  52.147  1.00  0.00     0.124 C 
HETATM    7  N1  UNL     1      19.026   0.783  52.100  1.00  0.00    -0.290 NA
HETATM    8  P1  UNL     1      18.570   2.340  51.318  1.00  0.00    -0.025 P 
HETATM    9  C25 UNL     1      20.074   3.207  50.648  1.00  0.00     0.319 C 
HETATM   10  H31 UNL     1      18.057   3.231  52.380  1.00  0.00     0.075 HD
BRANCH   7  11
HETATM   11  C2  UNL     1      18.208  -0.322  51.630  1.00  0.00     0.090 C 
HETATM   12  C1  UNL     1      17.870  -1.204  52.816  1.00  0.00     0.021 C 
ENDBRANCH   7  11
ENDBRANCH   3   4
ENDBRANCH   2   3
ENDBRANCH   1   2
BRANCH   1  13
HETATM   13  N3  UNL     1      25.612   3.679  50.699  1.00  0.00    -0.369 N 
HETATM   14  H15 UNL     1      26.638   3.741  50.632  1.00  0.00     0.161 HD
BRANCH  13  15
HETATM   15  C8  UNL     1      25.478   4.960  50.214  1.00  0.00     0.110 C 
HETATM   16  C9  UNL     1      26.159   5.530  49.174  1.00  0.00     0.041 A 
HETATM   17  C10 UNL     1      27.262   4.422  49.016  1.00  0.00     0.034 C 
HETATM   18  C15 UNL     1      26.556   6.826  48.082  1.00  0.00     0.005 A 
HETATM   19  C16 UNL     1      26.205   6.019  48.784  1.00  0.00     0.002 A 
HETATM   20  C11 UNL     1      27.751   5.868  48.500  1.00  0.00    -0.005 A 
HETATM   21  C12 UNL     1      28.996   5.923  48.140  1.00  0.00    -0.019 A 
HETATM   22  C14 UNL     1      27.730   7.234  47.482  1.00  0.00     0.032 A 
HETATM   23  C13 UNL     1      28.998   7.045  47.303  1.00  0.00    -0.023 A 
HETATM   24  C17 UNL     1      24.731   6.684  48.690  1.00  0.00     0.059 C 
HETATM   25  C18 UNL     1      24.391   7.112  50.087  1.00  0.00     0.092 C 
HETATM   26  N4  UNL     1      24.599   6.019  50.745  1.00  0.00    -0.251 NA
ENDBRANCH  13  15
ENDBRANCH   1  13
BRANCH   1  27
HETATM   27  C19 UNL     1      25.302   1.524  51.747  1.00  0.00    -0.035 A 
HETATM   28  C20 UNL     1      24.365   0.976  52.651  1.00  0.00     0.009 A 
HETATM   29  C21 UNL     1      24.633  -0.148  53.400  1.00  0.00     0.001 A 
HETATM   30  C22 UNL     1      25.850  -0.799  53.294  1.00  0.00     0.000 A 
HETATM   31  C23 UNL     1      26.726  -0.244  52.417  1.00  0.00     0.001 A 
HETATM   32  C24 UNL     1      26.494   0.877  51.654  1.00  0.00     0.009 A 
ENDBRANCH   1  27
TORSDOF 7
ENDMDL
