MODEL 1
REMARK VINA RESULT:      -7.8      0.000      0.000
REMARK  6 active torsions:
REMARK  status: ('A' for Active; 'I' for Inactive)
REMARK    1  A    between atoms: C3_3  and  C4_4 
REMARK       I    between atoms: C4_4  and  N1_6 
REMARK    2  A    between atoms: C9_11  and  N2_12 
REMARK    3  A    between atoms: N2_12  and  C10_13 
REMARK    4  A    between atoms: C10_13  and  C11_14 
REMARK    5  A    between atoms: C10_13  and  C12_16 
REMARK    6  A    between atoms: C11_14  and  O2_15 
ROOT
HETATM    1  C1  UNL     1      18.319   2.894  45.187  1.00  0.00     0.112 C 
HETATM    2  C2  UNL     1      19.295   3.582  46.033  1.00  0.00    -0.101 C 
HETATM    3  C3  UNL     1      20.104   4.155  46.719  1.00  0.00    -0.006 C 
ENDROOT
BRANCH   3   4
HETATM    4  C4  UNL     1      21.064   4.835  47.548  1.00  0.00     0.298 C 
HETATM    5  O1  UNL     1      21.062   6.087  47.742  1.00  0.00    -0.258 OA
HETATM    6  N1  UNL     1      22.092   4.133  48.213  1.00  0.00    -0.336 N 
HETATM    7  C5  UNL     1      22.979   4.960  49.010  1.00  0.00     0.132 C 
HETATM    8  C21 UNL     1      22.294   2.694  48.140  1.00  0.00     0.173 C 
HETATM    9  C6  UNL     1      24.042   4.188  49.719  1.00  0.00     0.059 C 
HETATM   10  C7  UNL     1      23.755   2.770  49.948  1.00  0.00    -0.038 C 
HETATM   11  C8  UNL     1      24.838   2.185  50.570  1.00  0.00     0.058 C 
HETATM   12  C20 UNL     1      22.529   2.262  49.536  1.00  0.00     0.008 C 
HETATM   13  C9  UNL     1      24.774   1.750  51.878  1.00  0.00     0.126 C 
HETATM   14  N3  UNL     1      23.859   2.336  52.671  1.00  0.00    -0.225 NA
HETATM   15  C18 UNL     1      22.586   1.887  52.759  1.00  0.00     0.235 C 
HETATM   16  N4  UNL     1      21.519   1.040  52.678  1.00  0.00    -0.247 NA
HETATM   17  C19 UNL     1      21.533   0.255  51.560  1.00  0.00     0.167 C 
HETATM   18  S1  UNL     1      21.301   1.301  50.244  1.00  0.00    -0.085 SA
BRANCH  13  19
HETATM   19  N2  UNL     1      25.628   0.733  52.387  1.00  0.00    -0.364 N 
HETATM   20  H9  UNL     1      25.416  -0.265  52.083  1.00  0.00     0.162 HD
BRANCH  19  21
HETATM   21  C10 UNL     1      26.746   1.036  53.286  1.00  0.00     0.140 C 
BRANCH  21  22
HETATM   22  C11 UNL     1      27.483   2.278  52.925  1.00  0.00     0.194 C 
BRANCH  22  23
HETATM   23  O2  UNL     1      27.989   2.863  54.084  1.00  0.00    -0.399 OA
HETATM   24  H13 UNL     1      27.356   3.540  54.483  1.00  0.00     0.209 HD
ENDBRANCH  22  23
ENDBRANCH  21  22
BRANCH  21  25
HETATM   25  C12 UNL     1      27.649  -0.112  53.286  1.00  0.00    -0.034 A 
HETATM   26  C13 UNL     1      28.963  -0.315  53.634  1.00  0.00     0.009 A 
HETATM   27  C14 UNL     1      29.575  -1.544  53.537  1.00  0.00     0.001 A 
HETATM   28  C15 UNL     1      28.901  -2.655  53.082  1.00  0.00     0.000 A 
HETATM   29  C16 UNL     1      27.585  -2.501  52.722  1.00  0.00     0.001 A 
HETATM   30  C17 UNL     1      26.977  -1.249  52.824  1.00  0.00     0.009 A 
ENDBRANCH  21  25
ENDBRANCH  19  21
ENDBRANCH  13  19
ENDBRANCH   3   4
TORSDOF 6
ENDMDL
MODEL 2
REMARK VINA RESULT:      -7.4      3.028      4.292
REMARK  6 active torsions:
REMARK  status: ('A' for Active; 'I' for Inactive)
REMARK    1  A    between atoms: C3_3  and  C4_4 
REMARK       I    between atoms: C4_4  and  N1_6 
REMARK    2  A    between atoms: C9_11  and  N2_12 
REMARK    3  A    between atoms: N2_12  and  C10_13 
REMARK    4  A    between atoms: C10_13  and  C11_14 
REMARK    5  A    between atoms: C10_13  and  C12_16 
REMARK    6  A    between atoms: C11_14  and  O2_15 
ROOT
HETATM    1  C1  UNL     1      21.148  11.085  48.580  1.00  0.00     0.112 C 
HETATM    2  C2  UNL     1      20.723   9.715  48.864  1.00  0.00    -0.101 C 
HETATM    3  C3  UNL     1      20.358   8.589  49.097  1.00  0.00    -0.006 C 
ENDROOT
BRANCH   3   4
HETATM    4  C4  UNL     1      19.935   7.242  49.375  1.00  0.00     0.298 C 
HETATM    5  O1  UNL     1      18.918   6.703  48.847  1.00  0.00    -0.258 OA
HETATM    6  N1  UNL     1      20.645   6.417  50.274  1.00  0.00    -0.336 N 
HETATM    7  C5  UNL     1      20.093   5.086  50.447  1.00  0.00     0.132 C 
HETATM    8  C21 UNL     1      21.841   6.818  50.998  1.00  0.00     0.173 C 
HETATM    9  C6  UNL     1      20.876   4.229  51.384  1.00  0.00     0.059 C 
HETATM   10  C7  UNL     1      22.279   4.607  51.572  1.00  0.00    -0.038 C 
HETATM   11  C8  UNL     1      22.856   3.756  52.491  1.00  0.00     0.058 C 
HETATM   12  C20 UNL     1      22.783   5.684  50.854  1.00  0.00     0.008 C 
HETATM   13  C9  UNL     1      23.818   2.838  52.123  1.00  0.00     0.126 C 
HETATM   14  N3  UNL     1      23.823   2.440  50.839  1.00  0.00    -0.225 NA
HETATM   15  C18 UNL     1      24.500   3.110  49.877  1.00  0.00     0.235 C 
HETATM   16  N4  UNL     1      25.415   3.941  49.300  1.00  0.00    -0.247 NA
HETATM   17  C19 UNL     1      25.618   5.095  50.000  1.00  0.00     0.167 C 
HETATM   18  S1  UNL     1      24.171   5.975  49.895  1.00  0.00    -0.085 SA
BRANCH  13  19
HETATM   19  N2  UNL     1      24.771   2.320  53.044  1.00  0.00    -0.364 N 
HETATM   20  H9  UNL     1      25.111   2.983  53.803  1.00  0.00     0.162 HD
BRANCH  19  21
HETATM   21  C10 UNL     1      25.266   0.942  52.957  1.00  0.00     0.140 C 
BRANCH  21  22
HETATM   22  C11 UNL     1      24.386  -0.052  53.633  1.00  0.00     0.194 C 
BRANCH  22  23
HETATM   23  O2  UNL     1      23.224  -0.219  52.883  1.00  0.00    -0.399 OA
HETATM   24  H13 UNL     1      22.565   0.532  53.020  1.00  0.00     0.209 HD
ENDBRANCH  22  23
ENDBRANCH  21  22
BRANCH  21  25
HETATM   25  C12 UNL     1      26.609   0.908  53.529  1.00  0.00    -0.034 A 
HETATM   26  C13 UNL     1      27.326   0.000  54.272  1.00  0.00     0.009 A 
HETATM   27  C14 UNL     1      28.620   0.233  54.679  1.00  0.00     0.001 A 
HETATM   28  C15 UNL     1      29.280   1.400  54.364  1.00  0.00     0.000 A 
HETATM   29  C16 UNL     1      28.604   2.337  53.622  1.00  0.00     0.001 A 
HETATM   30  C17 UNL     1      27.291   2.089  53.216  1.00  0.00     0.009 A 
ENDBRANCH  21  25
ENDBRANCH  19  21
ENDBRANCH  13  19
ENDBRANCH   3   4
TORSDOF 6
ENDMDL
MODEL 3
REMARK VINA RESULT:      -7.3      2.014      2.495
REMARK  6 active torsions:
REMARK  status: ('A' for Active; 'I' for Inactive)
REMARK    1  A    between atoms: C3_3  and  C4_4 
REMARK       I    between atoms: C4_4  and  N1_6 
REMARK    2  A    between atoms: C9_11  and  N2_12 
REMARK    3  A    between atoms: N2_12  and  C10_13 
REMARK    4  A    between atoms: C10_13  and  C11_14 
REMARK    5  A    between atoms: C10_13  and  C12_16 
REMARK    6  A    between atoms: C11_14  and  O2_15 
ROOT
HETATM    1  C1  UNL     1      18.645   2.934  44.012  1.00  0.00     0.112 C 
HETATM    2  C2  UNL     1      19.680   3.620  44.785  1.00  0.00    -0.101 C 
HETATM    3  C3  UNL     1      20.527   4.182  45.434  1.00  0.00    -0.006 C 
ENDROOT
BRANCH   3   4
HETATM    4  C4  UNL     1      21.544   4.854  46.199  1.00  0.00     0.298 C 
HETATM    5  O1  UNL     1      21.933   6.036  45.963  1.00  0.00    -0.258 OA
HETATM    6  N1  UNL     1      22.188   4.223  47.286  1.00  0.00    -0.336 N 
HETATM    7  C5  UNL     1      23.190   5.032  47.954  1.00  0.00     0.132 C 
HETATM    8  C21 UNL     1      21.908   2.870  47.741  1.00  0.00     0.173 C 
HETATM    9  C6  UNL     1      23.836   4.348  49.113  1.00  0.00     0.059 C 
HETATM   10  C7  UNL     1      23.069   3.258  49.719  1.00  0.00    -0.038 C 
HETATM   11  C8  UNL     1      23.807   2.699  50.741  1.00  0.00     0.058 C 
HETATM   12  C20 UNL     1      21.807   2.968  49.215  1.00  0.00     0.008 C 
HETATM   13  C9  UNL     1      23.437   2.839  52.063  1.00  0.00     0.126 C 
HETATM   14  N3  UNL     1      22.675   3.903  52.374  1.00  0.00    -0.225 NA
HETATM   15  C18 UNL     1      21.325   3.872  52.294  1.00  0.00     0.235 C 
HETATM   16  N4  UNL     1      20.057   3.370  52.242  1.00  0.00    -0.247 NA
HETATM   17  C19 UNL     1      19.952   2.239  51.483  1.00  0.00     0.167 C 
HETATM   18  S1  UNL     1      20.250   2.713  49.881  1.00  0.00    -0.085 SA
BRANCH  13  19
HETATM   19  N2  UNL     1      23.833   1.915  53.069  1.00  0.00    -0.364 N 
HETATM   20  H9  UNL     1      23.983   2.309  54.046  1.00  0.00     0.162 HD
BRANCH  19  21
HETATM   21  C10 UNL     1      24.028   0.490  52.782  1.00  0.00     0.140 C 
BRANCH  21  22
HETATM   22  C11 UNL     1      23.150  -0.406  53.585  1.00  0.00     0.194 C 
BRANCH  22  23
HETATM   23  O2  UNL     1      21.974   0.271  53.902  1.00  0.00    -0.399 OA
HETATM   24  H13 UNL     1      21.195  -0.355  54.041  1.00  0.00     0.209 HD
ENDBRANCH  22  23
ENDBRANCH  21  22
BRANCH  21  25
HETATM   25  C12 UNL     1      25.434   0.171  53.017  1.00  0.00    -0.034 A 
HETATM   26  C13 UNL     1      26.466  -0.300  52.240  1.00  0.00     0.009 A 
HETATM   27  C14 UNL     1      27.733  -0.505  52.737  1.00  0.00     0.001 A 
HETATM   28  C15 UNL     1      28.046  -0.249  54.053  1.00  0.00     0.000 A 
HETATM   29  C16 UNL     1      27.047   0.224  54.867  1.00  0.00     0.001 A 
HETATM   30  C17 UNL     1      25.766   0.427  54.352  1.00  0.00     0.009 A 
ENDBRANCH  21  25
ENDBRANCH  19  21
ENDBRANCH  13  19
ENDBRANCH   3   4
TORSDOF 6
ENDMDL
MODEL 4
REMARK VINA RESULT:      -7.2      2.859      4.150
REMARK  6 active torsions:
REMARK  status: ('A' for Active; 'I' for Inactive)
REMARK    1  A    between atoms: C3_3  and  C4_4 
REMARK       I    between atoms: C4_4  and  N1_6 
REMARK    2  A    between atoms: C9_11  and  N2_12 
REMARK    3  A    between atoms: N2_12  and  C10_13 
REMARK    4  A    between atoms: C10_13  and  C11_14 
REMARK    5  A    between atoms: C10_13  and  C12_16 
REMARK    6  A    between atoms: C11_14  and  O2_15 
ROOT
HETATM    1  C1  UNL     1      19.875   8.376  45.244  1.00  0.00     0.112 C 
HETATM    2  C2  UNL     1      21.122   8.176  45.983  1.00  0.00    -0.101 C 
HETATM    3  C3  UNL     1      22.156   8.015  46.581  1.00  0.00    -0.006 C 
ENDROOT
BRANCH   3   4
HETATM    4  C4  UNL     1      23.385   7.821  47.305  1.00  0.00     0.298 C 
HETATM    5  O1  UNL     1      24.230   8.741  47.512  1.00  0.00    -0.258 OA
HETATM    6  N1  UNL     1      23.733   6.563  47.843  1.00  0.00    -0.336 N 
HETATM    7  C5  UNL     1      25.003   6.529  48.545  1.00  0.00     0.132 C 
HETATM    8  C21 UNL     1      22.922   5.360  47.730  1.00  0.00     0.173 C 
HETATM    9  C6  UNL     1      25.333   5.193  49.122  1.00  0.00     0.059 C 
HETATM   10  C7  UNL     1      24.196   4.304  49.364  1.00  0.00    -0.038 C 
HETATM   11  C8  UNL     1      24.659   3.101  49.854  1.00  0.00     0.058 C 
HETATM   12  C20 UNL     1      22.915   4.766  49.087  1.00  0.00     0.008 C 
HETATM   13  C9  UNL     1      24.422   2.710  51.156  1.00  0.00     0.126 C 
HETATM   14  N3  UNL     1      24.191   3.684  52.054  1.00  0.00    -0.225 NA
HETATM   15  C18 UNL     1      22.953   4.181  52.278  1.00  0.00     0.235 C 
HETATM   16  N4  UNL     1      21.591   4.258  52.307  1.00  0.00    -0.247 NA
HETATM   17  C19 UNL     1      20.995   3.756  51.186  1.00  0.00     0.167 C 
HETATM   18  S1  UNL     1      21.418   4.799  49.916  1.00  0.00    -0.085 SA
BRANCH  13  19
HETATM   19  N2  UNL     1      24.420   1.344  51.555  1.00  0.00    -0.364 N 
HETATM   20  H9  UNL     1      24.341   0.621  50.778  1.00  0.00     0.162 HD
BRANCH  19  21
HETATM   21  C10 UNL     1      24.520   0.945  52.962  1.00  0.00     0.140 C 
BRANCH  21  22
HETATM   22  C11 UNL     1      25.619  -0.023  53.231  1.00  0.00     0.194 C 
BRANCH  22  23
HETATM   23  O2  UNL     1      26.466  -0.073  52.126  1.00  0.00    -0.399 OA
HETATM   24  H13 UNL     1      26.580  -1.010  51.770  1.00  0.00     0.209 HD
ENDBRANCH  22  23
ENDBRANCH  21  22
BRANCH  21  25
HETATM   25  C12 UNL     1      23.234   0.383  53.365  1.00  0.00    -0.034 A 
HETATM   26  C13 UNL     1      21.920   0.653  53.068  1.00  0.00     0.009 A 
HETATM   27  C14 UNL     1      20.875  -0.067  53.602  1.00  0.00     0.001 A 
HETATM   28  C15 UNL     1      21.087  -1.112  54.474  1.00  0.00     0.000 A 
HETATM   29  C16 UNL     1      22.385  -1.419  54.800  1.00  0.00     0.001 A 
HETATM   30  C17 UNL     1      23.435  -0.680  54.252  1.00  0.00     0.009 A 
ENDBRANCH  21  25
ENDBRANCH  19  21
ENDBRANCH  13  19
ENDBRANCH   3   4
TORSDOF 6
ENDMDL
MODEL 5
REMARK VINA RESULT:      -7.1      3.047      4.320
REMARK  6 active torsions:
REMARK  status: ('A' for Active; 'I' for Inactive)
REMARK    1  A    between atoms: C3_3  and  C4_4 
REMARK       I    between atoms: C4_4  and  N1_6 
REMARK    2  A    between atoms: C9_11  and  N2_12 
REMARK    3  A    between atoms: N2_12  and  C10_13 
REMARK    4  A    between atoms: C10_13  and  C11_14 
REMARK    5  A    between atoms: C10_13  and  C12_16 
REMARK    6  A    between atoms: C11_14  and  O2_15 
ROOT
HETATM    1  C1  UNL     1      24.512   7.748  43.951  1.00  0.00     0.112 C 
HETATM    2  C2  UNL     1      24.353   8.010  45.381  1.00  0.00    -0.101 C 
HETATM    3  C3  UNL     1      24.213   8.237  46.558  1.00  0.00    -0.006 C 
ENDROOT
BRANCH   3   4
HETATM    4  C4  UNL     1      24.053   8.497  47.964  1.00  0.00     0.298 C 
HETATM    5  O1  UNL     1      23.800   9.642  48.441  1.00  0.00    -0.258 OA
HETATM    6  N1  UNL     1      24.170   7.466  48.922  1.00  0.00    -0.336 N 
HETATM    7  C5  UNL     1      23.982   7.888  50.298  1.00  0.00     0.132 C 
HETATM    8  C21 UNL     1      24.456   6.074  48.611  1.00  0.00     0.173 C 
HETATM    9  C6  UNL     1      24.088   6.775  51.286  1.00  0.00     0.059 C 
HETATM   10  C7  UNL     1      23.843   5.430  50.760  1.00  0.00    -0.038 C 
HETATM   11  C8  UNL     1      24.018   4.510  51.772  1.00  0.00     0.058 C 
HETATM   12  C20 UNL     1      23.498   5.288  49.422  1.00  0.00     0.008 C 
HETATM   13  C9  UNL     1      22.957   3.803  52.300  1.00  0.00     0.126 C 
HETATM   14  N3  UNL     1      21.737   4.357  52.184  1.00  0.00    -0.225 NA
HETATM   15  C18 UNL     1      20.956   4.165  51.096  1.00  0.00     0.235 C 
HETATM   16  N4  UNL     1      20.463   3.592  49.961  1.00  0.00    -0.247 NA
HETATM   17  C19 UNL     1      21.433   3.105  49.132  1.00  0.00     0.167 C 
HETATM   18  S1  UNL     1      22.282   4.455  48.551  1.00  0.00    -0.085 SA
BRANCH  13  19
HETATM   19  N2  UNL     1      23.122   2.545  52.943  1.00  0.00    -0.364 N 
HETATM   20  H9  UNL     1      23.204   2.559  54.004  1.00  0.00     0.162 HD
BRANCH  19  21
HETATM   21  C10 UNL     1      23.177   1.288  52.189  1.00  0.00     0.140 C 
BRANCH  21  22
HETATM   22  C11 UNL     1      22.007   0.399  52.425  1.00  0.00     0.194 C 
BRANCH  22  23
HETATM   23  O2  UNL     1      20.936   0.835  51.647  1.00  0.00    -0.399 OA
HETATM   24  H13 UNL     1      20.786   1.830  51.721  1.00  0.00     0.209 HD
ENDBRANCH  22  23
ENDBRANCH  21  22
BRANCH  21  25
HETATM   25  C12 UNL     1      24.418   0.604  52.543  1.00  0.00    -0.034 A 
HETATM   26  C13 UNL     1      24.752  -0.432  53.382  1.00  0.00     0.009 A 
HETATM   27  C14 UNL     1      26.042  -0.892  53.515  1.00  0.00     0.001 A 
HETATM   28  C15 UNL     1      27.086  -0.337  52.810  1.00  0.00     0.000 A 
HETATM   29  C16 UNL     1      26.801   0.702  51.958  1.00  0.00     0.001 A 
HETATM   30  C17 UNL     1      25.488   1.159  51.832  1.00  0.00     0.009 A 
ENDBRANCH  21  25
ENDBRANCH  19  21
ENDBRANCH  13  19
ENDBRANCH   3   4
TORSDOF 6
ENDMDL
MODEL 6
REMARK VINA RESULT:      -7.0      2.379      3.245
REMARK  6 active torsions:
REMARK  status: ('A' for Active; 'I' for Inactive)
REMARK    1  A    between atoms: C3_3  and  C4_4 
REMARK       I    between atoms: C4_4  and  N1_6 
REMARK    2  A    between atoms: C9_11  and  N2_12 
REMARK    3  A    between atoms: N2_12  and  C10_13 
REMARK    4  A    between atoms: C10_13  and  C11_14 
REMARK    5  A    between atoms: C10_13  and  C12_16 
REMARK    6  A    between atoms: C11_14  and  O2_15 
ROOT
HETATM    1  C1  UNL     1      17.459   7.097  46.791  1.00  0.00     0.112 C 
HETATM    2  C2  UNL     1      18.510   6.088  46.663  1.00  0.00    -0.101 C 
HETATM    3  C3  UNL     1      19.383   5.261  46.569  1.00  0.00    -0.006 C 
ENDROOT
BRANCH   3   4
HETATM    4  C4  UNL     1      20.419   4.269  46.448  1.00  0.00     0.298 C 
HETATM    5  O1  UNL     1      21.042   4.033  45.371  1.00  0.00    -0.258 OA
HETATM    6  N1  UNL     1      20.813   3.477  47.548  1.00  0.00    -0.336 N 
HETATM    7  C5  UNL     1      21.869   2.522  47.266  1.00  0.00     0.132 C 
HETATM    8  C21 UNL     1      20.240   3.568  48.882  1.00  0.00     0.173 C 
HETATM    9  C6  UNL     1      22.281   1.716  48.452  1.00  0.00     0.059 C 
HETATM   10  C7  UNL     1      21.988   2.309  49.759  1.00  0.00    -0.038 C 
HETATM   11  C8  UNL     1      22.385   1.436  50.750  1.00  0.00     0.058 C 
HETATM   12  C20 UNL     1      21.398   3.565  49.805  1.00  0.00     0.008 C 
HETATM   13  C9  UNL     1      23.453   1.716  51.577  1.00  0.00     0.126 C 
HETATM   14  N3  UNL     1      24.383   2.565  51.105  1.00  0.00    -0.225 NA
HETATM   15  C18 UNL     1      24.280   3.906  51.256  1.00  0.00     0.235 C 
HETATM   16  N4  UNL     1      23.883   5.110  51.760  1.00  0.00    -0.247 NA
HETATM   17  C19 UNL     1      22.561   5.147  52.099  1.00  0.00     0.167 C 
HETATM   18  S1  UNL     1      21.695   5.028  50.645  1.00  0.00    -0.085 SA
BRANCH  13  19
HETATM   19  N2  UNL     1      23.587   1.143  52.872  1.00  0.00    -0.364 N 
HETATM   20  H9  UNL     1      23.460   1.800  53.700  1.00  0.00     0.162 HD
BRANCH  19  21
HETATM   21  C10 UNL     1      23.887  -0.279  53.065  1.00  0.00     0.140 C 
BRANCH  21  22
HETATM   22  C11 UNL     1      23.169  -0.888  54.219  1.00  0.00     0.194 C 
BRANCH  22  23
HETATM   23  O2  UNL     1      22.038  -0.129  54.508  1.00  0.00    -0.399 OA
HETATM   24  H13 UNL     1      21.200  -0.689  54.560  1.00  0.00     0.209 HD
ENDBRANCH  22  23
ENDBRANCH  21  22
BRANCH  21  25
HETATM   25  C12 UNL     1      25.331  -0.418  53.230  1.00  0.00    -0.034 A 
HETATM   26  C13 UNL     1      26.307  -1.185  52.640  1.00  0.00     0.009 A 
HETATM   27  C14 UNL     1      27.634  -1.100  52.997  1.00  0.00     0.001 A 
HETATM   28  C15 UNL     1      28.066  -0.235  53.978  1.00  0.00     0.000 A 
HETATM   29  C16 UNL     1      27.126   0.552  54.596  1.00  0.00     0.001 A 
HETATM   30  C17 UNL     1      25.784   0.456  54.225  1.00  0.00     0.009 A 
ENDBRANCH  21  25
ENDBRANCH  19  21
ENDBRANCH  13  19
ENDBRANCH   3   4
TORSDOF 6
ENDMDL
MODEL 7
REMARK VINA RESULT:      -7.0      3.970      6.028
REMARK  6 active torsions:
REMARK  status: ('A' for Active; 'I' for Inactive)
REMARK    1  A    between atoms: C3_3  and  C4_4 
REMARK       I    between atoms: C4_4  and  N1_6 
REMARK    2  A    between atoms: C9_11  and  N2_12 
REMARK    3  A    between atoms: N2_12  and  C10_13 
REMARK    4  A    between atoms: C10_13  and  C11_14 
REMARK    5  A    between atoms: C10_13  and  C12_16 
REMARK    6  A    between atoms: C11_14  and  O2_15 
ROOT
HETATM    1  C1  UNL     1      24.064  11.007  47.387  1.00  0.00     0.112 C 
HETATM    2  C2  UNL     1      24.882   9.853  47.757  1.00  0.00    -0.101 C 
HETATM    3  C3  UNL     1      25.545   8.893  48.063  1.00  0.00    -0.006 C 
ENDROOT
BRANCH   3   4
HETATM    4  C4  UNL     1      26.347   7.754  48.425  1.00  0.00     0.298 C 
HETATM    5  O1  UNL     1      27.604   7.800  48.577  1.00  0.00    -0.258 OA
HETATM    6  N1  UNL     1      25.769   6.483  48.640  1.00  0.00    -0.336 N 
HETATM    7  C5  UNL     1      26.709   5.438  48.999  1.00  0.00     0.132 C 
HETATM    8  C21 UNL     1      24.349   6.189  48.523  1.00  0.00     0.173 C 
HETATM    9  C6  UNL     1      26.067   4.113  49.242  1.00  0.00     0.059 C 
HETATM   10  C7  UNL     1      24.646   4.148  49.596  1.00  0.00    -0.038 C 
HETATM   11  C8  UNL     1      24.187   2.856  49.747  1.00  0.00     0.058 C 
HETATM   12  C20 UNL     1      24.019   5.381  49.719  1.00  0.00     0.008 C 
HETATM   13  C9  UNL     1      23.825   2.356  50.981  1.00  0.00     0.126 C 
HETATM   14  N3  UNL     1      24.380   2.934  52.061  1.00  0.00    -0.225 NA
HETATM   15  C18 UNL     1      23.837   4.020  52.659  1.00  0.00     0.235 C 
HETATM   16  N4  UNL     1      22.904   4.944  53.028  1.00  0.00    -0.247 NA
HETATM   17  C19 UNL     1      22.060   5.298  52.015  1.00  0.00     0.167 C 
HETATM   18  S1  UNL     1      23.005   6.130  50.878  1.00  0.00    -0.085 SA
BRANCH  13  19
HETATM   19  N2  UNL     1      22.911   1.276  51.129  1.00  0.00    -0.364 N 
HETATM   20  H9  UNL     1      22.517   0.858  50.233  1.00  0.00     0.162 HD
BRANCH  19  21
HETATM   21  C10 UNL     1      22.526   0.759  52.446  1.00  0.00     0.140 C 
BRANCH  21  22
HETATM   22  C11 UNL     1      23.377  -0.367  52.918  1.00  0.00     0.194 C 
BRANCH  22  23
HETATM   23  O2  UNL     1      24.446   0.143  53.653  1.00  0.00    -0.399 OA
HETATM   24  H13 UNL     1      25.167   0.532  53.064  1.00  0.00     0.209 HD
ENDBRANCH  22  23
ENDBRANCH  21  22
BRANCH  21  25
HETATM   25  C12 UNL     1      21.126   0.348  52.378  1.00  0.00    -0.034 A 
HETATM   26  C13 UNL     1      20.257  -0.288  53.232  1.00  0.00     0.009 A 
HETATM   27  C14 UNL     1      18.947  -0.547  52.900  1.00  0.00     0.001 A 
HETATM   28  C15 UNL     1      18.423  -0.182  51.680  1.00  0.00     0.000 A 
HETATM   29  C16 UNL     1      19.254   0.457  50.793  1.00  0.00     0.001 A 
HETATM   30  C17 UNL     1      20.581   0.713  51.142  1.00  0.00     0.009 A 
ENDBRANCH  21  25
ENDBRANCH  19  21
ENDBRANCH  13  19
ENDBRANCH   3   4
TORSDOF 6
ENDMDL
MODEL 8
REMARK VINA RESULT:      -7.0      3.241      4.492
REMARK  6 active torsions:
REMARK  status: ('A' for Active; 'I' for Inactive)
REMARK    1  A    between atoms: C3_3  and  C4_4 
REMARK       I    between atoms: C4_4  and  N1_6 
REMARK    2  A    between atoms: C9_11  and  N2_12 
REMARK    3  A    between atoms: N2_12  and  C10_13 
REMARK    4  A    between atoms: C10_13  and  C11_14 
REMARK    5  A    between atoms: C10_13  and  C12_16 
REMARK    6  A    between atoms: C11_14  and  O2_15 
ROOT
HETATM    1  C1  UNL     1      14.430   3.713  50.977  1.00  0.00     0.112 C 
HETATM    2  C2  UNL     1      15.533   2.753  50.971  1.00  0.00    -0.101 C 
HETATM    3  C3  UNL     1      16.448   1.967  50.955  1.00  0.00    -0.006 C 
ENDROOT
BRANCH   3   4
HETATM    4  C4  UNL     1      17.536   1.026  50.946  1.00  0.00     0.298 C 
HETATM    5  O1  UNL     1      17.418  -0.180  50.577  1.00  0.00    -0.258 OA
HETATM    6  N1  UNL     1      18.835   1.396  51.358  1.00  0.00    -0.336 N 
HETATM    7  C5  UNL     1      19.822   0.334  51.292  1.00  0.00     0.132 C 
HETATM    8  C21 UNL     1      19.210   2.722  51.823  1.00  0.00     0.173 C 
HETATM    9  C6  UNL     1      21.189   0.760  51.711  1.00  0.00     0.059 C 
HETATM   10  C7  UNL     1      21.466   2.195  51.620  1.00  0.00    -0.038 C 
HETATM   11  C8  UNL     1      22.744   2.438  52.078  1.00  0.00     0.058 C 
HETATM   12  C20 UNL     1      20.478   3.036  51.125  1.00  0.00     0.008 C 
HETATM   13  C9  UNL     1      23.754   2.840  51.228  1.00  0.00     0.126 C 
HETATM   14  N3  UNL     1      23.624   2.514  49.930  1.00  0.00    -0.225 NA
HETATM   15  C18 UNL     1      22.959   3.299  49.050  1.00  0.00     0.235 C 
HETATM   16  N4  UNL     1      22.386   4.412  48.508  1.00  0.00    -0.247 NA
HETATM   17  C19 UNL     1      21.736   5.189  49.423  1.00  0.00     0.167 C 
HETATM   18  S1  UNL     1      20.403   4.284  49.954  1.00  0.00    -0.085 SA
BRANCH  13  19
HETATM   19  N2  UNL     1      24.891   3.565  51.681  1.00  0.00    -0.364 N 
HETATM   20  H9  UNL     1      24.704   4.506  52.141  1.00  0.00     0.162 HD
BRANCH  19  21
HETATM   21  C10 UNL     1      26.254   3.048  51.526  1.00  0.00     0.140 C 
BRANCH  21  22
HETATM   22  C11 UNL     1      26.700   2.957  50.108  1.00  0.00     0.194 C 
BRANCH  22  23
HETATM   23  O2  UNL     1      27.303   4.158  49.740  1.00  0.00    -0.399 OA
HETATM   24  H13 UNL     1      26.639   4.834  49.394  1.00  0.00     0.209 HD
ENDBRANCH  22  23
ENDBRANCH  21  22
BRANCH  21  25
HETATM   25  C12 UNL     1      26.315   1.736  52.165  1.00  0.00    -0.034 A 
HETATM   26  C13 UNL     1      26.431   0.442  51.718  1.00  0.00     0.009 A 
HETATM   27  C14 UNL     1      26.475  -0.637  52.572  1.00  0.00     0.001 A 
HETATM   28  C15 UNL     1      26.406  -0.482  53.939  1.00  0.00     0.000 A 
HETATM   29  C16 UNL     1      26.290   0.794  54.432  1.00  0.00     0.001 A 
HETATM   30  C17 UNL     1      26.245   1.879  53.555  1.00  0.00     0.009 A 
ENDBRANCH  21  25
ENDBRANCH  19  21
ENDBRANCH  13  19
ENDBRANCH   3   4
TORSDOF 6
ENDMDL
MODEL 9
REMARK VINA RESULT:      -7.0      6.076     10.273
REMARK  6 active torsions:
REMARK  status: ('A' for Active; 'I' for Inactive)
REMARK    1  A    between atoms: C3_3  and  C4_4 
REMARK       I    between atoms: C4_4  and  N1_6 
REMARK    2  A    between atoms: C9_11  and  N2_12 
REMARK    3  A    between atoms: N2_12  and  C10_13 
REMARK    4  A    between atoms: C10_13  and  C11_14 
REMARK    5  A    between atoms: C10_13  and  C12_16 
REMARK    6  A    between atoms: C11_14  and  O2_15 
ROOT
HETATM    1  C1  UNL     1      24.819  -0.456  53.969  1.00  0.00     0.112 C 
HETATM    2  C2  UNL     1      24.225   0.554  53.093  1.00  0.00    -0.101 C 
HETATM    3  C3  UNL     1      23.725   1.377  52.367  1.00  0.00    -0.006 C 
ENDROOT
BRANCH   3   4
HETATM    4  C4  UNL     1      23.137   2.369  51.505  1.00  0.00     0.298 C 
HETATM    5  O1  UNL     1      23.769   2.956  50.578  1.00  0.00    -0.258 OA
HETATM    6  N1  UNL     1      21.787   2.758  51.643  1.00  0.00    -0.336 N 
HETATM    7  C5  UNL     1      21.343   3.767  50.700  1.00  0.00     0.132 C 
HETATM    8  C21 UNL     1      20.868   2.222  52.636  1.00  0.00     0.173 C 
HETATM    9  C6  UNL     1      19.907   4.141  50.854  1.00  0.00     0.059 C 
HETATM   10  C7  UNL     1      19.055   3.146  51.510  1.00  0.00    -0.038 C 
HETATM   11  C8  UNL     1      17.775   3.648  51.618  1.00  0.00     0.058 C 
HETATM   12  C20 UNL     1      19.618   1.936  51.896  1.00  0.00     0.008 C 
HETATM   13  C9  UNL     1      16.728   3.125  50.887  1.00  0.00     0.126 C 
HETATM   14  N3  UNL     1      17.039   2.493  49.742  1.00  0.00    -0.225 NA
HETATM   15  C18 UNL     1      17.349   1.176  49.704  1.00  0.00     0.235 C 
HETATM   16  N4  UNL     1      17.422  -0.132  50.084  1.00  0.00    -0.247 NA
HETATM   17  C19 UNL     1      17.644  -0.298  51.421  1.00  0.00     0.167 C 
HETATM   18  S1  UNL     1      19.210   0.283  51.719  1.00  0.00    -0.085 SA
BRANCH  13  19
HETATM   19  N2  UNL     1      15.373   3.240  51.305  1.00  0.00    -0.364 N 
HETATM   20  H9  UNL     1      14.860   4.127  51.020  1.00  0.00     0.162 HD
BRANCH  19  21
HETATM   21  C10 UNL     1      14.711   2.193  52.089  1.00  0.00     0.140 C 
BRANCH  21  22
HETATM   22  C11 UNL     1      14.061   1.144  51.255  1.00  0.00     0.194 C 
BRANCH  22  23
HETATM   23  O2  UNL     1      13.756   1.677  50.004  1.00  0.00    -0.399 OA
HETATM   24  H13 UNL     1      14.535   2.172  49.595  1.00  0.00     0.209 HD
ENDBRANCH  22  23
ENDBRANCH  21  22
BRANCH  21  25
HETATM   25  C12 UNL     1      13.729   2.834  52.959  1.00  0.00    -0.034 A 
HETATM   26  C13 UNL     1      13.377   4.133  53.236  1.00  0.00     0.009 A 
HETATM   27  C14 UNL     1      12.374   4.457  54.121  1.00  0.00     0.001 A 
HETATM   28  C15 UNL     1      11.657   3.490  54.790  1.00  0.00     0.000 A 
HETATM   29  C16 UNL     1      11.973   2.177  54.546  1.00  0.00     0.001 A 
HETATM   30  C17 UNL     1      12.992   1.861  53.646  1.00  0.00     0.009 A 
ENDBRANCH  21  25
ENDBRANCH  19  21
ENDBRANCH  13  19
ENDBRANCH   3   4
TORSDOF 6
ENDMDL
