MODEL 1
REMARK VINA RESULT:      -8.0      0.000      0.000
REMARK  4 active torsions:
REMARK  status: ('A' for Active; 'I' for Inactive)
REMARK    1  A    between atoms: C5_5  and  N1_6 
REMARK    2  A    between atoms: N1_6  and  C6_7 
REMARK    3  A    between atoms: C6_7  and  C7_8 
REMARK    4  A    between atoms: C11_15  and  C12_16 
ROOT
HETATM    1  C1  UNL     1      25.234  -0.983  55.438  1.00  0.00     0.020 C 
HETATM    2  C2  UNL     1      24.591  -0.383  54.246  1.00  0.00     0.007 C 
HETATM    3  C3  UNL     1      23.338  -0.743  54.460  1.00  0.00     0.031 C 
HETATM    4  C4  UNL     1      21.959  -0.738  54.033  1.00  0.00     0.009 C 
HETATM    5  C5  UNL     1      20.860  -0.496  53.300  1.00  0.00     0.025 C 
HETATM    6  C8  UNL     1      20.784   0.256  52.059  1.00  0.00     0.046 C 
HETATM    7  C9  UNL     1      21.589   0.911  51.249  1.00  0.00     0.092 C 
HETATM    8  N2  UNL     1      22.977   1.211  51.196  1.00  0.00    -0.345 N 
HETATM    9  C10 UNL     1      24.192   1.379  51.948  1.00  0.00     0.162 C 
HETATM   10  N3  UNL     1      25.144   0.547  52.049  1.00  0.00    -0.249 NA
HETATM   11  C11 UNL     1      25.614   0.314  53.385  1.00  0.00     0.102 C 
HETATM   12  C17 UNL     1      25.919   1.642  54.010  1.00  0.00     0.121 C 
HETATM   13  S1  UNL     1      24.822   2.702  52.972  1.00  0.00    -0.089 SA
HETATM   14  H12 UNL     1      23.485   1.421  50.313  1.00  0.00     0.167 HD
ENDROOT
BRANCH  11  15
HETATM   15  C12 UNL     1      26.807  -0.550  53.260  1.00  0.00    -0.009 A 
HETATM   16  C13 UNL     1      27.055  -1.806  52.771  1.00  0.00     0.012 A 
HETATM   17  C14 UNL     1      28.327  -2.332  52.816  1.00  0.00     0.020 A 
HETATM   18  C15 UNL     1      29.373  -1.611  53.351  1.00  0.00     0.116 A 
HETATM   19  N4  UNL     1      29.172  -0.373  53.842  1.00  0.00    -0.272 NA
HETATM   20  C16 UNL     1      27.919   0.130  53.791  1.00  0.00     0.126 A 
ENDBRANCH  11  15
BRANCH   5  21
HETATM   21  N1  UNL     1      19.701  -1.058  53.873  1.00  0.00    -0.387 N 
HETATM   22  H6  UNL     1      19.780  -1.540  54.799  1.00  0.00     0.159 HD
BRANCH  21  23
HETATM   23  C6  UNL     1      18.560  -0.855  53.033  1.00  0.00     0.156 C 
BRANCH  23  24
HETATM   24  C7  UNL     1      17.587  -1.944  53.356  1.00  0.00     0.410 C 
HETATM   25  O1  UNL     1      17.589  -3.103  53.738  1.00  0.00    -0.428 OA
ENDBRANCH  23  24
ENDBRANCH  21  23
ENDBRANCH   5  21
TORSDOF 4
ENDMDL
MODEL 2
REMARK VINA RESULT:      -7.2      4.133      7.610
REMARK  4 active torsions:
REMARK  status: ('A' for Active; 'I' for Inactive)
REMARK    1  A    between atoms: C5_5  and  N1_6 
REMARK    2  A    between atoms: N1_6  and  C6_7 
REMARK    3  A    between atoms: C6_7  and  C7_8 
REMARK    4  A    between atoms: C11_15  and  C12_16 
ROOT
HETATM    1  C1  UNL     1      25.877   4.258  49.223  1.00  0.00     0.020 C 
HETATM    2  C2  UNL     1      25.168   3.480  50.266  1.00  0.00     0.007 C 
HETATM    3  C3  UNL     1      26.157   2.710  50.683  1.00  0.00     0.031 C 
HETATM    4  C4  UNL     1      26.626   1.668  51.566  1.00  0.00     0.009 C 
HETATM    5  C5  UNL     1      26.632   0.722  52.520  1.00  0.00     0.025 C 
HETATM    6  C8  UNL     1      25.517   0.317  53.358  1.00  0.00     0.046 C 
HETATM    7  C9  UNL     1      24.248   0.625  53.532  1.00  0.00     0.092 C 
HETATM    8  N2  UNL     1      23.322   1.540  52.962  1.00  0.00    -0.345 N 
HETATM    9  C10 UNL     1      23.149   2.784  52.262  1.00  0.00     0.162 C 
HETATM   10  N3  UNL     1      22.906   2.933  51.027  1.00  0.00    -0.249 NA
HETATM   11  C11 UNL     1      23.724   3.902  50.354  1.00  0.00     0.102 C 
HETATM   12  C17 UNL     1      23.661   5.184  51.130  1.00  0.00     0.121 C 
HETATM   13  S1  UNL     1      23.207   4.495  52.780  1.00  0.00    -0.089 SA
HETATM   14  H12 UNL     1      22.292   1.392  52.971  1.00  0.00     0.167 HD
ENDROOT
BRANCH  11  15
HETATM   15  C12 UNL     1      23.175   4.030  48.987  1.00  0.00    -0.009 A 
HETATM   16  C13 UNL     1      22.936   5.067  48.125  1.00  0.00     0.012 A 
HETATM   17  C14 UNL     1      22.389   4.829  46.883  1.00  0.00     0.020 A 
HETATM   18  C15 UNL     1      22.074   3.548  46.482  1.00  0.00     0.116 A 
HETATM   19  N4  UNL     1      22.294   2.501  47.299  1.00  0.00    -0.272 NA
HETATM   20  C16 UNL     1      22.830   2.749  48.514  1.00  0.00     0.126 A 
ENDBRANCH  11  15
BRANCH   5  21
HETATM   21  N1  UNL     1      27.897   0.118  52.664  1.00  0.00    -0.387 N 
HETATM   22  H6  UNL     1      28.405  -0.201  51.805  1.00  0.00     0.159 HD
BRANCH  21  23
HETATM   23  C6  UNL     1      28.280   0.046  54.041  1.00  0.00     0.156 C 
BRANCH  23  24
HETATM   24  C7  UNL     1      29.127   1.248  54.318  1.00  0.00     0.410 C 
HETATM   25  O1  UNL     1      29.036   2.465  54.311  1.00  0.00    -0.428 OA
ENDBRANCH  23  24
ENDBRANCH  21  23
ENDBRANCH   5  21
TORSDOF 4
ENDMDL
MODEL 3
REMARK VINA RESULT:      -7.1      3.618      7.441
REMARK  4 active torsions:
REMARK  status: ('A' for Active; 'I' for Inactive)
REMARK    1  A    between atoms: C5_5  and  N1_6 
REMARK    2  A    between atoms: N1_6  and  C6_7 
REMARK    3  A    between atoms: C6_7  and  C7_8 
REMARK    4  A    between atoms: C11_15  and  C12_16 
ROOT
HETATM    1  C1  UNL     1      22.174   4.131  51.890  1.00  0.00     0.020 C 
HETATM    2  C2  UNL     1      22.634   2.769  52.246  1.00  0.00     0.007 C 
HETATM    3  C3  UNL     1      23.837   3.052  52.714  1.00  0.00     0.031 C 
HETATM    4  C4  UNL     1      25.080   2.596  53.289  1.00  0.00     0.009 C 
HETATM    5  C5  UNL     1      26.022   1.777  53.783  1.00  0.00     0.025 C 
HETATM    6  C8  UNL     1      25.936   0.335  53.937  1.00  0.00     0.046 C 
HETATM    7  C9  UNL     1      25.072  -0.634  53.711  1.00  0.00     0.092 C 
HETATM    8  N2  UNL     1      23.756  -0.739  53.186  1.00  0.00    -0.345 N 
HETATM    9  C10 UNL     1      22.507  -0.065  52.949  1.00  0.00     0.162 C 
HETATM   10  N3  UNL     1      22.098   0.413  51.848  1.00  0.00    -0.249 NA
HETATM   11  C11 UNL     1      21.575   1.748  51.917  1.00  0.00     0.102 C 
HETATM   12  C17 UNL     1      20.540   1.787  53.002  1.00  0.00     0.121 C 
HETATM   13  S1  UNL     1      21.127   0.356  54.007  1.00  0.00    -0.089 SA
HETATM   14  H12 UNL     1      23.380  -1.605  52.750  1.00  0.00     0.167 HD
ENDROOT
BRANCH  11  15
HETATM   15  C12 UNL     1      21.019   2.044  50.580  1.00  0.00    -0.009 A 
HETATM   16  C13 UNL     1      19.823   2.513  50.103  1.00  0.00     0.012 A 
HETATM   17  C14 UNL     1      19.627   2.670  48.749  1.00  0.00     0.020 A 
HETATM   18  C15 UNL     1      20.625   2.363  47.849  1.00  0.00     0.116 A 
HETATM   19  N4  UNL     1      21.815   1.901  48.275  1.00  0.00    -0.272 NA
HETATM   20  C16 UNL     1      21.993   1.751  49.607  1.00  0.00     0.126 A 
ENDBRANCH  11  15
BRANCH   5  21
HETATM   21  N1  UNL     1      27.182   2.474  54.180  1.00  0.00    -0.387 N 
HETATM   22  H6  UNL     1      27.146   3.059  55.047  1.00  0.00     0.159 HD
BRANCH  21  23
HETATM   23  C6  UNL     1      28.261   2.241  53.269  1.00  0.00     0.156 C 
BRANCH  23  24
HETATM   24  C7  UNL     1      29.233   1.347  53.971  1.00  0.00     0.410 C 
HETATM   25  O1  UNL     1      29.832   0.301  53.781  1.00  0.00    -0.428 OA
ENDBRANCH  23  24
ENDBRANCH  21  23
ENDBRANCH   5  21
TORSDOF 4
ENDMDL
MODEL 4
REMARK VINA RESULT:      -7.0      1.454      1.817
REMARK  4 active torsions:
REMARK  status: ('A' for Active; 'I' for Inactive)
REMARK    1  A    between atoms: C5_5  and  N1_6 
REMARK    2  A    between atoms: N1_6  and  C6_7 
REMARK    3  A    between atoms: C6_7  and  C7_8 
REMARK    4  A    between atoms: C11_15  and  C12_16 
ROOT
HETATM    1  C1  UNL     1      23.750  -0.319  54.273  1.00  0.00     0.020 C 
HETATM    2  C2  UNL     1      23.524   0.440  53.021  1.00  0.00     0.007 C 
HETATM    3  C3  UNL     1      22.280   0.079  52.760  1.00  0.00     0.031 C 
HETATM    4  C4  UNL     1      21.121   0.165  51.904  1.00  0.00     0.009 C 
HETATM    5  C5  UNL     1      20.321   0.519  50.885  1.00  0.00     0.025 C 
HETATM    6  C8  UNL     1      20.642   1.424  49.794  1.00  0.00     0.046 C 
HETATM    7  C9  UNL     1      21.654   2.162  49.387  1.00  0.00     0.092 C 
HETATM    8  N2  UNL     1      22.973   2.440  49.836  1.00  0.00    -0.345 N 
HETATM    9  C10 UNL     1      23.866   2.488  50.963  1.00  0.00     0.162 C 
HETATM   10  N3  UNL     1      24.750   1.632  51.268  1.00  0.00    -0.249 NA
HETATM   11  C11 UNL     1      24.756   1.221  52.644  1.00  0.00     0.102 C 
HETATM   12  C17 UNL     1      24.804   2.454  53.497  1.00  0.00     0.121 C 
HETATM   13  S1  UNL     1      24.087   3.658  52.297  1.00  0.00    -0.089 SA
HETATM   14  H12 UNL     1      23.739   2.751  49.205  1.00  0.00     0.167 HD
ENDROOT
BRANCH  11  15
HETATM   15  C12 UNL     1      25.944   0.358  52.813  1.00  0.00    -0.009 A 
HETATM   16  C13 UNL     1      26.296  -0.906  52.419  1.00  0.00     0.012 A 
HETATM   17  C14 UNL     1      27.523  -1.428  52.766  1.00  0.00     0.020 A 
HETATM   18  C15 UNL     1      28.419  -0.693  53.513  1.00  0.00     0.116 A 
HETATM   19  N4  UNL     1      28.113   0.553  53.920  1.00  0.00    -0.272 NA
HETATM   20  C16 UNL     1      26.906   1.052  53.573  1.00  0.00     0.126 A 
ENDBRANCH  11  15
BRANCH   5  21
HETATM   21  N1  UNL     1      19.052  -0.090  50.965  1.00  0.00    -0.387 N 
HETATM   22  H6  UNL     1      18.735  -0.701  50.175  1.00  0.00     0.159 HD
BRANCH  21  23
HETATM   23  C6  UNL     1      18.389   0.259  52.184  1.00  0.00     0.156 C 
BRANCH  23  24
HETATM   24  C7  UNL     1      17.747  -0.990  52.699  1.00  0.00     0.410 C 
HETATM   25  O1  UNL     1      17.931  -1.840  53.555  1.00  0.00    -0.428 OA
ENDBRANCH  23  24
ENDBRANCH  21  23
ENDBRANCH   5  21
TORSDOF 4
ENDMDL
MODEL 5
REMARK VINA RESULT:      -6.8      5.559      7.814
REMARK  4 active torsions:
REMARK  status: ('A' for Active; 'I' for Inactive)
REMARK    1  A    between atoms: C5_5  and  N1_6 
REMARK    2  A    between atoms: N1_6  and  C6_7 
REMARK    3  A    between atoms: C6_7  and  C7_8 
REMARK    4  A    between atoms: C11_15  and  C12_16 
ROOT
HETATM    1  C1  UNL     1      26.399   2.157  50.303  1.00  0.00     0.020 C 
HETATM    2  C2  UNL     1      25.484   3.258  50.686  1.00  0.00     0.007 C 
HETATM    3  C3  UNL     1      25.979   4.231  49.941  1.00  0.00     0.031 C 
HETATM    4  C4  UNL     1      25.927   5.608  49.510  1.00  0.00     0.009 C 
HETATM    5  C5  UNL     1      25.531   6.886  49.397  1.00  0.00     0.025 C 
HETATM    6  C8  UNL     1      24.419   7.522  50.082  1.00  0.00     0.046 C 
HETATM    7  C9  UNL     1      23.480   7.205  50.949  1.00  0.00     0.092 C 
HETATM    8  N2  UNL     1      23.086   6.040  51.662  1.00  0.00    -0.345 N 
HETATM    9  C10 UNL     1      23.094   4.603  51.697  1.00  0.00     0.162 C 
HETATM   10  N3  UNL     1      23.846   3.864  52.402  1.00  0.00    -0.249 NA
HETATM   11  C11 UNL     1      24.475   2.782  51.699  1.00  0.00     0.102 C 
HETATM   12  C17 UNL     1      23.409   2.019  50.969  1.00  0.00     0.121 C 
HETATM   13  S1  UNL     1      22.143   3.355  50.839  1.00  0.00    -0.089 SA
HETATM   14  H12 UNL     1      22.563   6.068  52.560  1.00  0.00     0.167 HD
ENDROOT
BRANCH  11  15
HETATM   15  C12 UNL     1      25.166   1.969  52.722  1.00  0.00    -0.009 A 
HETATM   16  C13 UNL     1      26.248   2.149  53.544  1.00  0.00     0.012 A 
HETATM   17  C14 UNL     1      26.643   1.148  54.404  1.00  0.00     0.020 A 
HETATM   18  C15 UNL     1      25.961  -0.049  54.458  1.00  0.00     0.116 A 
HETATM   19  N4  UNL     1      24.893  -0.266  53.668  1.00  0.00    -0.272 NA
HETATM   20  C16 UNL     1      24.517   0.724  52.829  1.00  0.00     0.126 A 
ENDBRANCH  11  15
BRANCH   5  21
HETATM   21  N1  UNL     1      26.328   7.613  48.490  1.00  0.00    -0.387 N 
HETATM   22  H6  UNL     1      25.894   7.960  47.602  1.00  0.00     0.159 HD
BRANCH  21  23
HETATM   23  C6  UNL     1      27.667   7.753  48.976  1.00  0.00     0.156 C 
BRANCH  23  24
HETATM   24  C7  UNL     1      27.760   9.109  49.602  1.00  0.00     0.410 C 
HETATM   25  O1  UNL     1      27.272   9.736  50.529  1.00  0.00    -0.428 OA
ENDBRANCH  23  24
ENDBRANCH  21  23
ENDBRANCH   5  21
TORSDOF 4
ENDMDL
MODEL 6
REMARK VINA RESULT:      -6.8      4.122      5.621
REMARK  4 active torsions:
REMARK  status: ('A' for Active; 'I' for Inactive)
REMARK    1  A    between atoms: C5_5  and  N1_6 
REMARK    2  A    between atoms: N1_6  and  C6_7 
REMARK    3  A    between atoms: C6_7  and  C7_8 
REMARK    4  A    between atoms: C11_15  and  C12_16 
ROOT
HETATM    1  C1  UNL     1      23.834   5.303  51.682  1.00  0.00     0.020 C 
HETATM    2  C2  UNL     1      23.237   4.154  50.963  1.00  0.00     0.007 C 
HETATM    3  C3  UNL     1      22.790   3.453  51.990  1.00  0.00     0.031 C 
HETATM    4  C4  UNL     1      22.109   2.281  52.486  1.00  0.00     0.009 C 
HETATM    5  C5  UNL     1      21.454   1.108  52.504  1.00  0.00     0.025 C 
HETATM    6  C8  UNL     1      21.059   0.309  51.357  1.00  0.00     0.046 C 
HETATM    7  C9  UNL     1      21.142   0.355  50.044  1.00  0.00     0.092 C 
HETATM    8  N2  UNL     1      21.679   1.246  49.076  1.00  0.00    -0.345 N 
HETATM    9  C10 UNL     1      22.064   2.600  48.782  1.00  0.00     0.162 C 
HETATM   10  N3  UNL     1      23.242   3.070  48.767  1.00  0.00    -0.249 NA
HETATM   11  C11 UNL     1      23.417   4.307  49.474  1.00  0.00     0.102 C 
HETATM   12  C17 UNL     1      22.386   5.276  48.979  1.00  0.00     0.121 C 
HETATM   13  S1  UNL     1      21.135   4.070  48.362  1.00  0.00    -0.089 SA
HETATM   14  H12 UNL     1      21.971   0.948  48.123  1.00  0.00     0.167 HD
ENDROOT
BRANCH  11  15
HETATM   15  C12 UNL     1      24.801   4.748  49.199  1.00  0.00    -0.009 A 
HETATM   16  C13 UNL     1      25.389   5.915  48.786  1.00  0.00     0.012 A 
HETATM   17  C14 UNL     1      26.754   5.984  48.617  1.00  0.00     0.020 A 
HETATM   18  C15 UNL     1      27.555   4.889  48.860  1.00  0.00     0.116 A 
HETATM   19  N4  UNL     1      27.017   3.724  49.268  1.00  0.00    -0.272 NA
HETATM   20  C16 UNL     1      25.677   3.670  49.429  1.00  0.00     0.126 A 
ENDBRANCH  11  15
BRANCH   5  21
HETATM   21  N1  UNL     1      21.149   0.687  53.814  1.00  0.00    -0.387 N 
HETATM   22  H6  UNL     1      20.985   1.413  54.551  1.00  0.00     0.159 HD
BRANCH  21  23
HETATM   23  C6  UNL     1      21.118  -0.741  53.903  1.00  0.00     0.156 C 
BRANCH  23  24
HETATM   24  C7  UNL     1      22.351  -1.155  54.643  1.00  0.00     0.410 C 
HETATM   25  O1  UNL     1      22.663  -1.764  55.652  1.00  0.00    -0.428 OA
ENDBRANCH  23  24
ENDBRANCH  21  23
ENDBRANCH   5  21
TORSDOF 4
ENDMDL
MODEL 7
REMARK VINA RESULT:      -6.8     11.929     13.556
REMARK  4 active torsions:
REMARK  status: ('A' for Active; 'I' for Inactive)
REMARK    1  A    between atoms: C5_5  and  N1_6 
REMARK    2  A    between atoms: N1_6  and  C6_7 
REMARK    3  A    between atoms: C6_7  and  C7_8 
REMARK    4  A    between atoms: C11_15  and  C12_16 
ROOT
HETATM    1  C1  UNL     1      31.900   5.892  49.883  1.00  0.00     0.020 C 
HETATM    2  C2  UNL     1      32.355   6.946  48.947  1.00  0.00     0.007 C 
HETATM    3  C3  UNL     1      31.561   7.935  49.317  1.00  0.00     0.031 C 
HETATM    4  C4  UNL     1      31.128   9.302  49.151  1.00  0.00     0.009 C 
HETATM    5  C5  UNL     1      31.044  10.556  48.679  1.00  0.00     0.025 C 
HETATM    6  C8  UNL     1      31.843  11.149  47.620  1.00  0.00     0.046 C 
HETATM    7  C9  UNL     1      32.816  10.801  46.803  1.00  0.00     0.092 C 
HETATM    8  N2  UNL     1      33.585   9.632  46.556  1.00  0.00    -0.345 N 
HETATM    9  C10 UNL     1      34.089   8.398  47.095  1.00  0.00     0.162 C 
HETATM   10  N3  UNL     1      33.636   7.233  46.879  1.00  0.00    -0.249 NA
HETATM   11  C11 UNL     1      33.448   6.423  48.050  1.00  0.00     0.102 C 
HETATM   12  C17 UNL     1      34.729   6.426  48.829  1.00  0.00     0.121 C 
HETATM   13  S1  UNL     1      35.439   8.010  48.203  1.00  0.00    -0.089 SA
HETATM   14  H12 UNL     1      34.047   9.433  45.645  1.00  0.00     0.167 HD
ENDROOT
BRANCH  11  15
HETATM   15  C12 UNL     1      33.072   5.078  47.566  1.00  0.00    -0.009 A 
HETATM   16  C13 UNL     1      31.971   4.531  46.960  1.00  0.00     0.012 A 
HETATM   17  C14 UNL     1      31.946   3.192  46.639  1.00  0.00     0.020 A 
HETATM   18  C15 UNL     1      33.022   2.377  46.918  1.00  0.00     0.116 A 
HETATM   19  N4  UNL     1      34.124   2.874  47.512  1.00  0.00    -0.272 NA
HETATM   20  C16 UNL     1      34.134   4.189  47.822  1.00  0.00     0.126 A 
ENDBRANCH  11  15
BRANCH   5  21
HETATM   21  N1  UNL     1      30.058  11.313  49.345  1.00  0.00    -0.387 N 
HETATM   22  H6  UNL     1      29.468  10.843  50.072  1.00  0.00     0.159 HD
BRANCH  21  23
HETATM   23  C6  UNL     1      30.042  12.665  48.877  1.00  0.00     0.156 C 
BRANCH  23  24
HETATM   24  C7  UNL     1      28.606  13.042  48.694  1.00  0.00     0.410 C 
HETATM   25  O1  UNL     1      27.666  13.453  49.355  1.00  0.00    -0.428 OA
ENDBRANCH  23  24
ENDBRANCH  21  23
ENDBRANCH   5  21
TORSDOF 4
ENDMDL
MODEL 8
REMARK VINA RESULT:      -6.4      6.552      9.410
REMARK  4 active torsions:
REMARK  status: ('A' for Active; 'I' for Inactive)
REMARK    1  A    between atoms: C5_5  and  N1_6 
REMARK    2  A    between atoms: N1_6  and  C6_7 
REMARK    3  A    between atoms: C6_7  and  C7_8 
REMARK    4  A    between atoms: C11_15  and  C12_16 
ROOT
HETATM    1  C1  UNL     1      24.786   3.255  49.072  1.00  0.00     0.020 C 
HETATM    2  C2  UNL     1      24.951   4.640  49.570  1.00  0.00     0.007 C 
HETATM    3  C3  UNL     1      26.049   4.984  48.919  1.00  0.00     0.031 C 
HETATM    4  C4  UNL     1      27.053   5.978  48.627  1.00  0.00     0.009 C 
HETATM    5  C5  UNL     1      27.733   7.137  48.644  1.00  0.00     0.025 C 
HETATM    6  C8  UNL     1      27.404   8.333  49.400  1.00  0.00     0.046 C 
HETATM    7  C9  UNL     1      26.480   8.748  50.242  1.00  0.00     0.092 C 
HETATM    8  N2  UNL     1      25.312   8.204  50.840  1.00  0.00    -0.345 N 
HETATM    9  C10 UNL     1      24.259   7.230  50.734  1.00  0.00     0.162 C 
HETATM   10  N3  UNL     1      24.178   6.128  51.355  1.00  0.00    -0.249 NA
HETATM   11  C11 UNL     1      23.854   4.990  50.542  1.00  0.00     0.102 C 
HETATM   12  C17 UNL     1      22.621   5.318  49.752  1.00  0.00     0.121 C 
HETATM   13  S1  UNL     1      22.756   7.158  49.767  1.00  0.00    -0.089 SA
HETATM   14  H12 UNL     1      24.920   8.542  51.742  1.00  0.00     0.167 HD
ENDROOT
BRANCH  11  15
HETATM   15  C12 UNL     1      23.656   3.858  51.473  1.00  0.00    -0.009 A 
HETATM   16  C13 UNL     1      24.457   3.147  52.328  1.00  0.00     0.012 A 
HETATM   17  C14 UNL     1      23.935   2.111  53.070  1.00  0.00     0.020 A 
HETATM   18  C15 UNL     1      22.604   1.769  52.971  1.00  0.00     0.116 A 
HETATM   19  N4  UNL     1      21.782   2.442  52.143  1.00  0.00    -0.272 NA
HETATM   20  C16 UNL     1      22.308   3.456  51.420  1.00  0.00     0.126 A 
ENDBRANCH  11  15
BRANCH   5  21
HETATM   21  N1  UNL     1      28.865   7.104  47.805  1.00  0.00    -0.387 N 
HETATM   22  H6  UNL     1      29.070   7.936  47.202  1.00  0.00     0.159 HD
BRANCH  21  23
HETATM   23  C6  UNL     1      29.570   5.866  47.937  1.00  0.00     0.156 C 
BRANCH  23  24
HETATM   24  C7  UNL     1      30.718   6.119  48.862  1.00  0.00     0.410 C 
HETATM   25  O1  UNL     1      31.517   5.491  49.537  1.00  0.00    -0.428 OA
ENDBRANCH  23  24
ENDBRANCH  21  23
ENDBRANCH   5  21
TORSDOF 4
ENDMDL
MODEL 9
REMARK VINA RESULT:      -6.3      5.375      7.829
REMARK  4 active torsions:
REMARK  status: ('A' for Active; 'I' for Inactive)
REMARK    1  A    between atoms: C5_5  and  N1_6 
REMARK    2  A    between atoms: N1_6  and  C6_7 
REMARK    3  A    between atoms: C6_7  and  C7_8 
REMARK    4  A    between atoms: C11_15  and  C12_16 
ROOT
HETATM    1  C1  UNL     1      21.563   0.552  49.935  1.00  0.00     0.020 C 
HETATM    2  C2  UNL     1      21.756   1.889  50.545  1.00  0.00     0.007 C 
HETATM    3  C3  UNL     1      22.869   2.257  49.934  1.00  0.00     0.031 C 
HETATM    4  C4  UNL     1      23.899   3.246  49.732  1.00  0.00     0.009 C 
HETATM    5  C5  UNL     1      24.606   4.382  49.848  1.00  0.00     0.025 C 
HETATM    6  C8  UNL     1      24.298   5.522  50.695  1.00  0.00     0.046 C 
HETATM    7  C9  UNL     1      23.375   5.891  51.559  1.00  0.00     0.092 C 
HETATM    8  N2  UNL     1      22.187   5.330  52.101  1.00  0.00    -0.345 N 
HETATM    9  C10 UNL     1      21.112   4.394  51.907  1.00  0.00     0.162 C 
HETATM   10  N3  UNL     1      20.998   3.247  52.436  1.00  0.00    -0.249 NA
HETATM   11  C11 UNL     1      20.656   2.186  51.532  1.00  0.00     0.102 C 
HETATM   12  C17 UNL     1      19.441   2.607  50.760  1.00  0.00     0.121 C 
HETATM   13  S1  UNL     1      19.619   4.436  50.923  1.00  0.00    -0.089 SA
HETATM   14  H12 UNL     1      21.793   5.604  53.024  1.00  0.00     0.167 HD
ENDROOT
BRANCH  11  15
HETATM   15  C12 UNL     1      20.422   0.989  52.367  1.00  0.00    -0.009 A 
HETATM   16  C13 UNL     1      19.412   0.071  52.495  1.00  0.00     0.012 A 
HETATM   17  C14 UNL     1      19.515  -0.954  53.409  1.00  0.00     0.020 A 
HETATM   18  C15 UNL     1      20.630  -1.078  54.211  1.00  0.00     0.116 A 
HETATM   19  N4  UNL     1      21.644  -0.198  54.117  1.00  0.00    -0.272 NA
HETATM   20  C16 UNL     1      21.529   0.803  53.216  1.00  0.00     0.126 A 
ENDBRANCH  11  15
BRANCH   5  21
HETATM   21  N1  UNL     1      25.746   4.390  49.019  1.00  0.00    -0.387 N 
HETATM   22  H6  UNL     1      26.022   3.504  48.533  1.00  0.00     0.159 HD
BRANCH  21  23
HETATM   23  C6  UNL     1      26.356   5.684  48.992  1.00  0.00     0.156 C 
BRANCH  23  24
HETATM   24  C7  UNL     1      27.729   5.503  48.426  1.00  0.00     0.410 C 
HETATM   25  O1  UNL     1      28.755   4.888  48.666  1.00  0.00    -0.428 OA
ENDBRANCH  23  24
ENDBRANCH  21  23
ENDBRANCH   5  21
TORSDOF 4
ENDMDL
