MODEL 1
REMARK VINA RESULT:      -8.0      0.000      0.000
REMARK  7 active torsions:
REMARK  status: ('A' for Active; 'I' for Inactive)
REMARK    1  A    between atoms: C3_3  and  N1_4 
REMARK    2  A    between atoms: C3_3  and  C4_5 
REMARK    3  A    between atoms: C5_6  and  C6_7 
REMARK    4  A    between atoms: C6_7  and  O1_8 
REMARK    5  A    between atoms: O1_8  and  C7_9 
REMARK    6  A    between atoms: C9_11  and  N2_12 
REMARK    7  A    between atoms: N2_12  and  C10_13 
ROOT
HETATM    1  C7  UNL     1      27.777   2.098  52.750  1.00  0.00     0.169 A 
HETATM    2  C8  UNL     1      26.953   1.022  53.098  1.00  0.00     0.108 A 
HETATM    3  C9  UNL     1      27.305   0.279  54.232  1.00  0.00     0.133 A 
HETATM    4  N3  UNL     1      28.394   0.609  54.932  1.00  0.00    -0.224 NA
HETATM    5  C15 UNL     1      29.169   1.656  54.564  1.00  0.00     0.238 A 
HETATM    6  N4  UNL     1      28.864   2.394  53.484  1.00  0.00    -0.218 NA
ENDROOT
BRANCH   1   7
HETATM    7  O1  UNL     1      27.377   2.787  51.634  1.00  0.00    -0.331 OA
BRANCH   7   8
HETATM    8  C6  UNL     1      26.408   2.409  50.704  1.00  0.00     0.205 C 
BRANCH   8   9
HETATM    9  C5  UNL     1      25.463   3.563  50.470  1.00  0.00     0.002 C 
HETATM   10  C4  UNL     1      25.549   4.661  49.744  1.00  0.00     0.026 C 
BRANCH  10  11
HETATM   11  C3  UNL     1      26.794   4.743  49.059  1.00  0.00     0.021 C 
HETATM   12  C2  UNL     1      27.924   4.905  48.465  1.00  0.00    -0.002 C 
HETATM   13  C1  UNL     1      28.818   6.071  48.316  1.00  0.00     0.038 C 
BRANCH  11  14
HETATM   14  N1  UNL     1      27.096   6.148  49.321  1.00  0.00    -0.399 N 
HETATM   15  H5  UNL     1      27.329   7.165  49.378  1.00  0.00     0.156 HD
HETATM   16  H6  UNL     1      27.316   7.161  49.490  1.00  0.00     0.156 HD
ENDBRANCH  11  14
ENDBRANCH  10  11
ENDBRANCH   8   9
ENDBRANCH   7   8
ENDBRANCH   1   7
BRANCH   3  17
HETATM   17  N2  UNL     1      26.452  -0.819  54.577  1.00  0.00    -0.340 N 
HETATM   18  H12 UNL     1      26.714  -1.704  55.051  1.00  0.00     0.167 HD
BRANCH  17  19
HETATM   19  C10 UNL     1      25.097  -0.611  54.200  1.00  0.00     0.050 A 
HETATM   20  C11 UNL     1      24.235  -1.049  55.101  1.00  0.00     0.047 A 
HETATM   21  C12 UNL     1      22.984  -0.959  54.725  1.00  0.00     0.151 A 
HETATM   22  F1  UNL     1      21.729  -1.279  55.115  1.00  0.00    -0.203 F 
HETATM   23  C13 UNL     1      23.009  -0.265  53.429  1.00  0.00     0.075 A 
HETATM   24 CL1  UNL     1      21.897   0.354  52.208  1.00  0.00    -0.081 Cl
HETATM   25  C14 UNL     1      24.289  -0.046  53.097  1.00  0.00     0.057 A 
ENDBRANCH  17  19
ENDBRANCH   3  17
TORSDOF 7
ENDMDL
MODEL 2
REMARK VINA RESULT:      -7.9      3.455      6.230
REMARK  7 active torsions:
REMARK  status: ('A' for Active; 'I' for Inactive)
REMARK    1  A    between atoms: C3_3  and  N1_4 
REMARK    2  A    between atoms: C3_3  and  C4_5 
REMARK    3  A    between atoms: C5_6  and  C6_7 
REMARK    4  A    between atoms: C6_7  and  O1_8 
REMARK    5  A    between atoms: O1_8  and  C7_9 
REMARK    6  A    between atoms: C9_11  and  N2_12 
REMARK    7  A    between atoms: N2_12  and  C10_13 
ROOT
HETATM    1  C7  UNL     1      24.340   3.028  51.373  1.00  0.00     0.169 A 
HETATM    2  C8  UNL     1      24.902   2.584  52.575  1.00  0.00     0.108 A 
HETATM    3  C9  UNL     1      26.286   2.372  52.601  1.00  0.00     0.133 A 
HETATM    4  N3  UNL     1      27.014   2.592  51.503  1.00  0.00    -0.224 NA
HETATM    5  C15 UNL     1      26.435   3.021  50.356  1.00  0.00     0.238 A 
HETATM    6  N4  UNL     1      25.110   3.236  50.291  1.00  0.00    -0.218 NA
ENDROOT
BRANCH   1   7
HETATM    7  O1  UNL     1      22.982   3.220  51.412  1.00  0.00    -0.331 OA
BRANCH   7   8
HETATM    8  C6  UNL     1      22.059   2.589  52.246  1.00  0.00     0.205 C 
BRANCH   8   9
HETATM    9  C5  UNL     1      21.455   1.410  51.522  1.00  0.00     0.002 C 
HETATM   10  C4  UNL     1      21.541   0.106  51.702  1.00  0.00     0.026 C 
BRANCH  10  11
HETATM   11  C3  UNL     1      22.378  -0.219  52.805  1.00  0.00     0.021 C 
HETATM   12  C2  UNL     1      23.063  -0.555  53.842  1.00  0.00    -0.002 C 
HETATM   13  C1  UNL     1      22.715  -1.282  55.079  1.00  0.00     0.038 C 
BRANCH  11  14
HETATM   14  N1  UNL     1      21.393  -0.915  53.630  1.00  0.00    -0.399 N 
HETATM   15  H5  UNL     1      20.604  -1.398  54.118  1.00  0.00     0.156 HD
HETATM   16  H6  UNL     1      20.672  -1.413  54.208  1.00  0.00     0.156 HD
ENDBRANCH  11  14
ENDBRANCH  10  11
ENDBRANCH   8   9
ENDBRANCH   7   8
ENDBRANCH   1   7
BRANCH   3  17
HETATM   17  N2  UNL     1      26.848   1.918  53.838  1.00  0.00    -0.340 N 
HETATM   18  H12 UNL     1      26.769   2.360  54.773  1.00  0.00     0.167 HD
BRANCH  17  19
HETATM   19  C10 UNL     1      27.590   0.714  53.702  1.00  0.00     0.050 A 
HETATM   20  C11 UNL     1      28.871   0.858  53.998  1.00  0.00     0.047 A 
HETATM   21  C12 UNL     1      29.589  -0.216  53.780  1.00  0.00     0.151 A 
HETATM   22  F1  UNL     1      30.865  -0.665  53.799  1.00  0.00    -0.203 F 
HETATM   23  C13 UNL     1      28.632  -1.258  53.381  1.00  0.00     0.075 A 
HETATM   24 CL1  UNL     1      28.599  -2.971  52.959  1.00  0.00    -0.081 Cl
HETATM   25  C14 UNL     1      27.410  -0.707  53.330  1.00  0.00     0.057 A 
ENDBRANCH  17  19
ENDBRANCH   3  17
TORSDOF 7
ENDMDL
MODEL 3
REMARK VINA RESULT:      -7.8      3.661      6.564
REMARK  7 active torsions:
REMARK  status: ('A' for Active; 'I' for Inactive)
REMARK    1  A    between atoms: C3_3  and  N1_4 
REMARK    2  A    between atoms: C3_3  and  C4_5 
REMARK    3  A    between atoms: C5_6  and  C6_7 
REMARK    4  A    between atoms: C6_7  and  O1_8 
REMARK    5  A    between atoms: O1_8  and  C7_9 
REMARK    6  A    between atoms: C9_11  and  N2_12 
REMARK    7  A    between atoms: N2_12  and  C10_13 
ROOT
HETATM    1  C7  UNL     1      22.141   2.667  50.998  1.00  0.00     0.169 A 
HETATM    2  C8  UNL     1      23.514   2.427  51.117  1.00  0.00     0.108 A 
HETATM    3  C9  UNL     1      24.264   3.331  51.880  1.00  0.00     0.133 A 
HETATM    4  N3  UNL     1      23.662   4.374  52.458  1.00  0.00    -0.224 NA
HETATM    5  C15 UNL     1      22.330   4.575  52.319  1.00  0.00     0.238 A 
HETATM    6  N4  UNL     1      21.576   3.731  51.596  1.00  0.00    -0.218 NA
ENDROOT
BRANCH   1   7
HETATM    7  O1  UNL     1      21.463   1.746  50.241  1.00  0.00    -0.331 OA
BRANCH   7   8
HETATM    8  C6  UNL     1      21.155   0.428  50.582  1.00  0.00     0.205 C 
BRANCH   8   9
HETATM    9  C5  UNL     1      20.085   0.423  51.646  1.00  0.00     0.002 C 
HETATM   10  C4  UNL     1      20.093   0.104  52.926  1.00  0.00     0.026 C 
BRANCH  10  11
HETATM   11  C3  UNL     1      21.382  -0.316  53.356  1.00  0.00     0.021 C 
HETATM   12  C2  UNL     1      22.512  -0.715  53.826  1.00  0.00    -0.002 C 
HETATM   13  C1  UNL     1      22.918  -1.237  55.147  1.00  0.00     0.038 C 
BRANCH  11  14
HETATM   14  N1  UNL     1      21.045  -0.693  54.726  1.00  0.00    -0.399 N 
HETATM   15  H5  UNL     1      20.929  -0.932  55.738  1.00  0.00     0.156 HD
HETATM   16  H6  UNL     1      20.820  -0.959  55.717  1.00  0.00     0.156 HD
ENDBRANCH  11  14
ENDBRANCH  10  11
ENDBRANCH   8   9
ENDBRANCH   7   8
ENDBRANCH   1   7
BRANCH   3  17
HETATM   17  N2  UNL     1      25.668   3.073  51.995  1.00  0.00    -0.340 N 
HETATM   18  H12 UNL     1      26.453   3.712  51.771  1.00  0.00     0.167 HD
BRANCH  17  19
HETATM   19  C10 UNL     1      25.956   1.768  52.479  1.00  0.00     0.050 A 
HETATM   20  C11 UNL     1      25.829   1.662  53.791  1.00  0.00     0.047 A 
HETATM   21  C12 UNL     1      26.190   0.496  54.266  1.00  0.00     0.151 A 
HETATM   22  F1  UNL     1      26.362  -0.173  55.429  1.00  0.00    -0.203 F 
HETATM   23  C13 UNL     1      26.504  -0.330  53.091  1.00  0.00     0.075 A 
HETATM   24 CL1  UNL     1      26.994  -1.977  52.691  1.00  0.00    -0.081 Cl
HETATM   25  C14 UNL     1      26.366   0.431  51.996  1.00  0.00     0.057 A 
ENDBRANCH  17  19
ENDBRANCH   3  17
TORSDOF 7
ENDMDL
MODEL 4
REMARK VINA RESULT:      -7.7      5.121      8.812
REMARK  7 active torsions:
REMARK  status: ('A' for Active; 'I' for Inactive)
REMARK    1  A    between atoms: C3_3  and  N1_4 
REMARK    2  A    between atoms: C3_3  and  C4_5 
REMARK    3  A    between atoms: C5_6  and  C6_7 
REMARK    4  A    between atoms: C6_7  and  O1_8 
REMARK    5  A    between atoms: O1_8  and  C7_9 
REMARK    6  A    between atoms: C9_11  and  N2_12 
REMARK    7  A    between atoms: N2_12  and  C10_13 
ROOT
HETATM    1  C7  UNL     1      22.028  -0.640  54.192  1.00  0.00     0.169 A 
HETATM    2  C8  UNL     1      22.884  -0.025  53.273  1.00  0.00     0.108 A 
HETATM    3  C9  UNL     1      24.260  -0.089  53.528  1.00  0.00     0.133 A 
HETATM    4  N3  UNL     1      24.706  -0.719  54.618  1.00  0.00    -0.224 NA
HETATM    5  C15 UNL     1      23.847  -1.303  55.487  1.00  0.00     0.238 A 
HETATM    6  N4  UNL     1      22.520  -1.264  55.277  1.00  0.00    -0.218 NA
ENDROOT
BRANCH   1   7
HETATM    7  O1  UNL     1      20.695  -0.546  53.885  1.00  0.00    -0.331 OA
BRANCH   7   8
HETATM    8  C6  UNL     1      19.751  -1.574  53.873  1.00  0.00     0.205 C 
BRANCH   8   9
HETATM    9  C5  UNL     1      18.445  -1.048  53.329  1.00  0.00     0.002 C 
HETATM   10  C4  UNL     1      17.274  -1.612  53.104  1.00  0.00     0.026 C 
BRANCH  10  11
HETATM   11  C3  UNL     1      17.278  -2.991  53.455  1.00  0.00     0.021 C 
HETATM   12  C2  UNL     1      17.191  -4.239  53.755  1.00  0.00    -0.002 C 
HETATM   13  C1  UNL     1      16.058  -5.185  53.785  1.00  0.00     0.038 C 
BRANCH  11  14
HETATM   14  N1  UNL     1      15.857  -3.270  53.263  1.00  0.00    -0.399 N 
HETATM   15  H5  UNL     1      14.828  -3.341  53.093  1.00  0.00     0.156 HD
HETATM   16  H6  UNL     1      14.832  -3.451  53.121  1.00  0.00     0.156 HD
ENDBRANCH  11  14
ENDBRANCH  10  11
ENDBRANCH   8   9
ENDBRANCH   7   8
ENDBRANCH   1   7
BRANCH   3  17
HETATM   17  N2  UNL     1      25.124   0.546  52.579  1.00  0.00    -0.340 N 
HETATM   18  H12 UNL     1      24.866   0.981  51.674  1.00  0.00     0.167 HD
BRANCH  17  19
HETATM   19  C10 UNL     1      26.487   0.549  52.983  1.00  0.00     0.050 A 
HETATM   20  C11 UNL     1      26.904   1.734  53.393  1.00  0.00     0.047 A 
HETATM   21  C12 UNL     1      28.183   1.779  53.671  1.00  0.00     0.151 A 
HETATM   22  F1  UNL     1      29.165   2.637  54.032  1.00  0.00    -0.203 F 
HETATM   23  C13 UNL     1      28.669   0.399  53.526  1.00  0.00     0.075 A 
HETATM   24 CL1  UNL     1      30.148  -0.540  53.730  1.00  0.00    -0.081 Cl
HETATM   25  C14 UNL     1      27.647  -0.362  53.108  1.00  0.00     0.057 A 
ENDBRANCH  17  19
ENDBRANCH   3  17
TORSDOF 7
ENDMDL
MODEL 5
REMARK VINA RESULT:      -7.7      1.570      2.454
REMARK  7 active torsions:
REMARK  status: ('A' for Active; 'I' for Inactive)
REMARK    1  A    between atoms: C3_3  and  N1_4 
REMARK    2  A    between atoms: C3_3  and  C4_5 
REMARK    3  A    between atoms: C5_6  and  C6_7 
REMARK    4  A    between atoms: C6_7  and  O1_8 
REMARK    5  A    between atoms: O1_8  and  C7_9 
REMARK    6  A    between atoms: C9_11  and  N2_12 
REMARK    7  A    between atoms: N2_12  and  C10_13 
ROOT
HETATM    1  C7  UNL     1      27.344   2.129  52.091  1.00  0.00     0.169 A 
HETATM    2  C8  UNL     1      26.347   1.147  52.079  1.00  0.00     0.108 A 
HETATM    3  C9  UNL     1      26.384   0.176  53.088  1.00  0.00     0.133 A 
HETATM    4  N3  UNL     1      27.349   0.213  54.011  1.00  0.00    -0.224 NA
HETATM    5  C15 UNL     1      28.299   1.178  53.990  1.00  0.00     0.238 A 
HETATM    6  N4  UNL     1      28.297   2.127  53.039  1.00  0.00    -0.218 NA
ENDROOT
BRANCH   1   7
HETATM    7  O1  UNL     1      27.251   3.051  51.080  1.00  0.00    -0.331 OA
BRANCH   7   8
HETATM    8  C6  UNL     1      26.513   2.947  49.900  1.00  0.00     0.205 C 
BRANCH   8   9
HETATM    9  C5  UNL     1      26.233   4.329  49.362  1.00  0.00     0.002 C 
HETATM   10  C4  UNL     1      25.239   5.178  49.540  1.00  0.00     0.026 C 
BRANCH  10  11
HETATM   11  C3  UNL     1      24.251   4.654  50.421  1.00  0.00     0.021 C 
HETATM   12  C2  UNL     1      23.381   4.247  51.277  1.00  0.00    -0.002 C 
HETATM   13  C1  UNL     1      23.000   4.724  52.622  1.00  0.00     0.038 C 
BRANCH  11  14
HETATM   14  N1  UNL     1      24.424   5.593  51.526  1.00  0.00    -0.399 N 
HETATM   15  H5  UNL     1      24.496   6.170  52.395  1.00  0.00     0.156 HD
HETATM   16  H6  UNL     1      24.540   6.255  52.334  1.00  0.00     0.156 HD
ENDBRANCH  11  14
ENDBRANCH  10  11
ENDBRANCH   8   9
ENDBRANCH   7   8
ENDBRANCH   1   7
BRANCH   3  17
HETATM   17  N2  UNL     1      25.358  -0.822  53.064  1.00  0.00    -0.340 N 
HETATM   18  H12 UNL     1      25.467  -1.844  52.924  1.00  0.00     0.167 HD
BRANCH  17  19
HETATM   19  C10 UNL     1      24.056  -0.287  53.261  1.00  0.00     0.050 A 
HETATM   20  C11 UNL     1      23.425  -0.824  54.290  1.00  0.00     0.047 A 
HETATM   21  C12 UNL     1      22.187  -0.417  54.424  1.00  0.00     0.151 A 
HETATM   22  F1  UNL     1      21.072  -0.625  55.161  1.00  0.00    -0.203 F 
HETATM   23  C13 UNL     1      21.998   0.620  53.399  1.00  0.00     0.075 A 
HETATM   24 CL1  UNL     1      20.770   1.754  52.836  1.00  0.00    -0.081 Cl
HETATM   25  C14 UNL     1      23.128   0.711  52.683  1.00  0.00     0.057 A 
ENDBRANCH  17  19
ENDBRANCH   3  17
TORSDOF 7
ENDMDL
MODEL 6
REMARK VINA RESULT:      -7.7      3.243      4.418
REMARK  7 active torsions:
REMARK  status: ('A' for Active; 'I' for Inactive)
REMARK    1  A    between atoms: C3_3  and  N1_4 
REMARK    2  A    between atoms: C3_3  and  C4_5 
REMARK    3  A    between atoms: C5_6  and  C6_7 
REMARK    4  A    between atoms: C6_7  and  O1_8 
REMARK    5  A    between atoms: O1_8  and  C7_9 
REMARK    6  A    between atoms: C9_11  and  N2_12 
REMARK    7  A    between atoms: N2_12  and  C10_13 
ROOT
HETATM    1  C7  UNL     1      24.540   2.523  50.950  1.00  0.00     0.169 A 
HETATM    2  C8  UNL     1      25.587   2.530  51.877  1.00  0.00     0.108 A 
HETATM    3  C9  UNL     1      25.371   1.880  53.099  1.00  0.00     0.133 A 
HETATM    4  N3  UNL     1      24.198   1.288  53.341  1.00  0.00    -0.224 NA
HETATM    5  C15 UNL     1      23.206   1.304  52.419  1.00  0.00     0.238 A 
HETATM    6  N4  UNL     1      23.374   1.915  51.235  1.00  0.00    -0.218 NA
ENDROOT
BRANCH   1   7
HETATM    7  O1  UNL     1      24.813   3.172  49.773  1.00  0.00    -0.331 OA
BRANCH   7   8
HETATM    8  C6  UNL     1      24.036   4.141  49.137  1.00  0.00     0.205 C 
BRANCH   8   9
HETATM    9  C5  UNL     1      24.349   5.496  49.722  1.00  0.00     0.002 C 
HETATM   10  C4  UNL     1      25.448   6.224  49.766  1.00  0.00     0.026 C 
BRANCH  10  11
HETATM   11  C3  UNL     1      26.537   5.570  49.124  1.00  0.00     0.021 C 
HETATM   12  C2  UNL     1      27.572   5.056  48.556  1.00  0.00    -0.002 C 
HETATM   13  C1  UNL     1      28.925   5.579  48.278  1.00  0.00     0.038 C 
BRANCH  11  14
HETATM   14  N1  UNL     1      27.515   6.653  49.196  1.00  0.00    -0.399 N 
HETATM   15  H5  UNL     1      28.136   7.483  49.339  1.00  0.00     0.156 HD
HETATM   16  H6  UNL     1      28.207   7.441  49.262  1.00  0.00     0.156 HD
ENDBRANCH  11  14
ENDBRANCH  10  11
ENDBRANCH   8   9
ENDBRANCH   7   8
ENDBRANCH   1   7
BRANCH   3  17
HETATM   17  N2  UNL     1      26.452   1.894  54.039  1.00  0.00    -0.340 N 
HETATM   18  H12 UNL     1      26.618   2.571  54.808  1.00  0.00     0.167 HD
BRANCH  17  19
HETATM   19  C10 UNL     1      27.372   0.828  53.845  1.00  0.00     0.050 A 
HETATM   20  C11 UNL     1      28.634   1.209  53.942  1.00  0.00     0.047 A 
HETATM   21  C12 UNL     1      29.496   0.262  53.664  1.00  0.00     0.151 A 
HETATM   22  F1  UNL     1      30.822   0.040  53.513  1.00  0.00    -0.203 F 
HETATM   23  C13 UNL     1      28.695  -0.953  53.453  1.00  0.00     0.075 A 
HETATM   24 CL1  UNL     1      28.912  -2.669  53.111  1.00  0.00    -0.081 Cl
HETATM   25  C14 UNL     1      27.400  -0.624  53.561  1.00  0.00     0.057 A 
ENDBRANCH  17  19
ENDBRANCH   3  17
TORSDOF 7
ENDMDL
MODEL 7
REMARK VINA RESULT:      -7.6      4.117      5.831
REMARK  7 active torsions:
REMARK  status: ('A' for Active; 'I' for Inactive)
REMARK    1  A    between atoms: C3_3  and  N1_4 
REMARK    2  A    between atoms: C3_3  and  C4_5 
REMARK    3  A    between atoms: C5_6  and  C6_7 
REMARK    4  A    between atoms: C6_7  and  O1_8 
REMARK    5  A    between atoms: O1_8  and  C7_9 
REMARK    6  A    between atoms: C9_11  and  N2_12 
REMARK    7  A    between atoms: N2_12  and  C10_13 
ROOT
HETATM    1  C7  UNL     1      22.515  -0.786  54.377  1.00  0.00     0.169 A 
HETATM    2  C8  UNL     1      23.442  -0.467  53.379  1.00  0.00     0.108 A 
HETATM    3  C9  UNL     1      24.797  -0.671  53.667  1.00  0.00     0.133 A 
HETATM    4  N3  UNL     1      25.160  -1.152  54.859  1.00  0.00    -0.224 NA
HETATM    5  C15 UNL     1      24.233  -1.449  55.802  1.00  0.00     0.238 A 
HETATM    6  N4  UNL     1      22.924  -1.267  55.564  1.00  0.00    -0.218 NA
ENDROOT
BRANCH   1   7
HETATM    7  O1  UNL     1      21.206  -0.566  54.033  1.00  0.00    -0.331 OA
BRANCH   7   8
HETATM    8  C6  UNL     1      20.716  -0.081  52.820  1.00  0.00     0.205 C 
BRANCH   8   9
HETATM    9  C5  UNL     1      20.312   1.364  52.986  1.00  0.00     0.002 C 
HETATM   10  C4  UNL     1      20.776   2.489  52.477  1.00  0.00     0.026 C 
BRANCH  10  11
HETATM   11  C3  UNL     1      21.875   2.259  51.603  1.00  0.00     0.021 C 
HETATM   12  C2  UNL     1      22.920   2.100  50.869  1.00  0.00    -0.002 C 
HETATM   13  C1  UNL     1      24.311   2.582  50.991  1.00  0.00     0.038 C 
BRANCH  11  14
HETATM   14  N1  UNL     1      22.894   3.013  52.328  1.00  0.00    -0.399 N 
HETATM   15  H5  UNL     1      23.706   3.521  52.748  1.00  0.00     0.156 HD
HETATM   16  H6  UNL     1      23.640   3.551  52.836  1.00  0.00     0.156 HD
ENDBRANCH  11  14
ENDBRANCH  10  11
ENDBRANCH   8   9
ENDBRANCH   7   8
ENDBRANCH   1   7
BRANCH   3  17
HETATM   17  N2  UNL     1      25.735  -0.341  52.636  1.00  0.00    -0.340 N 
HETATM   18  H12 UNL     1      25.593  -0.382  51.609  1.00  0.00     0.167 HD
BRANCH  17  19
HETATM   19  C10 UNL     1      26.991   0.089  53.143  1.00  0.00     0.050 A 
HETATM   20  C11 UNL     1      27.922  -0.849  53.088  1.00  0.00     0.047 A 
HETATM   21  C12 UNL     1      29.056  -0.504  53.645  1.00  0.00     0.151 A 
HETATM   22  F1  UNL     1      30.276  -0.992  53.966  1.00  0.00    -0.203 F 
HETATM   23  C13 UNL     1      28.893   0.904  54.036  1.00  0.00     0.075 A 
HETATM   24 CL1  UNL     1      29.818   2.219  54.761  1.00  0.00    -0.081 Cl
HETATM   25  C14 UNL     1      27.641   1.279  53.737  1.00  0.00     0.057 A 
ENDBRANCH  17  19
ENDBRANCH   3  17
TORSDOF 7
ENDMDL
MODEL 8
REMARK VINA RESULT:      -7.5      3.549      6.078
REMARK  7 active torsions:
REMARK  status: ('A' for Active; 'I' for Inactive)
REMARK    1  A    between atoms: C3_3  and  N1_4 
REMARK    2  A    between atoms: C3_3  and  C4_5 
REMARK    3  A    between atoms: C5_6  and  C6_7 
REMARK    4  A    between atoms: C6_7  and  O1_8 
REMARK    5  A    between atoms: O1_8  and  C7_9 
REMARK    6  A    between atoms: C9_11  and  N2_12 
REMARK    7  A    between atoms: N2_12  and  C10_13 
ROOT
HETATM    1  C7  UNL     1      24.181   3.008  50.303  1.00  0.00     0.169 A 
HETATM    2  C8  UNL     1      24.430   2.499  51.582  1.00  0.00     0.108 A 
HETATM    3  C9  UNL     1      25.767   2.352  51.970  1.00  0.00     0.133 A 
HETATM    4  N3  UNL     1      26.746   2.691  51.127  1.00  0.00    -0.224 NA
HETATM    5  C15 UNL     1      26.467   3.179  49.895  1.00  0.00     0.238 A 
HETATM    6  N4  UNL     1      25.197   3.336  49.486  1.00  0.00    -0.218 NA
ENDROOT
BRANCH   1   7
HETATM    7  O1  UNL     1      22.853   3.131  49.984  1.00  0.00    -0.331 OA
BRANCH   7   8
HETATM    8  C6  UNL     1      21.755   2.750  50.757  1.00  0.00     0.205 C 
BRANCH   8   9
HETATM    9  C5  UNL     1      21.214   1.437  50.244  1.00  0.00     0.002 C 
HETATM   10  C4  UNL     1      21.102   0.240  50.786  1.00  0.00     0.026 C 
BRANCH  10  11
HETATM   11  C3  UNL     1      21.600   0.217  52.119  1.00  0.00     0.021 C 
HETATM   12  C2  UNL     1      21.968   0.167  53.352  1.00  0.00    -0.002 C 
HETATM   13  C1  UNL     1      21.257  -0.194  54.595  1.00  0.00     0.038 C 
BRANCH  11  14
HETATM   14  N1  UNL     1      20.384  -0.220  52.800  1.00  0.00    -0.399 N 
HETATM   15  H5  UNL     1      19.577  -0.506  53.401  1.00  0.00     0.156 HD
HETATM   16  H6  UNL     1      19.518  -0.530  53.307  1.00  0.00     0.156 HD
ENDBRANCH  11  14
ENDBRANCH  10  11
ENDBRANCH   8   9
ENDBRANCH   7   8
ENDBRANCH   1   7
BRANCH   3  17
HETATM   17  N2  UNL     1      26.007   1.831  53.283  1.00  0.00    -0.340 N 
HETATM   18  H12 UNL     1      25.592   2.147  54.179  1.00  0.00     0.167 HD
BRANCH  17  19
HETATM   19  C10 UNL     1      26.932   0.751  53.292  1.00  0.00     0.050 A 
HETATM   20  C11 UNL     1      26.429  -0.367  52.797  1.00  0.00     0.047 A 
HETATM   21  C12 UNL     1      27.232  -1.397  52.893  1.00  0.00     0.151 A 
HETATM   22  F1  UNL     1      27.286  -2.730  52.668  1.00  0.00    -0.203 F 
HETATM   23  C13 UNL     1      28.493  -0.867  53.434  1.00  0.00     0.075 A 
HETATM   24 CL1  UNL     1      30.118  -1.412  53.847  1.00  0.00    -0.081 Cl
HETATM   25  C14 UNL     1      28.325   0.439  53.682  1.00  0.00     0.057 A 
ENDBRANCH  17  19
ENDBRANCH   3  17
TORSDOF 7
ENDMDL
MODEL 9
REMARK VINA RESULT:      -7.5      4.560      6.326
REMARK  7 active torsions:
REMARK  status: ('A' for Active; 'I' for Inactive)
REMARK    1  A    between atoms: C3_3  and  N1_4 
REMARK    2  A    between atoms: C3_3  and  C4_5 
REMARK    3  A    between atoms: C5_6  and  C6_7 
REMARK    4  A    between atoms: C6_7  and  O1_8 
REMARK    5  A    between atoms: O1_8  and  C7_9 
REMARK    6  A    between atoms: C9_11  and  N2_12 
REMARK    7  A    between atoms: N2_12  and  C10_13 
ROOT
HETATM    1  C7  UNL     1      21.439  -0.717  53.765  1.00  0.00     0.169 A 
HETATM    2  C8  UNL     1      22.467  -0.066  53.076  1.00  0.00     0.108 A 
HETATM    3  C9  UNL     1      23.766  -0.187  53.587  1.00  0.00     0.133 A 
HETATM    4  N3  UNL     1      23.981  -0.902  54.695  1.00  0.00    -0.224 NA
HETATM    5  C15 UNL     1      22.960  -1.517  55.337  1.00  0.00     0.238 A 
HETATM    6  N4  UNL     1      21.701  -1.426  54.878  1.00  0.00    -0.218 NA
ENDROOT
BRANCH   1   7
HETATM    7  O1  UNL     1      20.193  -0.563  53.214  1.00  0.00    -0.331 OA
BRANCH   7   8
HETATM    8  C6  UNL     1      19.595   0.621  52.783  1.00  0.00     0.205 C 
BRANCH   8   9
HETATM    9  C5  UNL     1      18.905   0.382  51.462  1.00  0.00     0.002 C 
HETATM   10  C4  UNL     1      19.246   0.634  50.212  1.00  0.00     0.026 C 
BRANCH  10  11
HETATM   11  C3  UNL     1      20.523   1.257  50.130  1.00  0.00     0.021 C 
HETATM   12  C2  UNL     1      21.670   1.816  49.965  1.00  0.00    -0.002 C 
HETATM   13  C1  UNL     1      22.442   2.180  48.759  1.00  0.00     0.038 C 
BRANCH  11  14
HETATM   14  N1  UNL     1      20.651   1.302  48.676  1.00  0.00    -0.399 N 
HETATM   15  H5  UNL     1      20.614   1.304  47.631  1.00  0.00     0.156 HD
HETATM   16  H6  UNL     1      20.724   1.331  47.628  1.00  0.00     0.156 HD
ENDBRANCH  11  14
ENDBRANCH  10  11
ENDBRANCH   8   9
ENDBRANCH   7   8
ENDBRANCH   1   7
BRANCH   3  17
HETATM   17  N2  UNL     1      24.809   0.485  52.870  1.00  0.00    -0.340 N 
HETATM   18  H12 UNL     1      24.713   1.242  52.168  1.00  0.00     0.167 HD
BRANCH  17  19
HETATM   19  C10 UNL     1      26.107   0.012  53.205  1.00  0.00     0.050 A 
HETATM   20  C11 UNL     1      26.714   0.762  54.109  1.00  0.00     0.047 A 
HETATM   21  C12 UNL     1      27.949   0.401  54.353  1.00  0.00     0.151 A 
HETATM   22  F1  UNL     1      29.048   0.769  55.051  1.00  0.00    -0.203 F 
HETATM   23  C13 UNL     1      28.163  -0.831  53.578  1.00  0.00     0.075 A 
HETATM   24 CL1  UNL     1      29.405  -2.051  53.298  1.00  0.00    -0.081 Cl
HETATM   25  C14 UNL     1      27.049  -1.080  52.875  1.00  0.00     0.057 A 
ENDBRANCH  17  19
ENDBRANCH   3  17
TORSDOF 7
ENDMDL
