MODEL 1
REMARK VINA RESULT:      -6.8      0.000      0.000
REMARK  8 active torsions:
REMARK  status: ('A' for Active; 'I' for Inactive)
REMARK    1  A    between atoms: O1_2  and  C2_3 
REMARK    2  A    between atoms: C6_9  and  N3_10 
REMARK    3  A    between atoms: N3_10  and  C7_11 
REMARK    4  A    between atoms: C7_11  and  C8_12 
REMARK    5  A    between atoms: C8_12  and  C9_13 
REMARK    6  A    between atoms: C12_18  and  C13_19 
REMARK    7  A    between atoms: C13_19  and  N4_20 
REMARK    8  A    between atoms: N4_20  and  C14_21 
ROOT
HETATM    1  C2  UNL     1      27.076   0.692  53.166  1.00  0.00     0.078 A 
HETATM    2  C3  UNL     1      26.650  -0.048  54.250  1.00  0.00     0.070 A 
HETATM    3  C4  UNL     1      25.329  -0.381  54.375  1.00  0.00     0.074 A 
HETATM    4  N1  UNL     1      24.928  -1.111  55.450  1.00  0.00    -0.241 NA
HETATM    5  C5  UNL     1      23.620  -1.433  55.559  1.00  0.00     0.235 A 
HETATM    6  N2  UNL     1      22.700  -1.063  54.655  1.00  0.00    -0.224 NA
HETATM    7  C6  UNL     1      23.028  -0.354  53.591  1.00  0.00     0.137 A 
HETATM    8  C10 UNL     1      24.357  -0.019  53.466  1.00  0.00     0.039 A 
HETATM    9  C11 UNL     1      24.799   0.712  52.402  1.00  0.00     0.029 A 
HETATM   10  C12 UNL     1      26.118   1.078  52.223  1.00  0.00    -0.006 A 
ENDROOT
BRANCH   7  11
HETATM   11  N3  UNL     1      22.034   0.040  52.623  1.00  0.00    -0.373 N 
HETATM   12  H6  UNL     1      22.035  -0.210  51.618  1.00  0.00     0.161 HD
BRANCH  11  13
HETATM   13  C7  UNL     1      20.933   0.857  53.097  1.00  0.00     0.131 C 
BRANCH  13  14
HETATM   14  C8  UNL     1      20.881   2.200  52.511  1.00  0.00     0.073 C 
BRANCH  14  15
HETATM   15  C9  UNL     1      21.811   2.783  51.791  1.00  0.00     0.230 A 
HETATM   16  F1  UNL     1      22.775   3.505  52.462  1.00  0.00    -0.282 F 
HETATM   17 CL1  UNL     1      23.055   3.711  52.606  1.00  0.00    -0.010 Cl
ENDBRANCH  14  15
ENDBRANCH  13  14
ENDBRANCH  11  13
ENDBRANCH   7  11
BRANCH  10  18
HETATM   18  C13 UNL     1      26.658   1.872  51.087  1.00  0.00     0.156 C 
BRANCH  18  19
HETATM   19  N4  UNL     1      26.551   3.275  51.279  1.00  0.00    -0.414 N 
HETATM   20  H13 UNL     1      27.242   3.737  51.868  1.00  0.00     0.153 HD
BRANCH  19  21
HETATM   21  C14 UNL     1      25.966   4.028  50.219  1.00  0.00     0.068 C 
HETATM   22  C15 UNL     1      24.798   3.322  49.562  1.00  0.00     0.031 C 
HETATM   23  C16 UNL     1      27.017   4.218  49.144  1.00  0.00     0.031 C 
ENDBRANCH  19  21
ENDBRANCH  18  19
ENDBRANCH  10  18
BRANCH   1  24
HETATM   24  O1  UNL     1      28.419   1.031  53.038  1.00  0.00    -0.355 OA
HETATM   25  C1  UNL     1      29.411   0.232  53.644  1.00  0.00     0.210 C 
ENDBRANCH   1  24
TORSDOF 8
ENDMDL
MODEL 2
REMARK VINA RESULT:      -6.7      2.530      5.454
REMARK  8 active torsions:
REMARK  status: ('A' for Active; 'I' for Inactive)
REMARK    1  A    between atoms: O1_2  and  C2_3 
REMARK    2  A    between atoms: C6_9  and  N3_10 
REMARK    3  A    between atoms: N3_10  and  C7_11 
REMARK    4  A    between atoms: C7_11  and  C8_12 
REMARK    5  A    between atoms: C8_12  and  C9_13 
REMARK    6  A    between atoms: C12_18  and  C13_19 
REMARK    7  A    between atoms: C13_19  and  N4_20 
REMARK    8  A    between atoms: N4_20  and  C14_21 
ROOT
HETATM    1  C2  UNL     1      24.524   0.046  53.736  1.00  0.00     0.078 A 
HETATM    2  C3  UNL     1      23.524   0.320  52.827  1.00  0.00     0.070 A 
HETATM    3  C4  UNL     1      23.714   1.279  51.869  1.00  0.00     0.074 A 
HETATM    4  N1  UNL     1      22.717   1.536  50.981  1.00  0.00    -0.241 NA
HETATM    5  C5  UNL     1      22.920   2.485  50.041  1.00  0.00     0.235 A 
HETATM    6  N2  UNL     1      24.060   3.185  49.945  1.00  0.00    -0.224 NA
HETATM    7  C6  UNL     1      25.064   2.981  50.778  1.00  0.00     0.137 A 
HETATM    8  C10 UNL     1      24.873   2.017  51.742  1.00  0.00     0.039 A 
HETATM    9  C11 UNL     1      25.849   1.730  52.651  1.00  0.00     0.029 A 
HETATM   10  C12 UNL     1      25.714   0.775  53.638  1.00  0.00    -0.006 A 
ENDROOT
BRANCH   7  11
HETATM   11  N3  UNL     1      26.287   3.737  50.669  1.00  0.00    -0.373 N 
HETATM   12  H6  UNL     1      26.808   4.164  51.457  1.00  0.00     0.161 HD
BRANCH  11  13
HETATM   13  C7  UNL     1      26.840   3.917  49.341  1.00  0.00     0.131 C 
BRANCH  13  14
HETATM   14  C8  UNL     1      26.975   5.317  48.925  1.00  0.00     0.073 C 
BRANCH  14  15
HETATM   15  C9  UNL     1      26.028   6.226  48.900  1.00  0.00     0.230 A 
HETATM   16  F1  UNL     1      25.904   7.045  50.003  1.00  0.00    -0.282 F 
HETATM   17 CL1  UNL     1      25.836   7.287  50.283  1.00  0.00    -0.010 Cl
ENDBRANCH  14  15
ENDBRANCH  13  14
ENDBRANCH  11  13
ENDBRANCH   7  11
BRANCH  10  18
HETATM   18  C13 UNL     1      26.740   0.419  54.655  1.00  0.00     0.156 C 
BRANCH  18  19
HETATM   19  N4  UNL     1      27.468  -0.757  54.333  1.00  0.00    -0.414 N 
HETATM   20  H13 UNL     1      26.982  -1.652  54.369  1.00  0.00     0.153 HD
BRANCH  19  21
HETATM   21  C14 UNL     1      28.543  -0.617  53.407  1.00  0.00     0.068 C 
HETATM   22  C15 UNL     1      29.450  -1.829  53.359  1.00  0.00     0.031 C 
HETATM   23  C16 UNL     1      29.401   0.548  53.858  1.00  0.00     0.031 C 
ENDBRANCH  19  21
ENDBRANCH  18  19
ENDBRANCH  10  18
BRANCH   1  24
HETATM   24  O1  UNL     1      24.333  -0.929  54.711  1.00  0.00    -0.355 OA
HETATM   25  C1  UNL     1      23.030  -1.234  55.159  1.00  0.00     0.210 C 
ENDBRANCH   1  24
TORSDOF 8
ENDMDL
MODEL 3
REMARK VINA RESULT:      -6.7      3.299      6.039
REMARK  8 active torsions:
REMARK  status: ('A' for Active; 'I' for Inactive)
REMARK    1  A    between atoms: O1_2  and  C2_3 
REMARK    2  A    between atoms: C6_9  and  N3_10 
REMARK    3  A    between atoms: N3_10  and  C7_11 
REMARK    4  A    between atoms: C7_11  and  C8_12 
REMARK    5  A    between atoms: C8_12  and  C9_13 
REMARK    6  A    between atoms: C12_18  and  C13_19 
REMARK    7  A    between atoms: C13_19  and  N4_20 
REMARK    8  A    between atoms: N4_20  and  C14_21 
ROOT
HETATM    1  C2  UNL     1      24.295   0.356  53.401  1.00  0.00     0.078 A 
HETATM    2  C3  UNL     1      23.305   1.281  53.142  1.00  0.00     0.070 A 
HETATM    3  C4  UNL     1      23.577   2.376  52.368  1.00  0.00     0.074 A 
HETATM    4  N1  UNL     1      22.587   3.276  52.123  1.00  0.00    -0.241 NA
HETATM    5  C5  UNL     1      22.870   4.352  51.356  1.00  0.00     0.235 A 
HETATM    6  N2  UNL     1      24.083   4.572  50.827  1.00  0.00    -0.224 NA
HETATM    7  C6  UNL     1      25.083   3.734  51.028  1.00  0.00     0.137 A 
HETATM    8  C10 UNL     1      24.810   2.632  51.807  1.00  0.00     0.039 A 
HETATM    9  C11 UNL     1      25.775   1.706  52.075  1.00  0.00     0.029 A 
HETATM   10  C12 UNL     1      25.560   0.583  52.849  1.00  0.00    -0.006 A 
ENDROOT
BRANCH   7  11
HETATM   11  N3  UNL     1      26.384   3.975  50.456  1.00  0.00    -0.373 N 
HETATM   12  H6  UNL     1      27.283   3.607  50.816  1.00  0.00     0.161 HD
BRANCH  11  13
HETATM   13  C7  UNL     1      26.443   4.807  49.269  1.00  0.00     0.131 C 
BRANCH  13  14
HETATM   14  C8  UNL     1      27.747   4.816  48.599  1.00  0.00     0.073 C 
BRANCH  14  15
HETATM   15  C9  UNL     1      28.449   5.871  48.252  1.00  0.00     0.230 A 
HETATM   16  F1  UNL     1      29.758   5.666  47.873  1.00  0.00    -0.282 F 
HETATM   17 CL1  UNL     1      30.119   5.653  47.764  1.00  0.00    -0.010 Cl
ENDBRANCH  14  15
ENDBRANCH  13  14
ENDBRANCH  11  13
ENDBRANCH   7  11
BRANCH  10  18
HETATM   18  C13 UNL     1      26.570  -0.459  53.176  1.00  0.00     0.156 C 
BRANCH  18  19
HETATM   19  N4  UNL     1      27.182  -0.273  54.444  1.00  0.00    -0.414 N 
HETATM   20  H13 UNL     1      26.749  -0.709  55.258  1.00  0.00     0.153 HD
BRANCH  19  21
HETATM   21  C14 UNL     1      28.595  -0.087  54.458  1.00  0.00     0.068 C 
HETATM   22  C15 UNL     1      29.014   1.314  54.063  1.00  0.00     0.031 C 
HETATM   23  C16 UNL     1      29.201  -1.025  53.434  1.00  0.00     0.031 C 
ENDBRANCH  19  21
ENDBRANCH  18  19
ENDBRANCH  10  18
BRANCH   1  24
HETATM   24  O1  UNL     1      24.021  -0.758  54.188  1.00  0.00    -0.355 OA
HETATM   25  C1  UNL     1      22.691  -1.204  54.342  1.00  0.00     0.210 C 
ENDBRANCH   1  24
TORSDOF 8
ENDMDL
MODEL 4
REMARK VINA RESULT:      -6.7      3.066      4.863
REMARK  8 active torsions:
REMARK  status: ('A' for Active; 'I' for Inactive)
REMARK    1  A    between atoms: O1_2  and  C2_3 
REMARK    2  A    between atoms: C6_9  and  N3_10 
REMARK    3  A    between atoms: N3_10  and  C7_11 
REMARK    4  A    between atoms: C7_11  and  C8_12 
REMARK    5  A    between atoms: C8_12  and  C9_13 
REMARK    6  A    between atoms: C12_18  and  C13_19 
REMARK    7  A    between atoms: C13_19  and  N4_20 
REMARK    8  A    between atoms: N4_20  and  C14_21 
ROOT
HETATM    1  C2  UNL     1      22.662   2.358  51.504  1.00  0.00     0.078 A 
HETATM    2  C3  UNL     1      21.816   1.700  52.373  1.00  0.00     0.070 A 
HETATM    3  C4  UNL     1      22.314   0.757  53.230  1.00  0.00     0.074 A 
HETATM    4  N1  UNL     1      21.464   0.119  54.079  1.00  0.00    -0.241 NA
HETATM    5  C5  UNL     1      21.970  -0.810  54.920  1.00  0.00     0.235 A 
HETATM    6  N2  UNL     1      23.272  -1.130  54.954  1.00  0.00    -0.224 NA
HETATM    7  C6  UNL     1      24.146  -0.546  54.155  1.00  0.00     0.137 A 
HETATM    8  C10 UNL     1      23.645   0.403  53.292  1.00  0.00     0.039 A 
HETATM    9  C11 UNL     1      24.465   1.065  52.425  1.00  0.00     0.029 A 
HETATM   10  C12 UNL     1      24.020   2.025  51.539  1.00  0.00    -0.006 A 
ENDROOT
BRANCH   7  11
HETATM   11  N3  UNL     1      25.544  -0.895  54.197  1.00  0.00    -0.373 N 
HETATM   12  H6  UNL     1      25.997  -1.649  53.650  1.00  0.00     0.161 HD
BRANCH  11  13
HETATM   13  C7  UNL     1      26.394  -0.123  55.084  1.00  0.00     0.131 C 
BRANCH  13  14
HETATM   14  C8  UNL     1      27.590   0.432  54.444  1.00  0.00     0.073 C 
BRANCH  14  15
HETATM   15  C9  UNL     1      28.840   0.132  54.713  1.00  0.00     0.230 A 
HETATM   16  F1  UNL     1      29.457  -0.802  53.907  1.00  0.00    -0.282 F 
HETATM   17 CL1  UNL     1      29.661  -1.051  53.712  1.00  0.00    -0.010 Cl
ENDBRANCH  14  15
ENDBRANCH  13  14
ENDBRANCH  11  13
ENDBRANCH   7  11
BRANCH  10  18
HETATM   18  C13 UNL     1      24.863   2.778  50.572  1.00  0.00     0.156 C 
BRANCH  18  19
HETATM   19  N4  UNL     1      25.165   4.099  50.997  1.00  0.00    -0.414 N 
HETATM   20  H13 UNL     1      25.513   4.235  51.945  1.00  0.00     0.153 HD
BRANCH  19  21
HETATM   21  C14 UNL     1      25.588   5.019  49.992  1.00  0.00     0.068 C 
HETATM   22  C15 UNL     1      24.511   5.321  48.970  1.00  0.00     0.031 C 
HETATM   23  C16 UNL     1      26.739   4.388  49.234  1.00  0.00     0.031 C 
ENDBRANCH  19  21
ENDBRANCH  18  19
ENDBRANCH  10  18
BRANCH   1  24
HETATM   24  O1  UNL     1      22.158   3.317  50.632  1.00  0.00    -0.355 OA
HETATM   25  C1  UNL     1      21.502   4.459  51.139  1.00  0.00     0.210 C 
ENDBRANCH   1  24
TORSDOF 8
ENDMDL
MODEL 5
REMARK VINA RESULT:      -6.5      2.752      5.292
REMARK  8 active torsions:
REMARK  status: ('A' for Active; 'I' for Inactive)
REMARK    1  A    between atoms: O1_2  and  C2_3 
REMARK    2  A    between atoms: C6_9  and  N3_10 
REMARK    3  A    between atoms: N3_10  and  C7_11 
REMARK    4  A    between atoms: C7_11  and  C8_12 
REMARK    5  A    between atoms: C8_12  and  C9_13 
REMARK    6  A    between atoms: C12_18  and  C13_19 
REMARK    7  A    between atoms: C13_19  and  N4_20 
REMARK    8  A    between atoms: N4_20  and  C14_21 
ROOT
HETATM    1  C2  UNL     1      23.756   1.025  53.082  1.00  0.00     0.078 A 
HETATM    2  C3  UNL     1      22.557   1.391  52.507  1.00  0.00     0.070 A 
HETATM    3  C4  UNL     1      22.339   2.695  52.151  1.00  0.00     0.074 A 
HETATM    4  N1  UNL     1      21.151   3.037  51.585  1.00  0.00    -0.241 NA
HETATM    5  C5  UNL     1      20.949   4.327  51.238  1.00  0.00     0.235 A 
HETATM    6  N2  UNL     1      21.870   5.285  51.428  1.00  0.00    -0.224 NA
HETATM    7  C6  UNL     1      23.042   5.015  51.973  1.00  0.00     0.137 A 
HETATM    8  C10 UNL     1      23.261   3.703  52.331  1.00  0.00     0.039 A 
HETATM    9  C11 UNL     1      24.440   3.320  52.901  1.00  0.00     0.029 A 
HETATM   10  C12 UNL     1      24.716   2.022  53.280  1.00  0.00    -0.006 A 
ENDROOT
BRANCH   7  11
HETATM   11  N3  UNL     1      24.026   6.049  52.174  1.00  0.00    -0.373 N 
HETATM   12  H6  UNL     1      24.512   6.258  53.064  1.00  0.00     0.161 HD
BRANCH  11  13
HETATM   13  C7  UNL     1      24.368   6.871  51.028  1.00  0.00     0.131 C 
BRANCH  13  14
HETATM   14  C8  UNL     1      25.386   6.289  50.148  1.00  0.00     0.073 C 
BRANCH  14  15
HETATM   15  C9  UNL     1      25.186   5.453  49.156  1.00  0.00     0.230 A 
HETATM   16  F1  UNL     1      25.385   4.111  49.405  1.00  0.00    -0.282 F 
HETATM   17 CL1  UNL     1      25.429   3.738  49.431  1.00  0.00    -0.010 Cl
ENDBRANCH  14  15
ENDBRANCH  13  14
ENDBRANCH  11  13
ENDBRANCH   7  11
BRANCH  10  18
HETATM   18  C13 UNL     1      25.979   1.545  53.905  1.00  0.00     0.156 C 
BRANCH  18  19
HETATM   19  N4  UNL     1      26.873   0.942  52.981  1.00  0.00    -0.414 N 
HETATM   20  H13 UNL     1      26.618   0.938  51.994  1.00  0.00     0.153 HD
BRANCH  19  21
HETATM   21  C14 UNL     1      28.259   0.971  53.313  1.00  0.00     0.068 C 
HETATM   22  C15 UNL     1      28.590   0.176  54.559  1.00  0.00     0.031 C 
HETATM   23  C16 UNL     1      28.642   2.409  53.603  1.00  0.00     0.031 C 
ENDBRANCH  19  21
ENDBRANCH  18  19
ENDBRANCH  10  18
BRANCH   1  24
HETATM   24  O1  UNL     1      23.980  -0.300  53.444  1.00  0.00    -0.355 OA
HETATM   25  C1  UNL     1      23.120  -0.936  54.365  1.00  0.00     0.210 C 
ENDBRANCH   1  24
TORSDOF 8
ENDMDL
MODEL 6
REMARK VINA RESULT:      -6.5      3.424      5.388
REMARK  8 active torsions:
REMARK  status: ('A' for Active; 'I' for Inactive)
REMARK    1  A    between atoms: O1_2  and  C2_3 
REMARK    2  A    between atoms: C6_9  and  N3_10 
REMARK    3  A    between atoms: N3_10  and  C7_11 
REMARK    4  A    between atoms: C7_11  and  C8_12 
REMARK    5  A    between atoms: C8_12  and  C9_13 
REMARK    6  A    between atoms: C12_18  and  C13_19 
REMARK    7  A    between atoms: C13_19  and  N4_20 
REMARK    8  A    between atoms: N4_20  and  C14_21 
ROOT
HETATM    1  C2  UNL     1      21.565   0.758  52.144  1.00  0.00     0.078 A 
HETATM    2  C3  UNL     1      21.421  -0.016  53.277  1.00  0.00     0.070 A 
HETATM    3  C4  UNL     1      22.527  -0.429  53.968  1.00  0.00     0.074 A 
HETATM    4  N1  UNL     1      22.365  -1.191  55.083  1.00  0.00    -0.241 NA
HETATM    5  C5  UNL     1      23.466  -1.592  55.756  1.00  0.00     0.235 A 
HETATM    6  N2  UNL     1      24.711  -1.271  55.374  1.00  0.00    -0.224 NA
HETATM    7  C6  UNL     1      24.933  -0.534  54.301  1.00  0.00     0.137 A 
HETATM    8  C10 UNL     1      23.820  -0.118  53.604  1.00  0.00     0.039 A 
HETATM    9  C11 UNL     1      23.941   0.648  52.482  1.00  0.00     0.029 A 
HETATM   10  C12 UNL     1      22.863   1.093  51.744  1.00  0.00    -0.006 A 
ENDROOT
BRANCH   7  11
HETATM   11  N3  UNL     1      26.274  -0.193  53.896  1.00  0.00    -0.373 N 
HETATM   12  H6  UNL     1      26.710  -0.427  52.985  1.00  0.00     0.161 HD
BRANCH  11  13
HETATM   13  C7  UNL     1      27.087   0.544  54.844  1.00  0.00     0.131 C 
BRANCH  13  14
HETATM   14  C8  UNL     1      28.506   0.177  54.839  1.00  0.00     0.073 C 
BRANCH  14  15
HETATM   15  C9  UNL     1      29.313   0.165  53.803  1.00  0.00     0.230 A 
HETATM   16  F1  UNL     1      29.784  -1.060  53.380  1.00  0.00    -0.282 F 
HETATM   17 CL1  UNL     1      29.935  -1.373  53.233  1.00  0.00    -0.010 Cl
ENDBRANCH  14  15
ENDBRANCH  13  14
ENDBRANCH  11  13
ENDBRANCH   7  11
BRANCH  10  18
HETATM   18  C13 UNL     1      22.932   1.928  50.514  1.00  0.00     0.156 C 
BRANCH  18  19
HETATM   19  N4  UNL     1      22.477   3.259  50.710  1.00  0.00    -0.414 N 
HETATM   20  H13 UNL     1      21.590   3.401  51.191  1.00  0.00     0.153 HD
BRANCH  19  21
HETATM   21  C14 UNL     1      23.476   4.269  50.837  1.00  0.00     0.068 C 
HETATM   22  C15 UNL     1      24.831   3.834  50.319  1.00  0.00     0.031 C 
HETATM   23  C16 UNL     1      23.652   4.571  52.311  1.00  0.00     0.031 C 
ENDBRANCH  19  21
ENDBRANCH  18  19
ENDBRANCH  10  18
BRANCH   1  24
HETATM   24  O1  UNL     1      20.442   1.179  51.439  1.00  0.00    -0.355 OA
HETATM   25  C1  UNL     1      19.319   1.679  52.132  1.00  0.00     0.210 C 
ENDBRANCH   1  24
TORSDOF 8
ENDMDL
MODEL 7
REMARK VINA RESULT:      -6.3      2.220      5.231
REMARK  8 active torsions:
REMARK  status: ('A' for Active; 'I' for Inactive)
REMARK    1  A    between atoms: O1_2  and  C2_3 
REMARK    2  A    between atoms: C6_9  and  N3_10 
REMARK    3  A    between atoms: N3_10  and  C7_11 
REMARK    4  A    between atoms: C7_11  and  C8_12 
REMARK    5  A    between atoms: C8_12  and  C9_13 
REMARK    6  A    between atoms: C12_18  and  C13_19 
REMARK    7  A    between atoms: C13_19  and  N4_20 
REMARK    8  A    between atoms: N4_20  and  C14_21 
ROOT
HETATM    1  C2  UNL     1      26.064   0.622  52.664  1.00  0.00     0.078 A 
HETATM    2  C3  UNL     1      26.830   1.453  51.873  1.00  0.00     0.070 A 
HETATM    3  C4  UNL     1      26.226   2.399  51.089  1.00  0.00     0.074 A 
HETATM    4  N1  UNL     1      26.998   3.209  50.316  1.00  0.00    -0.241 NA
HETATM    5  C5  UNL     1      26.388   4.139  49.548  1.00  0.00     0.235 A 
HETATM    6  N2  UNL     1      25.056   4.298  49.515  1.00  0.00    -0.224 NA
HETATM    7  C6  UNL     1      24.255   3.542  50.243  1.00  0.00     0.137 A 
HETATM    8  C10 UNL     1      24.862   2.590  51.031  1.00  0.00     0.039 A 
HETATM    9  C11 UNL     1      24.123   1.759  51.822  1.00  0.00     0.029 A 
HETATM   10  C12 UNL     1      24.675   0.787  52.631  1.00  0.00    -0.006 A 
ENDROOT
BRANCH   7  11
HETATM   11  N3  UNL     1      22.825   3.719  50.203  1.00  0.00    -0.373 N 
HETATM   12  H6  UNL     1      22.224   3.985  51.004  1.00  0.00     0.161 HD
BRANCH  11  13
HETATM   13  C7  UNL     1      22.165   3.506  48.929  1.00  0.00     0.131 C 
BRANCH  13  14
HETATM   14  C8  UNL     1      22.257   2.133  48.422  1.00  0.00     0.073 C 
BRANCH  14  15
HETATM   15  C9  UNL     1      21.391   1.163  48.610  1.00  0.00     0.230 A 
HETATM   16  F1  UNL     1      21.320   0.610  49.871  1.00  0.00    -0.282 F 
HETATM   17 CL1  UNL     1      21.270   0.433  50.200  1.00  0.00    -0.010 Cl
ENDBRANCH  14  15
ENDBRANCH  13  14
ENDBRANCH  11  13
ENDBRANCH   7  11
BRANCH  10  18
HETATM   18  C13 UNL     1      23.924  -0.148  53.511  1.00  0.00     0.156 C 
BRANCH  18  19
HETATM   19  N4  UNL     1      22.699  -0.593  52.946  1.00  0.00    -0.414 N 
HETATM   20  H13 UNL     1      22.727  -1.070  52.046  1.00  0.00     0.153 HD
BRANCH  19  21
HETATM   21  C14 UNL     1      21.658  -0.941  53.856  1.00  0.00     0.068 C 
HETATM   22  C15 UNL     1      20.812   0.244  54.275  1.00  0.00     0.031 C 
HETATM   23  C16 UNL     1      22.300  -1.482  55.118  1.00  0.00     0.031 C 
ENDBRANCH  19  21
ENDBRANCH  18  19
ENDBRANCH  10  18
BRANCH   1  24
HETATM   24  O1  UNL     1      26.675  -0.341  53.461  1.00  0.00    -0.355 OA
HETATM   25  C1  UNL     1      27.459  -1.354  52.870  1.00  0.00     0.210 C 
ENDBRANCH   1  24
TORSDOF 8
ENDMDL
MODEL 8
REMARK VINA RESULT:      -6.3      1.946      2.174
REMARK  8 active torsions:
REMARK  status: ('A' for Active; 'I' for Inactive)
REMARK    1  A    between atoms: O1_2  and  C2_3 
REMARK    2  A    between atoms: C6_9  and  N3_10 
REMARK    3  A    between atoms: N3_10  and  C7_11 
REMARK    4  A    between atoms: C7_11  and  C8_12 
REMARK    5  A    between atoms: C8_12  and  C9_13 
REMARK    6  A    between atoms: C12_18  and  C13_19 
REMARK    7  A    between atoms: C13_19  and  N4_20 
REMARK    8  A    between atoms: N4_20  and  C14_21 
ROOT
HETATM    1  C2  UNL     1      26.235   0.146  53.297  1.00  0.00     0.078 A 
HETATM    2  C3  UNL     1      25.390  -0.562  54.126  1.00  0.00     0.070 A 
HETATM    3  C4  UNL     1      24.034  -0.439  53.988  1.00  0.00     0.074 A 
HETATM    4  N1  UNL     1      23.218  -1.145  54.815  1.00  0.00    -0.241 NA
HETATM    5  C5  UNL     1      21.881  -1.015  54.667  1.00  0.00     0.235 A 
HETATM    6  N2  UNL     1      21.324  -0.220  53.740  1.00  0.00    -0.224 NA
HETATM    7  C6  UNL     1      22.065   0.490  52.909  1.00  0.00     0.137 A 
HETATM    8  C10 UNL     1      23.429   0.367  53.048  1.00  0.00     0.039 A 
HETATM    9  C11 UNL     1      24.282   1.058  52.237  1.00  0.00     0.029 A 
HETATM   10  C12 UNL     1      25.656   0.975  52.330  1.00  0.00    -0.006 A 
ENDROOT
BRANCH   7  11
HETATM   11  N3  UNL     1      21.460   1.342  51.915  1.00  0.00    -0.373 N 
HETATM   12  H6  UNL     1      21.896   2.180  51.489  1.00  0.00     0.161 HD
BRANCH  11  13
HETATM   13  C7  UNL     1      20.122   0.999  51.472  1.00  0.00     0.131 C 
BRANCH  13  14
HETATM   14  C8  UNL     1      19.909   1.136  50.028  1.00  0.00     0.073 C 
BRANCH  14  15
HETATM   15  C9  UNL     1      20.585   1.899  49.200  1.00  0.00     0.230 A 
HETATM   16  F1  UNL     1      21.605   1.310  48.483  1.00  0.00    -0.282 F 
HETATM   17 CL1  UNL     1      21.891   1.189  48.269  1.00  0.00    -0.010 Cl
ENDBRANCH  14  15
ENDBRANCH  13  14
ENDBRANCH  11  13
ENDBRANCH   7  11
BRANCH  10  18
HETATM   18  C13 UNL     1      26.635   1.703  51.478  1.00  0.00     0.156 C 
BRANCH  18  19
HETATM   19  N4  UNL     1      26.199   3.001  51.101  1.00  0.00    -0.414 N 
HETATM   20  H13 UNL     1      26.444   3.787  51.702  1.00  0.00     0.153 HD
BRANCH  19  21
HETATM   21  C14 UNL     1      26.043   3.249  49.706  1.00  0.00     0.068 C 
HETATM   22  C15 UNL     1      26.943   4.356  49.195  1.00  0.00     0.031 C 
HETATM   23  C16 UNL     1      24.618   3.705  49.467  1.00  0.00     0.031 C 
ENDBRANCH  19  21
ENDBRANCH  18  19
ENDBRANCH  10  18
BRANCH   1  24
HETATM   24  O1  UNL     1      27.614   0.023  53.436  1.00  0.00    -0.355 OA
HETATM   25  C1  UNL     1      28.211   0.156  54.707  1.00  0.00     0.210 C 
ENDBRANCH   1  24
TORSDOF 8
ENDMDL
MODEL 9
REMARK VINA RESULT:      -6.3      3.353      5.383
REMARK  8 active torsions:
REMARK  status: ('A' for Active; 'I' for Inactive)
REMARK    1  A    between atoms: O1_2  and  C2_3 
REMARK    2  A    between atoms: C6_9  and  N3_10 
REMARK    3  A    between atoms: N3_10  and  C7_11 
REMARK    4  A    between atoms: C7_11  and  C8_12 
REMARK    5  A    between atoms: C8_12  and  C9_13 
REMARK    6  A    between atoms: C12_18  and  C13_19 
REMARK    7  A    between atoms: C13_19  and  N4_20 
REMARK    8  A    between atoms: N4_20  and  C14_21 
ROOT
HETATM    1  C2  UNL     1      23.010   2.939  51.965  1.00  0.00     0.078 A 
HETATM    2  C3  UNL     1      22.790   1.770  52.664  1.00  0.00     0.070 A 
HETATM    3  C4  UNL     1      23.845   0.971  53.010  1.00  0.00     0.074 A 
HETATM    4  N1  UNL     1      23.608  -0.177  53.699  1.00  0.00    -0.241 NA
HETATM    5  C5  UNL     1      24.660  -0.957  54.034  1.00  0.00     0.235 A 
HETATM    6  N2  UNL     1      25.926  -0.648  53.717  1.00  0.00    -0.224 NA
HETATM    7  C6  UNL     1      26.220   0.453  53.050  1.00  0.00     0.137 A 
HETATM    8  C10 UNL     1      25.158   1.257  52.701  1.00  0.00     0.039 A 
HETATM    9  C11 UNL     1      25.354   2.417  52.010  1.00  0.00     0.029 A 
HETATM   10  C12 UNL     1      24.330   3.263  51.634  1.00  0.00    -0.006 A 
ENDROOT
BRANCH   7  11
HETATM   11  N3  UNL     1      27.583   0.779  52.713  1.00  0.00    -0.373 N 
HETATM   12  H6  UNL     1      27.975   0.830  51.755  1.00  0.00     0.161 HD
BRANCH  11  13
HETATM   13  C7  UNL     1      28.489   1.060  53.810  1.00  0.00     0.131 C 
BRANCH  13  14
HETATM   14  C8  UNL     1      29.255  -0.100  54.275  1.00  0.00     0.073 C 
BRANCH  14  15
HETATM   15  C9  UNL     1      29.879  -0.984  53.530  1.00  0.00     0.230 A 
HETATM   16  F1  UNL     1      29.230  -2.174  53.280  1.00  0.00    -0.282 F 
HETATM   17 CL1  UNL     1      29.088  -2.511  53.189  1.00  0.00    -0.010 Cl
ENDBRANCH  14  15
ENDBRANCH  13  14
ENDBRANCH  11  13
ENDBRANCH   7  11
BRANCH  10  18
HETATM   18  C13 UNL     1      24.481   4.537  50.881  1.00  0.00     0.156 C 
BRANCH  18  19
HETATM   19  N4  UNL     1      25.808   4.774  50.434  1.00  0.00    -0.414 N 
HETATM   20  H13 UNL     1      26.446   3.981  50.374  1.00  0.00     0.153 HD
BRANCH  19  21
HETATM   21  C14 UNL     1      25.999   5.857  49.527  1.00  0.00     0.068 C 
HETATM   22  C15 UNL     1      24.801   6.104  48.634  1.00  0.00     0.031 C 
HETATM   23  C16 UNL     1      27.155   5.504  48.613  1.00  0.00     0.031 C 
ENDBRANCH  19  21
ENDBRANCH  18  19
ENDBRANCH  10  18
BRANCH   1  24
HETATM   24  O1  UNL     1      21.938   3.754  51.612  1.00  0.00    -0.355 OA
HETATM   25  C1  UNL     1      20.682   3.575  52.229  1.00  0.00     0.210 C 
ENDBRANCH   1  24
TORSDOF 8
ENDMDL
