MODEL 1
REMARK VINA RESULT:      -8.0      0.000      0.000
REMARK  5 active torsions:
REMARK  status: ('A' for Active; 'I' for Inactive)
REMARK    1  A    between atoms: C1_2  and  C2_3 
REMARK    2  A    between atoms: C2_3  and  N1_4 
REMARK    3  A    between atoms: N1_4  and  C3_5 
REMARK    4  A    between atoms: C6_8  and  N2_9 
REMARK    5  A    between atoms: N2_9  and  C7_10 
ROOT
HETATM    1  C3  UNL     1      24.526  -0.251  53.460  1.00  0.00     0.124 A 
HETATM    2  C4  UNL     1      25.202   0.596  52.609  1.00  0.00     0.068 A 
HETATM    3  C5  UNL     1      26.415   1.187  52.884  1.00  0.00     0.044 A 
HETATM    4  C6  UNL     1      27.068   2.031  52.013  1.00  0.00     0.142 A 
HETATM    5  N3  UNL     1      28.222   2.471  52.515  1.00  0.00    -0.224 NA
HETATM    6  C13 UNL     1      28.759   2.194  53.685  1.00  0.00     0.236 A 
HETATM    7  N4  UNL     1      28.085   1.354  54.523  1.00  0.00    -0.240 NA
HETATM    8  C14 UNL     1      26.897   0.840  54.126  1.00  0.00     0.089 A 
HETATM    9  C15 UNL     1      26.241  -0.002  54.994  1.00  0.00     0.151 A 
HETATM   10  N5  UNL     1      25.061  -0.539  54.650  1.00  0.00    -0.241 NA
ENDROOT
BRANCH   4  11
HETATM   11  N2  UNL     1      26.508   2.335  50.752  1.00  0.00    -0.340 N 
HETATM   12  H6  UNL     1      26.228   1.578  50.102  1.00  0.00     0.167 HD
BRANCH  11  13
HETATM   13  C7  UNL     1      26.258   3.600  50.214  1.00  0.00     0.035 A 
HETATM   14  C8  UNL     1      27.024   4.160  49.244  1.00  0.00     0.032 A 
HETATM   15  C9  UNL     1      26.787   5.410  48.698  1.00  0.00     0.046 A 
HETATM   16  C10 UNL     1      25.728   6.179  49.123  1.00  0.00     0.138 A 
HETATM   17  F1  UNL     1      25.417   7.402  48.656  1.00  0.00    -0.204 F 
HETATM   18  C11 UNL     1      24.929   5.651  50.103  1.00  0.00     0.074 A 
HETATM   19 CL1  UNL     1      23.560   6.558  50.705  1.00  0.00    -0.081 Cl
HETATM   20  C12 UNL     1      25.209   4.404  50.611  1.00  0.00     0.056 A 
ENDBRANCH  11  13
ENDBRANCH   4  11
BRANCH   1  21
HETATM   21  N1  UNL     1      23.274  -0.827  53.109  1.00  0.00    -0.368 N 
HETATM   22  H4  UNL     1      23.275  -1.699  52.502  1.00  0.00     0.161 HD
BRANCH  21  23
HETATM   23  C2  UNL     1      22.036  -0.257  53.551  1.00  0.00     0.190 C 
BRANCH  23  24
HETATM   24  C1  UNL     1      21.406  -1.165  54.574  1.00  0.00     0.250 C 
HETATM   25  O1  UNL     1      21.873  -2.068  55.205  1.00  0.00    -0.305 OA
ENDBRANCH  23  24
ENDBRANCH  21  23
ENDBRANCH   1  21
TORSDOF 5
ENDMDL
MODEL 2
REMARK VINA RESULT:      -7.9      3.692      5.544
REMARK  5 active torsions:
REMARK  status: ('A' for Active; 'I' for Inactive)
REMARK    1  A    between atoms: C1_2  and  C2_3 
REMARK    2  A    between atoms: C2_3  and  N1_4 
REMARK    3  A    between atoms: N1_4  and  C3_5 
REMARK    4  A    between atoms: C6_8  and  N2_9 
REMARK    5  A    between atoms: N2_9  and  C7_10 
ROOT
HETATM    1  C3  UNL     1      22.188   0.789  51.750  1.00  0.00     0.124 A 
HETATM    2  C4  UNL     1      23.406   1.358  52.055  1.00  0.00     0.068 A 
HETATM    3  C5  UNL     1      24.089   2.238  51.246  1.00  0.00     0.044 A 
HETATM    4  C6  UNL     1      25.306   2.792  51.579  1.00  0.00     0.142 A 
HETATM    5  N3  UNL     1      25.758   3.610  50.628  1.00  0.00    -0.224 NA
HETATM    6  C13 UNL     1      25.190   3.918  49.481  1.00  0.00     0.236 A 
HETATM    7  N4  UNL     1      23.983   3.351  49.184  1.00  0.00    -0.240 NA
HETATM    8  C14 UNL     1      23.419   2.499  50.072  1.00  0.00     0.089 A 
HETATM    9  C15 UNL     1      22.205   1.944  49.744  1.00  0.00     0.151 A 
HETATM   10  N5  UNL     1      21.602   1.093  50.589  1.00  0.00    -0.241 NA
ENDROOT
BRANCH   4  11
HETATM   11  N2  UNL     1      25.928   2.475  52.807  1.00  0.00    -0.340 N 
HETATM   12  H6  UNL     1      25.655   2.966  53.678  1.00  0.00     0.167 HD
BRANCH  11  13
HETATM   13  C7  UNL     1      26.931   1.530  53.035  1.00  0.00     0.035 A 
HETATM   14  C8  UNL     1      28.153   1.849  53.534  1.00  0.00     0.032 A 
HETATM   15  C9  UNL     1      29.155   0.924  53.769  1.00  0.00     0.046 A 
HETATM   16  C10 UNL     1      28.963  -0.412  53.501  1.00  0.00     0.138 A 
HETATM   17  F1  UNL     1      29.874  -1.385  53.695  1.00  0.00    -0.204 F 
HETATM   18  C11 UNL     1      27.743  -0.777  52.996  1.00  0.00     0.074 A 
HETATM   19 CL1  UNL     1      27.410  -2.454  52.625  1.00  0.00    -0.081 Cl
HETATM   20  C12 UNL     1      26.782   0.183  52.780  1.00  0.00     0.056 A 
ENDBRANCH  11  13
ENDBRANCH   4  11
BRANCH   1  21
HETATM   21  N1  UNL     1      21.538  -0.115  52.635  1.00  0.00    -0.368 N 
HETATM   22  H4  UNL     1      20.936  -0.883  52.217  1.00  0.00     0.161 HD
BRANCH  21  23
HETATM   23  C2  UNL     1      21.681  -0.004  54.057  1.00  0.00     0.190 C 
BRANCH  23  24
HETATM   24  C1  UNL     1      21.805  -1.380  54.655  1.00  0.00     0.250 C 
HETATM   25  O1  UNL     1      22.510  -1.787  55.532  1.00  0.00    -0.305 OA
ENDBRANCH  23  24
ENDBRANCH  21  23
ENDBRANCH   1  21
TORSDOF 5
ENDMDL
MODEL 3
REMARK VINA RESULT:      -7.8      2.767      4.875
REMARK  5 active torsions:
REMARK  status: ('A' for Active; 'I' for Inactive)
REMARK    1  A    between atoms: C1_2  and  C2_3 
REMARK    2  A    between atoms: C2_3  and  N1_4 
REMARK    3  A    between atoms: N1_4  and  C3_5 
REMARK    4  A    between atoms: C6_8  and  N2_9 
REMARK    5  A    between atoms: N2_9  and  C7_10 
ROOT
HETATM    1  C3  UNL     1      25.592  -0.545  54.487  1.00  0.00     0.124 A 
HETATM    2  C4  UNL     1      24.695  -0.078  53.551  1.00  0.00     0.068 A 
HETATM    3  C5  UNL     1      23.330  -0.248  53.614  1.00  0.00     0.044 A 
HETATM    4  C6  UNL     1      22.457   0.231  52.663  1.00  0.00     0.142 A 
HETATM    5  N3  UNL     1      21.190  -0.066  52.954  1.00  0.00    -0.224 NA
HETATM    6  C13 UNL     1      20.727  -0.728  53.993  1.00  0.00     0.236 A 
HETATM    7  N4  UNL     1      21.621  -1.189  54.917  1.00  0.00    -0.240 NA
HETATM    8  C14 UNL     1      22.941  -0.950  54.733  1.00  0.00     0.089 A 
HETATM    9  C15 UNL     1      23.816  -1.428  55.680  1.00  0.00     0.151 A 
HETATM   10  N5  UNL     1      25.135  -1.219  55.546  1.00  0.00    -0.241 NA
ENDROOT
BRANCH   4  11
HETATM   11  N2  UNL     1      22.936   0.947  51.544  1.00  0.00    -0.340 N 
HETATM   12  H6  UNL     1      23.075   0.472  50.633  1.00  0.00     0.167 HD
BRANCH  11  13
HETATM   13  C7  UNL     1      23.277   2.301  51.480  1.00  0.00     0.035 A 
HETATM   14  C8  UNL     1      22.749   3.240  52.304  1.00  0.00     0.032 A 
HETATM   15  C9  UNL     1      23.078   4.584  52.255  1.00  0.00     0.046 A 
HETATM   16  C10 UNL     1      23.989   5.056  51.338  1.00  0.00     0.138 A 
HETATM   17  F1  UNL     1      24.373   6.340  51.212  1.00  0.00    -0.204 F 
HETATM   18  C11 UNL     1      24.546   4.140  50.485  1.00  0.00     0.074 A 
HETATM   19 CL1  UNL     1      25.712   4.651  49.285  1.00  0.00    -0.081 Cl
HETATM   20  C12 UNL     1      24.182   2.816  50.576  1.00  0.00     0.056 A 
ENDBRANCH  11  13
ENDBRANCH   4  11
BRANCH   1  21
HETATM   21  N1  UNL     1      26.992  -0.332  54.357  1.00  0.00    -0.368 N 
HETATM   22  H4  UNL     1      27.651  -1.087  54.711  1.00  0.00     0.161 HD
BRANCH  21  23
HETATM   23  C2  UNL     1      27.517   0.865  53.768  1.00  0.00     0.190 C 
BRANCH  23  24
HETATM   24  C1  UNL     1      28.847   1.187  54.394  1.00  0.00     0.250 C 
HETATM   25  O1  UNL     1      29.297   2.230  54.773  1.00  0.00    -0.305 OA
ENDBRANCH  23  24
ENDBRANCH  21  23
ENDBRANCH   1  21
TORSDOF 5
ENDMDL
MODEL 4
REMARK VINA RESULT:      -7.5      2.267      3.190
REMARK  5 active torsions:
REMARK  status: ('A' for Active; 'I' for Inactive)
REMARK    1  A    between atoms: C1_2  and  C2_3 
REMARK    2  A    between atoms: C2_3  and  N1_4 
REMARK    3  A    between atoms: N1_4  and  C3_5 
REMARK    4  A    between atoms: C6_8  and  N2_9 
REMARK    5  A    between atoms: N2_9  and  C7_10 
ROOT
HETATM    1  C3  UNL     1      21.669  -0.816  54.407  1.00  0.00     0.124 A 
HETATM    2  C4  UNL     1      22.484  -0.120  53.540  1.00  0.00     0.068 A 
HETATM    3  C5  UNL     1      23.859  -0.092  53.602  1.00  0.00     0.044 A 
HETATM    4  C6  UNL     1      24.649   0.613  52.721  1.00  0.00     0.142 A 
HETATM    5  N3  UNL     1      25.947   0.477  52.995  1.00  0.00    -0.224 NA
HETATM    6  C13 UNL     1      26.506  -0.219  53.963  1.00  0.00     0.236 A 
HETATM    7  N4  UNL     1      25.693  -0.906  54.818  1.00  0.00    -0.240 NA
HETATM    8  C14 UNL     1      24.352  -0.848  54.643  1.00  0.00     0.089 A 
HETATM    9  C15 UNL     1      23.560  -1.549  55.521  1.00  0.00     0.151 A 
HETATM   10  N5  UNL     1      22.225  -1.525  55.392  1.00  0.00    -0.241 NA
ENDROOT
BRANCH   4  11
HETATM   11  N2  UNL     1      24.066   1.362  51.675  1.00  0.00    -0.340 N 
HETATM   12  H6  UNL     1      23.601   0.885  50.880  1.00  0.00     0.167 HD
BRANCH  11  13
HETATM   13  C7  UNL     1      24.022   2.752  51.544  1.00  0.00     0.035 A 
HETATM   14  C8  UNL     1      23.420   3.565  52.448  1.00  0.00     0.032 A 
HETATM   15  C9  UNL     1      23.372   4.944  52.333  1.00  0.00     0.046 A 
HETATM   16  C10 UNL     1      23.949   5.587  51.262  1.00  0.00     0.138 A 
HETATM   17  F1  UNL     1      23.955   6.918  51.062  1.00  0.00    -0.204 F 
HETATM   18  C11 UNL     1      24.568   4.802  50.325  1.00  0.00     0.074 A 
HETATM   19 CL1  UNL     1      25.329   5.532  48.929  1.00  0.00    -0.081 Cl
HETATM   20  C12 UNL     1      24.587   3.436  50.487  1.00  0.00     0.056 A 
ENDBRANCH  11  13
ENDBRANCH   4  11
BRANCH   1  21
HETATM   21  N1  UNL     1      20.252  -0.798  54.282  1.00  0.00    -0.368 N 
HETATM   22  H4  UNL     1      19.672  -1.145  55.101  1.00  0.00     0.161 HD
BRANCH  21  23
HETATM   23  C2  UNL     1      19.611  -0.329  53.090  1.00  0.00     0.190 C 
BRANCH  23  24
HETATM   24  C1  UNL     1      18.249  -0.961  52.975  1.00  0.00     0.250 C 
HETATM   25  O1  UNL     1      17.740  -1.835  53.616  1.00  0.00    -0.305 OA
ENDBRANCH  23  24
ENDBRANCH  21  23
ENDBRANCH   1  21
TORSDOF 5
ENDMDL
MODEL 5
REMARK VINA RESULT:      -7.3      4.390      6.276
REMARK  5 active torsions:
REMARK  status: ('A' for Active; 'I' for Inactive)
REMARK    1  A    between atoms: C1_2  and  C2_3 
REMARK    2  A    between atoms: C2_3  and  N1_4 
REMARK    3  A    between atoms: N1_4  and  C3_5 
REMARK    4  A    between atoms: C6_8  and  N2_9 
REMARK    5  A    between atoms: N2_9  and  C7_10 
ROOT
HETATM    1  C3  UNL     1      21.131   0.550  51.706  1.00  0.00     0.124 A 
HETATM    2  C4  UNL     1      22.433   0.354  52.113  1.00  0.00     0.068 A 
HETATM    3  C5  UNL     1      22.808  -0.245  53.295  1.00  0.00     0.044 A 
HETATM    4  C6  UNL     1      24.119  -0.428  53.676  1.00  0.00     0.142 A 
HETATM    5  N3  UNL     1      24.214  -1.031  54.861  1.00  0.00    -0.224 NA
HETATM    6  C13 UNL     1      23.240  -1.440  55.648  1.00  0.00     0.236 A 
HETATM    7  N4  UNL     1      21.953  -1.242  55.239  1.00  0.00    -0.240 NA
HETATM    8  C14 UNL     1      21.724  -0.638  54.049  1.00  0.00     0.089 A 
HETATM    9  C15 UNL     1      20.417  -0.453  53.665  1.00  0.00     0.151 A 
HETATM   10  N5  UNL     1      20.135   0.141  52.495  1.00  0.00    -0.241 NA
ENDROOT
BRANCH   4  11
HETATM   11  N2  UNL     1      25.175   0.000  52.843  1.00  0.00    -0.340 N 
HETATM   12  H6  UNL     1      24.978   0.477  51.943  1.00  0.00     0.167 HD
BRANCH  11  13
HETATM   13  C7  UNL     1      26.548  -0.135  53.069  1.00  0.00     0.035 A 
HETATM   14  C8  UNL     1      27.228  -1.287  52.843  1.00  0.00     0.032 A 
HETATM   15  C9  UNL     1      28.588  -1.435  53.059  1.00  0.00     0.046 A 
HETATM   16  C10 UNL     1      29.348  -0.389  53.530  1.00  0.00     0.138 A 
HETATM   17  F1  UNL     1      30.672  -0.434  53.771  1.00  0.00    -0.204 F 
HETATM   18  C11 UNL     1      28.699   0.794  53.771  1.00  0.00     0.074 A 
HETATM   19 CL1  UNL     1      29.585   2.177  54.372  1.00  0.00    -0.081 Cl
HETATM   20  C12 UNL     1      27.346   0.886  53.540  1.00  0.00     0.056 A 
ENDBRANCH  11  13
ENDBRANCH   4  11
BRANCH   1  21
HETATM   21  N1  UNL     1      20.818   1.179  50.469  1.00  0.00    -0.368 N 
HETATM   22  H4  UNL     1      19.804   1.188  50.153  1.00  0.00     0.161 HD
BRANCH  21  23
HETATM   23  C2  UNL     1      21.833   1.786  49.659  1.00  0.00     0.190 C 
BRANCH  23  24
HETATM   24  C1  UNL     1      21.893   3.260  49.957  1.00  0.00     0.250 C 
HETATM   25  O1  UNL     1      21.145   4.146  49.659  1.00  0.00    -0.305 OA
ENDBRANCH  23  24
ENDBRANCH  21  23
ENDBRANCH   1  21
TORSDOF 5
ENDMDL
MODEL 6
REMARK VINA RESULT:      -7.2      4.167      6.688
REMARK  5 active torsions:
REMARK  status: ('A' for Active; 'I' for Inactive)
REMARK    1  A    between atoms: C1_2  and  C2_3 
REMARK    2  A    between atoms: C2_3  and  N1_4 
REMARK    3  A    between atoms: N1_4  and  C3_5 
REMARK    4  A    between atoms: C6_8  and  N2_9 
REMARK    5  A    between atoms: N2_9  and  C7_10 
ROOT
HETATM    1  C3  UNL     1      26.257   2.181  53.017  1.00  0.00     0.124 A 
HETATM    2  C4  UNL     1      24.920   2.416  52.775  1.00  0.00     0.068 A 
HETATM    3  C5  UNL     1      24.398   2.829  51.570  1.00  0.00     0.044 A 
HETATM    4  C6  UNL     1      23.056   3.056  51.357  1.00  0.00     0.142 A 
HETATM    5  N3  UNL     1      22.808   3.449  50.108  1.00  0.00    -0.224 NA
HETATM    6  C13 UNL     1      23.666   3.628  49.125  1.00  0.00     0.236 A 
HETATM    7  N4  UNL     1      24.988   3.393  49.371  1.00  0.00    -0.240 NA
HETATM    8  C14 UNL     1      25.368   2.988  50.606  1.00  0.00     0.089 A 
HETATM    9  C15 UNL     1      26.706   2.761  50.822  1.00  0.00     0.151 A 
HETATM   10  N5  UNL     1      27.136   2.359  52.028  1.00  0.00    -0.241 NA
ENDROOT
BRANCH   4  11
HETATM   11  N2  UNL     1      22.121   2.866  52.399  1.00  0.00    -0.340 N 
HETATM   12  H6  UNL     1      22.017   3.573  53.150  1.00  0.00     0.167 HD
BRANCH  11  13
HETATM   13  C7  UNL     1      21.255   1.785  52.580  1.00  0.00     0.035 A 
HETATM   14  C8  UNL     1      20.031   1.708  51.999  1.00  0.00     0.032 A 
HETATM   15  C9  UNL     1      19.163   0.642  52.166  1.00  0.00     0.046 A 
HETATM   16  C10 UNL     1      19.504  -0.432  52.955  1.00  0.00     0.138 A 
HETATM   17  F1  UNL     1      18.731  -1.511  53.179  1.00  0.00    -0.204 F 
HETATM   18  C11 UNL     1      20.732  -0.394  53.561  1.00  0.00     0.074 A 
HETATM   19 CL1  UNL     1      21.250  -1.716  54.584  1.00  0.00    -0.081 Cl
HETATM   20  C12 UNL     1      21.556   0.689  53.362  1.00  0.00     0.056 A 
ENDBRANCH  11  13
ENDBRANCH   4  11
BRANCH   1  21
HETATM   21  N1  UNL     1      26.725   1.755  54.290  1.00  0.00    -0.368 N 
HETATM   22  H4  UNL     1      26.942   2.497  55.020  1.00  0.00     0.161 HD
BRANCH  21  23
HETATM   23  C2  UNL     1      26.907   0.367  54.597  1.00  0.00     0.190 C 
BRANCH  23  24
HETATM   24  C1  UNL     1      28.367   0.099  54.850  1.00  0.00     0.250 C 
HETATM   25  O1  UNL     1      29.335   0.397  54.212  1.00  0.00    -0.305 OA
ENDBRANCH  23  24
ENDBRANCH  21  23
ENDBRANCH   1  21
TORSDOF 5
ENDMDL
MODEL 7
REMARK VINA RESULT:      -6.9      4.561      7.536
REMARK  5 active torsions:
REMARK  status: ('A' for Active; 'I' for Inactive)
REMARK    1  A    between atoms: C1_2  and  C2_3 
REMARK    2  A    between atoms: C2_3  and  N1_4 
REMARK    3  A    between atoms: N1_4  and  C3_5 
REMARK    4  A    between atoms: C6_8  and  N2_9 
REMARK    5  A    between atoms: N2_9  and  C7_10 
ROOT
HETATM    1  C3  UNL     1      25.736   5.915  49.879  1.00  0.00     0.124 A 
HETATM    2  C4  UNL     1      25.327   4.677  50.324  1.00  0.00     0.068 A 
HETATM    3  C5  UNL     1      24.127   4.421  50.951  1.00  0.00     0.044 A 
HETATM    4  C6  UNL     1      23.745   3.171  51.385  1.00  0.00     0.142 A 
HETATM    5  N3  UNL     1      22.542   3.189  51.959  1.00  0.00    -0.224 NA
HETATM    6  C13 UNL     1      21.739   4.218  52.138  1.00  0.00     0.236 A 
HETATM    7  N4  UNL     1      22.151   5.442  51.695  1.00  0.00    -0.240 NA
HETATM    8  C14 UNL     1      23.358   5.554  51.092  1.00  0.00     0.089 A 
HETATM    9  C15 UNL     1      23.744   6.800  50.658  1.00  0.00     0.151 A 
HETATM   10  N5  UNL     1      24.932   6.967  50.054  1.00  0.00    -0.241 NA
ENDROOT
BRANCH   4  11
HETATM   11  N2  UNL     1      24.591   2.056  51.199  1.00  0.00    -0.340 N 
HETATM   12  H6  UNL     1      24.613   1.556  50.290  1.00  0.00     0.167 HD
BRANCH  11  13
HETATM   13  C7  UNL     1      25.464   1.484  52.127  1.00  0.00     0.035 A 
HETATM   14  C8  UNL     1      25.246   0.277  52.708  1.00  0.00     0.032 A 
HETATM   15  C9  UNL     1      26.104  -0.304  53.627  1.00  0.00     0.046 A 
HETATM   16  C10 UNL     1      27.262   0.330  54.013  1.00  0.00     0.138 A 
HETATM   17  F1  UNL     1      28.157  -0.151  54.897  1.00  0.00    -0.204 F 
HETATM   18  C11 UNL     1      27.521   1.552  53.450  1.00  0.00     0.074 A 
HETATM   19 CL1  UNL     1      28.970   2.432  53.883  1.00  0.00    -0.081 Cl
HETATM   20  C12 UNL     1      26.634   2.085  52.543  1.00  0.00     0.056 A 
ENDBRANCH  11  13
ENDBRANCH   4  11
BRANCH   1  21
HETATM   21  N1  UNL     1      26.991   6.106  49.239  1.00  0.00    -0.368 N 
HETATM   22  H4  UNL     1      27.404   7.084  49.223  1.00  0.00     0.161 HD
BRANCH  21  23
HETATM   23  C2  UNL     1      27.693   5.017  48.626  1.00  0.00     0.190 C 
BRANCH  23  24
HETATM   24  C1  UNL     1      29.051   5.488  48.178  1.00  0.00     0.250 C 
HETATM   25  O1  UNL     1      29.388   6.514  47.662  1.00  0.00    -0.305 OA
ENDBRANCH  23  24
ENDBRANCH  21  23
ENDBRANCH   1  21
TORSDOF 5
ENDMDL
MODEL 8
REMARK VINA RESULT:      -6.9      4.097      6.892
REMARK  5 active torsions:
REMARK  status: ('A' for Active; 'I' for Inactive)
REMARK    1  A    between atoms: C1_2  and  C2_3 
REMARK    2  A    between atoms: C2_3  and  N1_4 
REMARK    3  A    between atoms: N1_4  and  C3_5 
REMARK    4  A    between atoms: C6_8  and  N2_9 
REMARK    5  A    between atoms: N2_9  and  C7_10 
ROOT
HETATM    1  C3  UNL     1      26.783   2.544  51.672  1.00  0.00     0.124 A 
HETATM    2  C4  UNL     1      25.613   1.883  51.974  1.00  0.00     0.068 A 
HETATM    3  C5  UNL     1      25.478   0.930  52.959  1.00  0.00     0.044 A 
HETATM    4  C6  UNL     1      24.294   0.285  53.241  1.00  0.00     0.142 A 
HETATM    5  N3  UNL     1      24.427  -0.591  54.236  1.00  0.00    -0.224 NA
HETATM    6  C13 UNL     1      25.510  -0.879  54.929  1.00  0.00     0.236 A 
HETATM    7  N4  UNL     1      26.666  -0.220  54.624  1.00  0.00    -0.240 NA
HETATM    8  C14 UNL     1      26.659   0.697  53.628  1.00  0.00     0.089 A 
HETATM    9  C15 UNL     1      27.839   1.343  53.344  1.00  0.00     0.151 A 
HETATM   10  N5  UNL     1      27.888   2.261  52.366  1.00  0.00    -0.241 NA
ENDROOT
BRANCH   4  11
HETATM   11  N2  UNL     1      23.123   0.583  52.510  1.00  0.00    -0.340 N 
HETATM   12  H6  UNL     1      23.154   1.235  51.705  1.00  0.00     0.167 HD
BRANCH  11  13
HETATM   13  C7  UNL     1      21.832   0.094  52.731  1.00  0.00     0.035 A 
HETATM   14  C8  UNL     1      21.515  -0.726  53.765  1.00  0.00     0.032 A 
HETATM   15  C9  UNL     1      20.242  -1.216  53.998  1.00  0.00     0.046 A 
HETATM   16  C10 UNL     1      19.194  -0.889  53.169  1.00  0.00     0.138 A 
HETATM   17  F1  UNL     1      17.924  -1.313  53.312  1.00  0.00    -0.204 F 
HETATM   18  C11 UNL     1      19.471  -0.062  52.112  1.00  0.00     0.074 A 
HETATM   19 CL1  UNL     1      18.200   0.407  51.005  1.00  0.00    -0.081 Cl
HETATM   20  C12 UNL     1      20.755   0.396  51.925  1.00  0.00     0.056 A 
ENDBRANCH  11  13
ENDBRANCH   4  11
BRANCH   1  21
HETATM   21  N1  UNL     1      26.848   3.519  50.638  1.00  0.00    -0.368 N 
HETATM   22  H4  UNL     1      27.803   3.775  50.248  1.00  0.00     0.161 HD
BRANCH  21  23
HETATM   23  C2  UNL     1      25.668   4.149  50.126  1.00  0.00     0.190 C 
BRANCH  23  24
HETATM   24  C1  UNL     1      26.053   5.136  49.056  1.00  0.00     0.250 C 
HETATM   25  O1  UNL     1      27.127   5.423  48.612  1.00  0.00    -0.305 OA
ENDBRANCH  23  24
ENDBRANCH  21  23
ENDBRANCH   1  21
TORSDOF 5
ENDMDL
MODEL 9
REMARK VINA RESULT:      -6.8      3.392      5.297
REMARK  5 active torsions:
REMARK  status: ('A' for Active; 'I' for Inactive)
REMARK    1  A    between atoms: C1_2  and  C2_3 
REMARK    2  A    between atoms: C2_3  and  N1_4 
REMARK    3  A    between atoms: N1_4  and  C3_5 
REMARK    4  A    between atoms: C6_8  and  N2_9 
REMARK    5  A    between atoms: N2_9  and  C7_10 
ROOT
HETATM    1  C3  UNL     1      25.097   0.232  53.763  1.00  0.00     0.124 A 
HETATM    2  C4  UNL     1      24.076   0.944  53.172  1.00  0.00     0.068 A 
HETATM    3  C5  UNL     1      22.735   0.664  53.316  1.00  0.00     0.044 A 
HETATM    4  C6  UNL     1      21.735   1.395  52.713  1.00  0.00     0.142 A 
HETATM    5  N3  UNL     1      20.524   0.922  53.009  1.00  0.00    -0.224 NA
HETATM    6  C13 UNL     1      20.215  -0.107  53.771  1.00  0.00     0.236 A 
HETATM    7  N4  UNL     1      21.232  -0.808  54.353  1.00  0.00    -0.240 NA
HETATM    8  C14 UNL     1      22.511  -0.424  54.129  1.00  0.00     0.089 A 
HETATM    9  C15 UNL     1      23.512  -1.151  54.728  1.00  0.00     0.151 A 
HETATM   10  N5  UNL     1      24.797  -0.813  54.538  1.00  0.00    -0.241 NA
ENDROOT
BRANCH   4  11
HETATM   11  N2  UNL     1      22.047   2.503  51.895  1.00  0.00    -0.340 N 
HETATM   12  H6  UNL     1      22.267   3.425  52.317  1.00  0.00     0.167 HD
BRANCH  11  13
HETATM   13  C7  UNL     1      22.108   2.543  50.500  1.00  0.00     0.035 A 
HETATM   14  C8  UNL     1      21.889   1.458  49.715  1.00  0.00     0.032 A 
HETATM   15  C9  UNL     1      21.942   1.483  48.332  1.00  0.00     0.046 A 
HETATM   16  C10 UNL     1      22.229   2.646  47.655  1.00  0.00     0.138 A 
HETATM   17  F1  UNL     1      22.304   2.771  46.317  1.00  0.00    -0.204 F 
HETATM   18  C11 UNL     1      22.457   3.766  48.411  1.00  0.00     0.074 A 
HETATM   19 CL1  UNL     1      22.830   5.289  47.635  1.00  0.00    -0.081 Cl
HETATM   20  C12 UNL     1      22.393   3.686  49.782  1.00  0.00     0.056 A 
ENDBRANCH  11  13
ENDBRANCH   4  11
BRANCH   1  21
HETATM   21  N1  UNL     1      26.463   0.578  53.570  1.00  0.00    -0.368 N 
HETATM   22  H4  UNL     1      26.737   1.053  52.660  1.00  0.00     0.161 HD
BRANCH  21  23
HETATM   23  C2  UNL     1      27.455   0.300  54.565  1.00  0.00     0.190 C 
BRANCH  23  24
HETATM   24  C1  UNL     1      28.640   1.206  54.355  1.00  0.00     0.250 C 
HETATM   25  O1  UNL     1      28.711   2.400  54.321  1.00  0.00    -0.305 OA
ENDBRANCH  23  24
ENDBRANCH  21  23
ENDBRANCH   1  21
TORSDOF 5
ENDMDL
