MODEL 1
REMARK VINA RESULT:      -7.3      0.000      0.000
REMARK  7 active torsions:
REMARK  status: ('A' for Active; 'I' for Inactive)
REMARK    1  A    between atoms: C2_2  and  N1_3 
REMARK    2  A    between atoms: N1_3  and  C4_5 
REMARK    3  A    between atoms: C4_5  and  C5_6 
REMARK    4  A    between atoms: C5_6  and  O1_7 
REMARK    5  A    between atoms: O1_7  and  C6_8 
REMARK    6  A    between atoms: C6_8  and  C7_9 
REMARK    7  A    between atoms: C7_9  and  C8_10 
ROOT
HETATM    1  C8  UNL     1      24.504   2.725  52.332  1.00  0.00     0.148 C 
HETATM    2  C9  UNL     1      25.835   2.483  51.763  1.00  0.00     0.011 C 
HETATM    3  C10 UNL     1      25.853   2.980  50.517  1.00  0.00    -0.041 C 
HETATM    4  C11 UNL     1      26.791   3.121  49.345  1.00  0.00     0.076 C 
HETATM    5  C12 UNL     1      26.881   4.556  48.965  1.00  0.00    -0.040 A 
HETATM    6  C13 UNL     1      28.043   5.193  48.519  1.00  0.00     0.008 A 
HETATM    7  C14 UNL     1      28.068   6.532  48.175  1.00  0.00     0.001 A 
HETATM    8  C15 UNL     1      26.921   7.300  48.262  1.00  0.00     0.001 A 
HETATM    9  C16 UNL     1      25.726   6.730  48.697  1.00  0.00     0.016 A 
HETATM   10  C17 UNL     1      25.785   5.401  49.018  1.00  0.00     0.019 A 
HETATM   11  C18 UNL     1      24.541   4.779  49.482  1.00  0.00     0.193 C 
HETATM   12  O2  UNL     1      23.416   5.246  49.224  1.00  0.00    -0.289 OA
HETATM   13  C19 UNL     1      24.504   3.527  50.311  1.00  0.00     0.226 C 
HETATM   14  O3  UNL     1      24.007   3.784  51.579  1.00  0.00    -0.364 OA
ENDROOT
BRANCH   1  15
HETATM   15  C7  UNL     1      23.627   1.523  52.101  1.00  0.00     0.062 C 
BRANCH  15  16
HETATM   16  C6  UNL     1      23.698   0.561  53.300  1.00  0.00     0.170 C 
BRANCH  16  17
HETATM   17  O1  UNL     1      24.741  -0.295  53.102  1.00  0.00    -0.389 OA
BRANCH  17  18
HETATM   18  C5  UNL     1      25.450  -0.703  54.206  1.00  0.00     0.187 C 
BRANCH  18  19
HETATM   19  C4  UNL     1      26.463   0.326  54.590  1.00  0.00     0.142 C 
BRANCH  19  20
HETATM   20  N1  UNL     1      27.811  -0.080  54.401  1.00  0.00    -0.415 N 
HETATM   21  C3  UNL     1      28.825   0.845  54.761  1.00  0.00     0.143 C 
BRANCH  20  22
HETATM   22  C2  UNL     1      28.087  -0.980  53.344  1.00  0.00     0.112 C 
HETATM   23  C1  UNL     1      29.567  -1.301  53.325  1.00  0.00     0.026 C 
ENDBRANCH  20  22
ENDBRANCH  19  20
ENDBRANCH  18  19
ENDBRANCH  17  18
ENDBRANCH  16  17
ENDBRANCH  15  16
ENDBRANCH   1  15
TORSDOF 7
ENDMDL
MODEL 2
REMARK VINA RESULT:      -7.3      2.260      6.543
REMARK  7 active torsions:
REMARK  status: ('A' for Active; 'I' for Inactive)
REMARK    1  A    between atoms: C2_2  and  N1_3 
REMARK    2  A    between atoms: N1_3  and  C4_5 
REMARK    3  A    between atoms: C4_5  and  C5_6 
REMARK    4  A    between atoms: C5_6  and  O1_7 
REMARK    5  A    between atoms: O1_7  and  C6_8 
REMARK    6  A    between atoms: C6_8  and  C7_9 
REMARK    7  A    between atoms: C7_9  and  C8_10 
ROOT
HETATM    1  C8  UNL     1      24.284   1.924  53.520  1.00  0.00     0.148 C 
HETATM    2  C9  UNL     1      24.377   0.500  53.177  1.00  0.00     0.011 C 
HETATM    3  C10 UNL     1      25.566   0.286  52.596  1.00  0.00    -0.041 C 
HETATM    4  C11 UNL     1      26.371  -0.839  51.996  1.00  0.00     0.076 C 
HETATM    5  C12 UNL     1      27.690  -0.910  52.679  1.00  0.00    -0.040 A 
HETATM    6  C13 UNL     1      28.373  -2.094  52.977  1.00  0.00     0.008 A 
HETATM    7  C14 UNL     1      29.601  -2.101  53.612  1.00  0.00     0.001 A 
HETATM    8  C15 UNL     1      30.206  -0.914  53.981  1.00  0.00     0.001 A 
HETATM    9  C16 UNL     1      29.584   0.305  53.714  1.00  0.00     0.016 A 
HETATM   10  C17 UNL     1      28.371   0.226  53.084  1.00  0.00     0.019 A 
HETATM   11  C18 UNL     1      27.695   1.494  52.795  1.00  0.00     0.193 C 
HETATM   12  O2  UNL     1      28.299   2.579  52.717  1.00  0.00    -0.289 OA
HETATM   13  C19 UNL     1      26.214   1.605  52.570  1.00  0.00     0.226 C 
HETATM   14  O3  UNL     1      25.611   2.338  53.580  1.00  0.00    -0.364 OA
ENDROOT
BRANCH   1  15
HETATM   15  C7  UNL     1      23.601   2.671  52.405  1.00  0.00     0.062 C 
BRANCH  15  16
HETATM   16  C6  UNL     1      23.693   4.190  52.633  1.00  0.00     0.170 C 
BRANCH  16  17
HETATM   17  O1  UNL     1      23.606   4.812  51.422  1.00  0.00    -0.389 OA
BRANCH  17  18
HETATM   18  C5  UNL     1      23.824   4.053  50.298  1.00  0.00     0.187 C 
BRANCH  18  19
HETATM   19  C4  UNL     1      24.416   4.887  49.208  1.00  0.00     0.142 C 
BRANCH  19  20
HETATM   20  N1  UNL     1      25.821   4.743  49.058  1.00  0.00    -0.415 N 
HETATM   21  C3  UNL     1      26.420   3.584  49.616  1.00  0.00     0.143 C 
BRANCH  20  22
HETATM   22  C2  UNL     1      26.601   5.922  49.000  1.00  0.00     0.112 C 
HETATM   23  C1  UNL     1      27.958   5.604  48.407  1.00  0.00     0.026 C 
ENDBRANCH  20  22
ENDBRANCH  19  20
ENDBRANCH  18  19
ENDBRANCH  17  18
ENDBRANCH  16  17
ENDBRANCH  15  16
ENDBRANCH   1  15
TORSDOF 7
ENDMDL
MODEL 3
REMARK VINA RESULT:      -7.2      3.665      6.146
REMARK  7 active torsions:
REMARK  status: ('A' for Active; 'I' for Inactive)
REMARK    1  A    between atoms: C2_2  and  N1_3 
REMARK    2  A    between atoms: N1_3  and  C4_5 
REMARK    3  A    between atoms: C4_5  and  C5_6 
REMARK    4  A    between atoms: C5_6  and  O1_7 
REMARK    5  A    between atoms: O1_7  and  C6_8 
REMARK    6  A    between atoms: C6_8  and  C7_9 
REMARK    7  A    between atoms: C7_9  and  C8_10 
ROOT
HETATM    1  C8  UNL     1      22.713   0.475  53.429  1.00  0.00     0.148 C 
HETATM    2  C9  UNL     1      23.639  -0.624  53.727  1.00  0.00     0.011 C 
HETATM    3  C10 UNL     1      24.789  -0.389  53.080  1.00  0.00    -0.041 C 
HETATM    4  C11 UNL     1      26.151  -1.009  52.884  1.00  0.00     0.076 C 
HETATM    5  C12 UNL     1      27.193  -0.017  53.262  1.00  0.00    -0.040 A 
HETATM    6  C13 UNL     1      28.395  -0.329  53.906  1.00  0.00     0.008 A 
HETATM    7  C14 UNL     1      29.332   0.635  54.231  1.00  0.00     0.001 A 
HETATM    8  C15 UNL     1      29.106   1.964  53.923  1.00  0.00     0.001 A 
HETATM    9  C16 UNL     1      27.930   2.346  53.280  1.00  0.00     0.016 A 
HETATM   10  C17 UNL     1      27.055   1.334  52.993  1.00  0.00     0.019 A 
HETATM   11  C18 UNL     1      25.808   1.711  52.319  1.00  0.00     0.193 C 
HETATM   12  O2  UNL     1      25.688   2.762  51.663  1.00  0.00    -0.289 OA
HETATM   13  C19 UNL     1      24.564   0.872  52.358  1.00  0.00     0.226 C 
HETATM   14  O3  UNL     1      23.549   1.519  53.045  1.00  0.00    -0.364 OA
ENDROOT
BRANCH   1  15
HETATM   15  C7  UNL     1      21.845   0.103  52.255  1.00  0.00     0.062 C 
BRANCH  15  16
HETATM   16  C6  UNL     1      20.361   0.344  52.579  1.00  0.00     0.170 C 
BRANCH  16  17
HETATM   17  O1  UNL     1      20.195   1.664  52.878  1.00  0.00    -0.389 OA
BRANCH  17  18
HETATM   18  C5  UNL     1      19.652   2.474  51.911  1.00  0.00     0.187 C 
BRANCH  18  19
HETATM   19  C4  UNL     1      20.328   3.806  51.900  1.00  0.00     0.142 C 
BRANCH  19  20
HETATM   20  N1  UNL     1      21.612   3.806  51.295  1.00  0.00    -0.415 N 
HETATM   21  C3  UNL     1      22.601   4.649  51.866  1.00  0.00     0.143 C 
BRANCH  20  22
HETATM   22  C2  UNL     1      21.685   3.558  49.903  1.00  0.00     0.112 C 
HETATM   23  C1  UNL     1      22.733   2.499  49.631  1.00  0.00     0.026 C 
ENDBRANCH  20  22
ENDBRANCH  19  20
ENDBRANCH  18  19
ENDBRANCH  17  18
ENDBRANCH  16  17
ENDBRANCH  15  16
ENDBRANCH   1  15
TORSDOF 7
ENDMDL
MODEL 4
REMARK VINA RESULT:      -7.2      3.043      6.339
REMARK  7 active torsions:
REMARK  status: ('A' for Active; 'I' for Inactive)
REMARK    1  A    between atoms: C2_2  and  N1_3 
REMARK    2  A    between atoms: N1_3  and  C4_5 
REMARK    3  A    between atoms: C4_5  and  C5_6 
REMARK    4  A    between atoms: C5_6  and  O1_7 
REMARK    5  A    between atoms: O1_7  and  C6_8 
REMARK    6  A    between atoms: C6_8  and  C7_9 
REMARK    7  A    between atoms: C7_9  and  C8_10 
ROOT
HETATM    1  C8  UNL     1      24.568   0.703  52.145  1.00  0.00     0.148 C 
HETATM    2  C9  UNL     1      23.900  -0.087  53.187  1.00  0.00     0.011 C 
HETATM    3  C10 UNL     1      22.668   0.411  53.363  1.00  0.00    -0.041 C 
HETATM    4  C11 UNL     1      21.435   0.170  54.199  1.00  0.00     0.076 C 
HETATM    5  C12 UNL     1      20.267  -0.017  53.297  1.00  0.00    -0.040 A 
HETATM    6  C13 UNL     1      19.215  -0.910  53.527  1.00  0.00     0.008 A 
HETATM    7  C14 UNL     1      18.150  -1.041  52.655  1.00  0.00     0.001 A 
HETATM    8  C15 UNL     1      18.090  -0.277  51.504  1.00  0.00     0.001 A 
HETATM    9  C16 UNL     1      19.102   0.635  51.211  1.00  0.00     0.016 A 
HETATM   10  C17 UNL     1      20.120   0.704  52.124  1.00  0.00     0.019 A 
HETATM   11  C18 UNL     1      21.200   1.654  51.837  1.00  0.00     0.193 C 
HETATM   12  O2  UNL     1      21.054   2.632  51.081  1.00  0.00    -0.289 OA
HETATM   13  C19 UNL     1      22.578   1.536  52.421  1.00  0.00     0.226 C 
HETATM   14  O3  UNL     1      23.516   1.274  51.435  1.00  0.00    -0.364 OA
ENDROOT
BRANCH   1  15
HETATM   15  C7  UNL     1      25.369   1.809  52.782  1.00  0.00     0.062 C 
BRANCH  15  16
HETATM   16  C6  UNL     1      26.190   2.564  51.722  1.00  0.00     0.170 C 
BRANCH  16  17
HETATM   17  O1  UNL     1      27.513   2.386  51.998  1.00  0.00    -0.389 OA
BRANCH  17  18
HETATM   18  C5  UNL     1      27.885   2.302  53.317  1.00  0.00     0.187 C 
BRANCH  18  19
HETATM   19  C4  UNL     1      29.065   1.399  53.475  1.00  0.00     0.142 C 
BRANCH  19  20
HETATM   20  N1  UNL     1      28.746   0.091  53.925  1.00  0.00    -0.415 N 
HETATM   21  C3  UNL     1      27.749  -0.027  54.928  1.00  0.00     0.143 C 
BRANCH  20  22
HETATM   22  C2  UNL     1      29.772  -0.883  53.901  1.00  0.00     0.112 C 
HETATM   23  C1  UNL     1      29.276  -2.125  53.190  1.00  0.00     0.026 C 
ENDBRANCH  20  22
ENDBRANCH  19  20
ENDBRANCH  18  19
ENDBRANCH  17  18
ENDBRANCH  16  17
ENDBRANCH  15  16
ENDBRANCH   1  15
TORSDOF 7
ENDMDL
MODEL 5
REMARK VINA RESULT:      -7.1      2.258      6.248
REMARK  7 active torsions:
REMARK  status: ('A' for Active; 'I' for Inactive)
REMARK    1  A    between atoms: C2_2  and  N1_3 
REMARK    2  A    between atoms: N1_3  and  C4_5 
REMARK    3  A    between atoms: C4_5  and  C5_6 
REMARK    4  A    between atoms: C5_6  and  O1_7 
REMARK    5  A    between atoms: O1_7  and  C6_8 
REMARK    6  A    between atoms: C6_8  and  C7_9 
REMARK    7  A    between atoms: C7_9  and  C8_10 
ROOT
HETATM    1  C8  UNL     1      23.117   2.630  52.079  1.00  0.00     0.148 C 
HETATM    2  C9  UNL     1      23.376   1.360  52.767  1.00  0.00     0.011 C 
HETATM    3  C10 UNL     1      24.625   0.972  52.474  1.00  0.00    -0.041 C 
HETATM    4  C11 UNL     1      25.584  -0.154  52.771  1.00  0.00     0.076 C 
HETATM    5  C12 UNL     1      26.841   0.412  53.329  1.00  0.00    -0.040 A 
HETATM    6  C13 UNL     1      27.607  -0.182  54.337  1.00  0.00     0.008 A 
HETATM    7  C14 UNL     1      28.772   0.389  54.816  1.00  0.00     0.001 A 
HETATM    8  C15 UNL     1      29.225   1.590  54.304  1.00  0.00     0.001 A 
HETATM    9  C16 UNL     1      28.513   2.239  53.296  1.00  0.00     0.016 A 
HETATM   10  C17 UNL     1      27.372   1.609  52.878  1.00  0.00     0.019 A 
HETATM   11  C18 UNL     1      26.602   2.273  51.821  1.00  0.00     0.193 C 
HETATM   12  O2  UNL     1      27.104   3.105  51.042  1.00  0.00    -0.289 OA
HETATM   13  C19 UNL     1      25.143   2.017  51.579  1.00  0.00     0.226 C 
HETATM   14  O3  UNL     1      24.388   3.148  51.849  1.00  0.00    -0.364 OA
ENDROOT
BRANCH   1  15
HETATM   15  C7  UNL     1      22.462   2.363  50.750  1.00  0.00     0.062 C 
BRANCH  15  16
HETATM   16  C6  UNL     1      21.855   3.654  50.175  1.00  0.00     0.170 C 
BRANCH  16  17
HETATM   17  O1  UNL     1      22.462   3.921  48.983  1.00  0.00    -0.389 OA
BRANCH  17  18
HETATM   18  C5  UNL     1      23.117   5.121  48.855  1.00  0.00     0.187 C 
BRANCH  18  19
HETATM   19  C4  UNL     1      24.593   4.932  48.994  1.00  0.00     0.142 C 
BRANCH  19  20
HETATM   20  N1  UNL     1      25.230   5.886  49.831  1.00  0.00    -0.415 N 
HETATM   21  C3  UNL     1      24.435   6.510  50.827  1.00  0.00     0.143 C 
BRANCH  20  22
HETATM   22  C2  UNL     1      26.303   6.630  49.285  1.00  0.00     0.112 C 
HETATM   23  C1  UNL     1      27.259   5.695  48.574  1.00  0.00     0.026 C 
ENDBRANCH  20  22
ENDBRANCH  19  20
ENDBRANCH  18  19
ENDBRANCH  17  18
ENDBRANCH  16  17
ENDBRANCH  15  16
ENDBRANCH   1  15
TORSDOF 7
ENDMDL
MODEL 6
REMARK VINA RESULT:      -7.1      3.862      6.733
REMARK  7 active torsions:
REMARK  status: ('A' for Active; 'I' for Inactive)
REMARK    1  A    between atoms: C2_2  and  N1_3 
REMARK    2  A    between atoms: N1_3  and  C4_5 
REMARK    3  A    between atoms: C4_5  and  C5_6 
REMARK    4  A    between atoms: C5_6  and  O1_7 
REMARK    5  A    between atoms: O1_7  and  C6_8 
REMARK    6  A    between atoms: C6_8  and  C7_9 
REMARK    7  A    between atoms: C7_9  and  C8_10 
ROOT
HETATM    1  C8  UNL     1      24.528   2.337  53.631  1.00  0.00     0.148 C 
HETATM    2  C9  UNL     1      24.465   0.946  53.167  1.00  0.00     0.011 C 
HETATM    3  C10 UNL     1      25.636   0.645  52.586  1.00  0.00    -0.041 C 
HETATM    4  C11 UNL     1      26.321  -0.511  51.901  1.00  0.00     0.076 C 
HETATM    5  C12 UNL     1      27.607  -0.792  52.594  1.00  0.00    -0.040 A 
HETATM    6  C13 UNL     1      28.142  -2.069  52.797  1.00  0.00     0.008 A 
HETATM    7  C14 UNL     1      29.346  -2.272  53.447  1.00  0.00     0.001 A 
HETATM    8  C15 UNL     1      30.074  -1.199  53.926  1.00  0.00     0.001 A 
HETATM    9  C16 UNL     1      29.601   0.102  53.757  1.00  0.00     0.016 A 
HETATM   10  C17 UNL     1      28.403   0.218  53.106  1.00  0.00     0.019 A 
HETATM   11  C18 UNL     1      27.883   1.576  52.919  1.00  0.00     0.193 C 
HETATM   12  O2  UNL     1      28.610   2.587  52.944  1.00  0.00    -0.289 OA
HETATM   13  C19 UNL     1      26.431   1.878  52.684  1.00  0.00     0.226 C 
HETATM   14  O3  UNL     1      25.892   2.587  53.745  1.00  0.00    -0.364 OA
ENDROOT
BRANCH   1  15
HETATM   15  C7  UNL     1      23.962   3.250  52.576  1.00  0.00     0.062 C 
BRANCH  15  16
HETATM   16  C6  UNL     1      22.783   2.577  51.852  1.00  0.00     0.170 C 
BRANCH  16  17
HETATM   17  O1  UNL     1      21.674   3.352  52.026  1.00  0.00    -0.389 OA
BRANCH  17  18
HETATM   18  C5  UNL     1      20.537   2.741  52.497  1.00  0.00     0.187 C 
BRANCH  18  19
HETATM   19  C4  UNL     1      20.836   1.348  52.946  1.00  0.00     0.142 C 
BRANCH  19  20
HETATM   20  N1  UNL     1      19.868   0.386  52.555  1.00  0.00    -0.415 N 
HETATM   21  C3  UNL     1      18.767   0.846  51.786  1.00  0.00     0.143 C 
BRANCH  20  22
HETATM   22  C2  UNL     1      19.653  -0.720  53.412  1.00  0.00     0.112 C 
HETATM   23  C1  UNL     1      20.901  -0.976  54.231  1.00  0.00     0.026 C 
ENDBRANCH  20  22
ENDBRANCH  19  20
ENDBRANCH  18  19
ENDBRANCH  17  18
ENDBRANCH  16  17
ENDBRANCH  15  16
ENDBRANCH   1  15
TORSDOF 7
ENDMDL
MODEL 7
REMARK VINA RESULT:      -7.0      3.598      6.291
REMARK  7 active torsions:
REMARK  status: ('A' for Active; 'I' for Inactive)
REMARK    1  A    between atoms: C2_2  and  N1_3 
REMARK    2  A    between atoms: N1_3  and  C4_5 
REMARK    3  A    between atoms: C4_5  and  C5_6 
REMARK    4  A    between atoms: C5_6  and  O1_7 
REMARK    5  A    between atoms: O1_7  and  C6_8 
REMARK    6  A    between atoms: C6_8  and  C7_9 
REMARK    7  A    between atoms: C7_9  and  C8_10 
ROOT
HETATM    1  C8  UNL     1      23.133   2.454  51.909  1.00  0.00     0.148 C 
HETATM    2  C9  UNL     1      23.435   1.211  52.629  1.00  0.00     0.011 C 
HETATM    3  C10 UNL     1      24.710   0.882  52.379  1.00  0.00    -0.041 C 
HETATM    4  C11 UNL     1      25.716  -0.188  52.724  1.00  0.00     0.076 C 
HETATM    5  C12 UNL     1      26.926   0.452  53.305  1.00  0.00    -0.040 A 
HETATM    6  C13 UNL     1      27.692  -0.085  54.345  1.00  0.00     0.008 A 
HETATM    7  C14 UNL     1      28.812   0.553  54.845  1.00  0.00     0.001 A 
HETATM    8  C15 UNL     1      29.219   1.767  54.322  1.00  0.00     0.001 A 
HETATM    9  C16 UNL     1      28.504   2.360  53.282  1.00  0.00     0.016 A 
HETATM   10  C17 UNL     1      27.409   1.665  52.845  1.00  0.00     0.019 A 
HETATM   11  C18 UNL     1      26.638   2.270  51.754  1.00  0.00     0.193 C 
HETATM   12  O2  UNL     1      27.119   3.112  50.974  1.00  0.00    -0.289 OA
HETATM   13  C19 UNL     1      25.200   1.936  51.477  1.00  0.00     0.226 C 
HETATM   14  O3  UNL     1      24.382   3.031  51.704  1.00  0.00    -0.364 OA
ENDROOT
BRANCH   1  15
HETATM   15  C7  UNL     1      22.530   2.130  50.568  1.00  0.00     0.062 C 
BRANCH  15  16
HETATM   16  C6  UNL     1      21.078   2.632  50.489  1.00  0.00     0.170 C 
BRANCH  16  17
HETATM   17  O1  UNL     1      20.345   1.974  51.431  1.00  0.00    -0.389 OA
BRANCH  17  18
HETATM   18  C5  UNL     1      19.844   0.738  51.101  1.00  0.00     0.187 C 
BRANCH  18  19
HETATM   19  C4  UNL     1      18.760   0.339  52.049  1.00  0.00     0.142 C 
BRANCH  19  20
HETATM   20  N1  UNL     1      19.144  -0.645  52.997  1.00  0.00    -0.415 N 
HETATM   21  C3  UNL     1      18.154  -1.576  53.406  1.00  0.00     0.143 C 
BRANCH  20  22
HETATM   22  C2  UNL     1      20.149  -0.303  53.932  1.00  0.00     0.112 C 
HETATM   23  C1  UNL     1      21.066  -1.489  54.149  1.00  0.00     0.026 C 
ENDBRANCH  20  22
ENDBRANCH  19  20
ENDBRANCH  18  19
ENDBRANCH  17  18
ENDBRANCH  16  17
ENDBRANCH  15  16
ENDBRANCH   1  15
TORSDOF 7
ENDMDL
MODEL 8
REMARK VINA RESULT:      -6.9      3.004      6.253
REMARK  7 active torsions:
REMARK  status: ('A' for Active; 'I' for Inactive)
REMARK    1  A    between atoms: C2_2  and  N1_3 
REMARK    2  A    between atoms: N1_3  and  C4_5 
REMARK    3  A    between atoms: C4_5  and  C5_6 
REMARK    4  A    between atoms: C5_6  and  O1_7 
REMARK    5  A    between atoms: O1_7  and  C6_8 
REMARK    6  A    between atoms: C6_8  and  C7_9 
REMARK    7  A    between atoms: C7_9  and  C8_10 
ROOT
HETATM    1  C8  UNL     1      23.994   2.981  52.285  1.00  0.00     0.148 C 
HETATM    2  C9  UNL     1      22.901   3.059  51.309  1.00  0.00     0.011 C 
HETATM    3  C10 UNL     1      22.375   1.834  51.171  1.00  0.00    -0.041 C 
HETATM    4  C11 UNL     1      21.285   1.126  50.405  1.00  0.00     0.076 C 
HETATM    5  C12 UNL     1      20.386   0.435  51.367  1.00  0.00    -0.040 A 
HETATM    6  C13 UNL     1      18.999   0.319  51.222  1.00  0.00     0.008 A 
HETATM    7  C14 UNL     1      18.210  -0.338  52.149  1.00  0.00     0.001 A 
HETATM    8  C15 UNL     1      18.779  -0.914  53.271  1.00  0.00     0.001 A 
HETATM    9  C16 UNL     1      20.155  -0.838  53.478  1.00  0.00     0.016 A 
HETATM   10  C17 UNL     1      20.864  -0.171  52.517  1.00  0.00     0.019 A 
HETATM   11  C18 UNL     1      22.314  -0.074  52.715  1.00  0.00     0.193 C 
HETATM   12  O2  UNL     1      22.950  -0.864  53.437  1.00  0.00    -0.289 OA
HETATM   13  C19 UNL     1      23.165   0.982  52.071  1.00  0.00     0.226 C 
HETATM   14  O3  UNL     1      23.701   1.837  53.021  1.00  0.00    -0.364 OA
ENDROOT
BRANCH   1  15
HETATM   15  C7  UNL     1      25.301   2.765  51.568  1.00  0.00     0.062 C 
BRANCH  15  16
HETATM   16  C6  UNL     1      26.272   1.954  52.443  1.00  0.00     0.170 C 
BRANCH  16  17
HETATM   17  O1  UNL     1      26.822   0.970  51.676  1.00  0.00    -0.389 OA
BRANCH  17  18
HETATM   18  C5  UNL     1      26.629  -0.332  52.072  1.00  0.00     0.187 C 
BRANCH  18  19
HETATM   19  C4  UNL     1      27.018  -0.508  53.504  1.00  0.00     0.142 C 
BRANCH  19  20
HETATM   20  N1  UNL     1      28.402  -0.327  53.762  1.00  0.00    -0.415 N 
HETATM   21  C3  UNL     1      29.273  -1.395  53.420  1.00  0.00     0.143 C 
BRANCH  20  22
HETATM   22  C2  UNL     1      28.768   0.493  54.855  1.00  0.00     0.112 C 
HETATM   23  C1  UNL     1      29.384   1.778  54.341  1.00  0.00     0.026 C 
ENDBRANCH  20  22
ENDBRANCH  19  20
ENDBRANCH  18  19
ENDBRANCH  17  18
ENDBRANCH  16  17
ENDBRANCH  15  16
ENDBRANCH   1  15
TORSDOF 7
ENDMDL
MODEL 9
REMARK VINA RESULT:      -6.8      3.523      6.587
REMARK  7 active torsions:
REMARK  status: ('A' for Active; 'I' for Inactive)
REMARK    1  A    between atoms: C2_2  and  N1_3 
REMARK    2  A    between atoms: N1_3  and  C4_5 
REMARK    3  A    between atoms: C4_5  and  C5_6 
REMARK    4  A    between atoms: C5_6  and  O1_7 
REMARK    5  A    between atoms: O1_7  and  C6_8 
REMARK    6  A    between atoms: C6_8  and  C7_9 
REMARK    7  A    between atoms: C7_9  and  C8_10 
ROOT
HETATM    1  C8  UNL     1      22.627   0.158  52.370  1.00  0.00     0.148 C 
HETATM    2  C9  UNL     1      23.397   1.385  52.130  1.00  0.00     0.011 C 
HETATM    3  C10 UNL     1      24.323   1.492  53.094  1.00  0.00    -0.041 C 
HETATM    4  C11 UNL     1      25.436   2.413  53.527  1.00  0.00     0.076 C 
HETATM    5  C12 UNL     1      26.698   1.633  53.633  1.00  0.00    -0.040 A 
HETATM    6  C13 UNL     1      27.965   2.113  53.288  1.00  0.00     0.008 A 
HETATM    7  C14 UNL     1      29.108   1.343  53.411  1.00  0.00     0.001 A 
HETATM    8  C15 UNL     1      29.032   0.047  53.888  1.00  0.00     0.001 A 
HETATM    9  C16 UNL     1      27.801  -0.496  54.254  1.00  0.00     0.016 A 
HETATM   10  C17 UNL     1      26.720   0.330  54.102  1.00  0.00     0.019 A 
HETATM   11  C18 UNL     1      25.413  -0.220  54.476  1.00  0.00     0.193 C 
HETATM   12  O2  UNL     1      25.283  -1.178  55.260  1.00  0.00    -0.289 OA
HETATM   13  C19 UNL     1      24.112   0.316  53.950  1.00  0.00     0.226 C 
HETATM   14  O3  UNL     1      23.476  -0.620  53.150  1.00  0.00    -0.364 OA
ENDROOT
BRANCH   1  15
HETATM   15  C7  UNL     1      21.398   0.480  53.178  1.00  0.00     0.062 C 
BRANCH  15  16
HETATM   16  C6  UNL     1      20.371   1.245  52.325  1.00  0.00     0.170 C 
BRANCH  16  17
HETATM   17  O1  UNL     1      20.239   2.502  52.836  1.00  0.00    -0.389 OA
BRANCH  17  18
HETATM   18  C5  UNL     1      20.301   3.557  51.959  1.00  0.00     0.187 C 
BRANCH  18  19
HETATM   19  C4  UNL     1      21.471   4.433  52.272  1.00  0.00     0.142 C 
BRANCH  19  20
HETATM   20  N1  UNL     1      22.452   4.489  51.247  1.00  0.00    -0.415 N 
HETATM   21  C3  UNL     1      23.657   5.181  51.536  1.00  0.00     0.143 C 
BRANCH  20  22
HETATM   22  C2  UNL     1      22.003   4.484  49.904  1.00  0.00     0.112 C 
HETATM   23  C1  UNL     1      22.822   3.496  49.099  1.00  0.00     0.026 C 
ENDBRANCH  20  22
ENDBRANCH  19  20
ENDBRANCH  18  19
ENDBRANCH  17  18
ENDBRANCH  16  17
ENDBRANCH  15  16
ENDBRANCH   1  15
TORSDOF 7
ENDMDL
