MODEL 1
REMARK VINA RESULT:      -8.7      0.000      0.000
REMARK  8 active torsions:
REMARK  status: ('A' for Active; 'I' for Inactive)
REMARK    1  A    between atoms: N1_7  and  C6_8 
REMARK    2  A    between atoms: C6_8  and  N2_9 
REMARK    3  A    between atoms: N2_9  and  C7_10 
REMARK    4  A    between atoms: N2_9  and  C14_18 
REMARK    5  A    between atoms: C7_10  and  C8_11 
REMARK    6  A    between atoms: C11_14  and  O2_15 
REMARK    7  A    between atoms: C14_18  and  C15_19 
REMARK    8  A    between atoms: C20_25  and  O3_26 
ROOT
HETATM    1  N2  UNL     1      25.582   1.930  52.041  1.00  0.00    -0.388 N 
ENDROOT
BRANCH   1   2
HETATM    2  C6  UNL     1      24.702   2.271  53.113  1.00  0.00     0.252 C 
BRANCH   2   3
HETATM    3  N1  UNL     1      23.526   1.383  53.086  1.00  0.00    -0.308 N 
HETATM    4  C1  UNL     1      22.293   1.769  52.709  1.00  0.00     0.248 A 
HETATM    5  O1  UNL     1      22.163   2.975  52.349  1.00  0.00    -0.268 OA
HETATM    6  C2  UNL     1      21.212   0.939  52.701  1.00  0.00     0.074 A 
HETATM    7  C3  UNL     1      21.383  -0.372  53.100  1.00  0.00     0.007 A 
HETATM    8  C4  UNL     1      22.632  -0.845  53.503  1.00  0.00     0.018 A 
HETATM    9  C5  UNL     1      23.651   0.082  53.472  1.00  0.00     0.096 A 
ENDBRANCH   2   3
ENDBRANCH   1   2
BRANCH   1  10
HETATM   10  C7  UNL     1      26.945   1.847  52.388  1.00  0.00     0.157 C 
BRANCH  10  11
HETATM   11  C8  UNL     1      27.513   0.545  52.720  1.00  0.00    -0.041 A 
HETATM   12  C9  UNL     1      28.673   0.165  53.367  1.00  0.00     0.011 A 
HETATM   13  C10 UNL     1      29.034  -1.141  53.566  1.00  0.00     0.037 A 
HETATM   14  C11 UNL     1      28.260  -2.194  53.130  1.00  0.00     0.065 A 
HETATM   15  C12 UNL     1      27.094  -1.862  52.479  1.00  0.00     0.037 A 
HETATM   16  C13 UNL     1      26.753  -0.558  52.292  1.00  0.00     0.011 A 
BRANCH  14  17
HETATM   17  O2  UNL     1      28.634  -3.492  53.334  1.00  0.00    -0.361 OA
HETATM   18  H11 UNL     1      28.987  -4.054  52.548  1.00  0.00     0.217 HD
ENDBRANCH  14  17
ENDBRANCH  10  11
ENDBRANCH   1  10
BRANCH   1  19
HETATM   19  C14 UNL     1      25.206   2.308  50.739  1.00  0.00     0.160 C 
BRANCH  19  20
HETATM   20  C15 UNL     1      25.642   3.590  50.193  1.00  0.00    -0.006 A 
HETATM   21  C16 UNL     1      26.744   3.699  49.372  1.00  0.00     0.012 A 
HETATM   22  C17 UNL     1      27.261   4.849  48.782  1.00  0.00     0.002 A 
HETATM   23  C18 UNL     1      26.614   6.038  49.030  1.00  0.00     0.022 A 
HETATM   24  C19 UNL     1      25.504   6.010  49.840  1.00  0.00     0.044 A 
HETATM   25 BR1  UNL     1      24.629   7.682  50.162  1.00  0.00    -0.048 Br
HETATM   26  C20 UNL     1      25.050   4.821  50.391  1.00  0.00     0.090 A 
BRANCH  26  27
HETATM   27  O3  UNL     1      23.932   4.972  51.170  1.00  0.00    -0.359 OA
HETATM   28  H19 UNL     1      23.921   4.987  52.185  1.00  0.00     0.217 HD
ENDBRANCH  26  27
ENDBRANCH  19  20
ENDBRANCH   1  19
TORSDOF 8
ENDMDL
MODEL 2
REMARK VINA RESULT:      -8.6      2.049      5.631
REMARK  8 active torsions:
REMARK  status: ('A' for Active; 'I' for Inactive)
REMARK    1  A    between atoms: N1_7  and  C6_8 
REMARK    2  A    between atoms: C6_8  and  N2_9 
REMARK    3  A    between atoms: N2_9  and  C7_10 
REMARK    4  A    between atoms: N2_9  and  C14_18 
REMARK    5  A    between atoms: C7_10  and  C8_11 
REMARK    6  A    between atoms: C11_14  and  O2_15 
REMARK    7  A    between atoms: C14_18  and  C15_19 
REMARK    8  A    between atoms: C20_25  and  O3_26 
ROOT
HETATM    1  N2  UNL     1      25.502   0.422  53.248  1.00  0.00    -0.388 N 
ENDROOT
BRANCH   1   2
HETATM    2  C6  UNL     1      26.288  -0.126  52.188  1.00  0.00     0.252 C 
BRANCH   2   3
HETATM    3  N1  UNL     1      27.590  -0.568  52.719  1.00  0.00    -0.308 N 
HETATM    4  C1  UNL     1      27.999  -1.850  52.752  1.00  0.00     0.248 A 
HETATM    5  O1  UNL     1      27.202  -2.711  52.281  1.00  0.00    -0.268 OA
HETATM    6  C2  UNL     1      29.202  -2.245  53.258  1.00  0.00     0.074 A 
HETATM    7  C3  UNL     1      30.052  -1.284  53.766  1.00  0.00     0.007 A 
HETATM    8  C4  UNL     1      29.697   0.066  53.766  1.00  0.00     0.018 A 
HETATM    9  C5  UNL     1      28.459   0.349  53.231  1.00  0.00     0.096 A 
ENDBRANCH   2   3
ENDBRANCH   1   2
BRANCH   1  10
HETATM   10  C7  UNL     1      24.708  -0.507  53.948  1.00  0.00     0.157 C 
BRANCH  10  11
HETATM   11  C8  UNL     1      23.270  -0.537  53.702  1.00  0.00    -0.041 A 
HETATM   12  C9  UNL     1      22.507  -0.321  52.571  1.00  0.00     0.011 A 
HETATM   13  C10 UNL     1      21.139  -0.384  52.559  1.00  0.00     0.037 A 
HETATM   14  C11 UNL     1      20.405  -0.671  53.689  1.00  0.00     0.065 A 
HETATM   15  C12 UNL     1      21.124  -0.894  54.840  1.00  0.00     0.037 A 
HETATM   16  C13 UNL     1      22.484  -0.827  54.831  1.00  0.00     0.011 A 
BRANCH  14  17
HETATM   17  O2  UNL     1      19.040  -0.730  53.662  1.00  0.00    -0.361 OA
HETATM   18  H11 UNL     1      18.496   0.104  53.402  1.00  0.00     0.217 HD
ENDBRANCH  14  17
ENDBRANCH  10  11
ENDBRANCH   1  10
BRANCH   1  19
HETATM   19  C14 UNL     1      25.085   1.760  53.129  1.00  0.00     0.160 C 
BRANCH  19  20
HETATM   20  C15 UNL     1      24.970   2.378  51.811  1.00  0.00    -0.006 A 
HETATM   21  C16 UNL     1      23.787   2.375  51.103  1.00  0.00     0.012 A 
HETATM   22  C17 UNL     1      23.538   2.928  49.850  1.00  0.00     0.002 A 
HETATM   23  C18 UNL     1      24.582   3.563  49.216  1.00  0.00     0.022 A 
HETATM   24  C19 UNL     1      25.795   3.608  49.861  1.00  0.00     0.044 A 
HETATM   25 BR1  UNL     1      27.223   4.499  48.949  1.00  0.00    -0.048 Br
HETATM   26  C20 UNL     1      25.962   3.032  51.111  1.00  0.00     0.090 A 
BRANCH  26  27
HETATM   27  O3  UNL     1      27.232   3.171  51.611  1.00  0.00    -0.359 OA
HETATM   28  H19 UNL     1      27.943   3.794  51.242  1.00  0.00     0.217 HD
ENDBRANCH  26  27
ENDBRANCH  19  20
ENDBRANCH   1  19
TORSDOF 8
ENDMDL
MODEL 3
REMARK VINA RESULT:      -8.2      2.252      5.475
REMARK  8 active torsions:
REMARK  status: ('A' for Active; 'I' for Inactive)
REMARK    1  A    between atoms: N1_7  and  C6_8 
REMARK    2  A    between atoms: C6_8  and  N2_9 
REMARK    3  A    between atoms: N2_9  and  C7_10 
REMARK    4  A    between atoms: N2_9  and  C14_18 
REMARK    5  A    between atoms: C7_10  and  C8_11 
REMARK    6  A    between atoms: C11_14  and  O2_15 
REMARK    7  A    between atoms: C14_18  and  C15_19 
REMARK    8  A    between atoms: C20_25  and  O3_26 
ROOT
HETATM    1  N2  UNL     1      25.334   0.698  53.314  1.00  0.00    -0.388 N 
ENDROOT
BRANCH   1   2
HETATM    2  C6  UNL     1      26.198   0.888  54.437  1.00  0.00     0.252 C 
BRANCH   2   3
HETATM    3  N1  UNL     1      27.569   0.485  54.077  1.00  0.00    -0.308 N 
HETATM    4  C1  UNL     1      28.610   1.334  53.992  1.00  0.00     0.248 A 
HETATM    5  O1  UNL     1      28.374   2.548  54.253  1.00  0.00    -0.268 OA
HETATM    6  C2  UNL     1      29.871   0.948  53.645  1.00  0.00     0.074 A 
HETATM    7  C3  UNL     1      30.100  -0.384  53.363  1.00  0.00     0.007 A 
HETATM    8  C4  UNL     1      29.070  -1.322  53.430  1.00  0.00     0.018 A 
HETATM    9  C5  UNL     1      27.838  -0.820  53.791  1.00  0.00     0.096 A 
ENDBRANCH   2   3
ENDBRANCH   1   2
BRANCH   1  10
HETATM   10  C7  UNL     1      24.635  -0.524  53.296  1.00  0.00     0.157 C 
BRANCH  10  11
HETATM   11  C8  UNL     1      23.176  -0.505  53.281  1.00  0.00    -0.041 A 
HETATM   12  C9  UNL     1      22.253   0.036  52.407  1.00  0.00     0.011 A 
HETATM   13  C10 UNL     1      20.899  -0.048  52.590  1.00  0.00     0.037 A 
HETATM   14  C11 UNL     1      20.341  -0.687  53.676  1.00  0.00     0.065 A 
HETATM   15  C12 UNL     1      21.223  -1.241  54.574  1.00  0.00     0.037 A 
HETATM   16  C13 UNL     1      22.566  -1.147  54.373  1.00  0.00     0.011 A 
BRANCH  14  17
HETATM   17  O2  UNL     1      18.987  -0.762  53.846  1.00  0.00    -0.361 OA
HETATM   18  H11 UNL     1      18.515  -1.675  53.806  1.00  0.00     0.217 HD
ENDBRANCH  14  17
ENDBRANCH  10  11
ENDBRANCH   1  10
BRANCH   1  19
HETATM   19  C14 UNL     1      25.681   1.332  52.107  1.00  0.00     0.160 C 
BRANCH  19  20
HETATM   20  C15 UNL     1      25.115   2.636  51.774  1.00  0.00    -0.006 A 
HETATM   21  C16 UNL     1      24.109   3.210  52.523  1.00  0.00     0.012 A 
HETATM   22  C17 UNL     1      23.489   4.440  52.323  1.00  0.00     0.002 A 
HETATM   23  C18 UNL     1      23.909   5.199  51.255  1.00  0.00     0.022 A 
HETATM   24  C19 UNL     1      24.911   4.693  50.461  1.00  0.00     0.044 A 
HETATM   25 BR1  UNL     1      25.471   5.777  48.985  1.00  0.00    -0.048 Br
HETATM   26  C20 UNL     1      25.480   3.457  50.727  1.00  0.00     0.090 A 
BRANCH  26  27
HETATM   27  O3  UNL     1      26.465   3.107  49.840  1.00  0.00    -0.359 OA
HETATM   28  H19 UNL     1      27.325   2.625  50.078  1.00  0.00     0.217 HD
ENDBRANCH  26  27
ENDBRANCH  19  20
ENDBRANCH   1  19
TORSDOF 8
ENDMDL
MODEL 4
REMARK VINA RESULT:      -8.2      1.584      4.794
REMARK  8 active torsions:
REMARK  status: ('A' for Active; 'I' for Inactive)
REMARK    1  A    between atoms: N1_7  and  C6_8 
REMARK    2  A    between atoms: C6_8  and  N2_9 
REMARK    3  A    between atoms: N2_9  and  C7_10 
REMARK    4  A    between atoms: N2_9  and  C14_18 
REMARK    5  A    between atoms: C7_10  and  C8_11 
REMARK    6  A    between atoms: C11_14  and  O2_15 
REMARK    7  A    between atoms: C14_18  and  C15_19 
REMARK    8  A    between atoms: C20_25  and  O3_26 
ROOT
HETATM    1  N2  UNL     1      24.934   1.779  52.032  1.00  0.00    -0.388 N 
ENDROOT
BRANCH   1   2
HETATM    2  C6  UNL     1      25.746   0.604  52.080  1.00  0.00     0.252 C 
BRANCH   2   3
HETATM    3  N1  UNL     1      26.923   0.853  52.931  1.00  0.00    -0.308 N 
HETATM    4  C1  UNL     1      27.388  -0.009  53.854  1.00  0.00     0.248 A 
HETATM    5  O1  UNL     1      26.763  -1.103  53.972  1.00  0.00    -0.268 OA
HETATM    6  C2  UNL     1      28.471   0.241  54.643  1.00  0.00     0.074 A 
HETATM    7  C3  UNL     1      29.133   1.443  54.493  1.00  0.00     0.007 A 
HETATM    8  C4  UNL     1      28.710   2.387  53.557  1.00  0.00     0.018 A 
HETATM    9  C5  UNL     1      27.606   2.028  52.816  1.00  0.00     0.096 A 
ENDBRANCH   2   3
ENDBRANCH   1   2
BRANCH   1  10
HETATM   10  C7  UNL     1      24.063   1.950  53.125  1.00  0.00     0.157 C 
BRANCH  10  11
HETATM   11  C8  UNL     1      23.100   0.897  53.435  1.00  0.00    -0.041 A 
HETATM   12  C9  UNL     1      23.231  -0.358  53.996  1.00  0.00     0.011 A 
HETATM   13  C10 UNL     1      22.178  -1.213  54.189  1.00  0.00     0.037 A 
HETATM   14  C11 UNL     1      20.888  -0.884  53.833  1.00  0.00     0.065 A 
HETATM   15  C12 UNL     1      20.711   0.358  53.270  1.00  0.00     0.037 A 
HETATM   16  C13 UNL     1      21.770   1.193  53.088  1.00  0.00     0.011 A 
BRANCH  14  17
HETATM   17  O2  UNL     1      19.848  -1.748  54.031  1.00  0.00    -0.361 OA
HETATM   18  H11 UNL     1      18.985  -1.416  54.483  1.00  0.00     0.217 HD
ENDBRANCH  14  17
ENDBRANCH  10  11
ENDBRANCH   1  10
BRANCH   1  19
HETATM   19  C14 UNL     1      24.587   2.284  50.766  1.00  0.00     0.160 C 
BRANCH  19  20
HETATM   20  C15 UNL     1      25.252   3.474  50.243  1.00  0.00    -0.006 A 
HETATM   21  C16 UNL     1      26.401   3.398  49.486  1.00  0.00     0.012 A 
HETATM   22  C17 UNL     1      27.127   4.444  48.925  1.00  0.00     0.002 A 
HETATM   23  C18 UNL     1      26.666   5.724  49.134  1.00  0.00     0.022 A 
HETATM   24  C19 UNL     1      25.522   5.881  49.880  1.00  0.00     0.044 A 
HETATM   25 BR1  UNL     1      24.909   7.675  50.150  1.00  0.00    -0.048 Br
HETATM   26  C20 UNL     1      24.854   4.785  50.406  1.00  0.00     0.090 A 
BRANCH  26  27
HETATM   27  O3  UNL     1      23.733   5.121  51.121  1.00  0.00    -0.359 OA
HETATM   28  H19 UNL     1      23.163   5.945  50.965  1.00  0.00     0.217 HD
ENDBRANCH  26  27
ENDBRANCH  19  20
ENDBRANCH   1  19
TORSDOF 8
ENDMDL
MODEL 5
REMARK VINA RESULT:      -8.0      1.543      1.919
REMARK  8 active torsions:
REMARK  status: ('A' for Active; 'I' for Inactive)
REMARK    1  A    between atoms: N1_7  and  C6_8 
REMARK    2  A    between atoms: C6_8  and  N2_9 
REMARK    3  A    between atoms: N2_9  and  C7_10 
REMARK    4  A    between atoms: N2_9  and  C14_18 
REMARK    5  A    between atoms: C7_10  and  C8_11 
REMARK    6  A    between atoms: C11_14  and  O2_15 
REMARK    7  A    between atoms: C14_18  and  C15_19 
REMARK    8  A    between atoms: C20_25  and  O3_26 
ROOT
HETATM    1  N2  UNL     1      25.951   2.006  51.613  1.00  0.00    -0.388 N 
ENDROOT
BRANCH   1   2
HETATM    2  C6  UNL     1      24.831   2.521  52.335  1.00  0.00     0.252 C 
BRANCH   2   3
HETATM    3  N1  UNL     1      23.743   1.527  52.329  1.00  0.00    -0.308 N 
HETATM    4  C1  UNL     1      23.615   0.538  53.232  1.00  0.00     0.248 A 
HETATM    5  O1  UNL     1      24.491   0.485  54.142  1.00  0.00    -0.268 OA
HETATM    6  C2  UNL     1      22.609  -0.382  53.206  1.00  0.00     0.074 A 
HETATM    7  C3  UNL     1      21.666  -0.301  52.201  1.00  0.00     0.007 A 
HETATM    8  C4  UNL     1      21.733   0.698  51.229  1.00  0.00     0.018 A 
HETATM    9  C5  UNL     1      22.791   1.571  51.354  1.00  0.00     0.096 A 
ENDBRANCH   2   3
ENDBRANCH   1   2
BRANCH   1  10
HETATM   10  C7  UNL     1      27.150   1.922  52.347  1.00  0.00     0.157 C 
BRANCH  10  11
HETATM   11  C8  UNL     1      27.672   0.606  52.703  1.00  0.00    -0.041 A 
HETATM   12  C9  UNL     1      28.807   0.198  53.378  1.00  0.00     0.011 A 
HETATM   13  C10 UNL     1      29.125  -1.116  53.595  1.00  0.00     0.037 A 
HETATM   14  C11 UNL     1      28.329  -2.149  53.152  1.00  0.00     0.065 A 
HETATM   15  C12 UNL     1      27.187  -1.789  52.474  1.00  0.00     0.037 A 
HETATM   16  C13 UNL     1      26.889  -0.477  52.269  1.00  0.00     0.011 A 
BRANCH  14  17
HETATM   17  O2  UNL     1      28.659  -3.456  53.376  1.00  0.00    -0.361 OA
HETATM   18  H11 UNL     1      28.023  -4.205  53.072  1.00  0.00     0.217 HD
ENDBRANCH  14  17
ENDBRANCH  10  11
ENDBRANCH   1  10
BRANCH   1  19
HETATM   19  C14 UNL     1      25.987   2.217  50.223  1.00  0.00     0.160 C 
BRANCH  19  20
HETATM   20  C15 UNL     1      25.645   3.525  49.671  1.00  0.00    -0.006 A 
HETATM   21  C16 UNL     1      24.348   3.868  49.354  1.00  0.00     0.012 A 
HETATM   22  C17 UNL     1      23.885   5.072  48.831  1.00  0.00     0.002 A 
HETATM   23  C18 UNL     1      24.812   6.060  48.591  1.00  0.00     0.022 A 
HETATM   24  C19 UNL     1      26.128   5.792  48.883  1.00  0.00     0.044 A 
HETATM   25 BR1  UNL     1      27.390   7.190  48.536  1.00  0.00    -0.048 Br
HETATM   26  C20 UNL     1      26.510   4.565  49.402  1.00  0.00     0.090 A 
BRANCH  26  27
HETATM   27  O3  UNL     1      27.858   4.467  49.638  1.00  0.00    -0.359 OA
HETATM   28  H19 UNL     1      28.291   3.856  50.322  1.00  0.00     0.217 HD
ENDBRANCH  26  27
ENDBRANCH  19  20
ENDBRANCH   1  19
TORSDOF 8
ENDMDL
MODEL 6
REMARK VINA RESULT:      -7.9      2.678      6.822
REMARK  8 active torsions:
REMARK  status: ('A' for Active; 'I' for Inactive)
REMARK    1  A    between atoms: N1_7  and  C6_8 
REMARK    2  A    between atoms: C6_8  and  N2_9 
REMARK    3  A    between atoms: N2_9  and  C7_10 
REMARK    4  A    between atoms: N2_9  and  C14_18 
REMARK    5  A    between atoms: C7_10  and  C8_11 
REMARK    6  A    between atoms: C11_14  and  O2_15 
REMARK    7  A    between atoms: C14_18  and  C15_19 
REMARK    8  A    between atoms: C20_25  and  O3_26 
ROOT
HETATM    1  N2  UNL     1      25.398   1.129  53.318  1.00  0.00    -0.388 N 
ENDROOT
BRANCH   1   2
HETATM    2  C6  UNL     1      26.158   0.826  54.490  1.00  0.00     0.252 C 
BRANCH   2   3
HETATM    3  N1  UNL     1      27.530   0.452  54.103  1.00  0.00    -0.308 N 
HETATM    4  C1  UNL     1      28.559   1.317  54.033  1.00  0.00     0.248 A 
HETATM    5  O1  UNL     1      28.310   2.520  54.334  1.00  0.00    -0.268 OA
HETATM    6  C2  UNL     1      29.821   0.959  53.662  1.00  0.00     0.074 A 
HETATM    7  C3  UNL     1      30.065  -0.361  53.338  1.00  0.00     0.007 A 
HETATM    8  C4  UNL     1      29.048  -1.314  53.387  1.00  0.00     0.018 A 
HETATM    9  C5  UNL     1      27.814  -0.840  53.775  1.00  0.00     0.096 A 
ENDBRANCH   2   3
ENDBRANCH   1   2
BRANCH   1  10
HETATM   10  C7  UNL     1      24.935   2.456  53.232  1.00  0.00     0.157 C 
BRANCH  10  11
HETATM   11  C8  UNL     1      24.793   3.074  51.917  1.00  0.00    -0.041 A 
HETATM   12  C9  UNL     1      25.546   3.001  50.760  1.00  0.00     0.011 A 
HETATM   13  C10 UNL     1      25.240   3.688  49.616  1.00  0.00     0.037 A 
HETATM   14  C11 UNL     1      24.144   4.517  49.525  1.00  0.00     0.065 A 
HETATM   15  C12 UNL     1      23.365   4.619  50.654  1.00  0.00     0.037 A 
HETATM   16  C13 UNL     1      23.685   3.928  51.782  1.00  0.00     0.011 A 
BRANCH  14  17
HETATM   17  O2  UNL     1      23.851   5.196  48.376  1.00  0.00    -0.361 OA
HETATM   18  H11 UNL     1      23.972   4.736  47.464  1.00  0.00     0.217 HD
ENDBRANCH  14  17
ENDBRANCH  10  11
ENDBRANCH   1  10
BRANCH   1  19
HETATM   19  C14 UNL     1      24.667   0.085  52.722  1.00  0.00     0.160 C 
BRANCH  19  20
HETATM   20  C15 UNL     1      23.274  -0.141  53.097  1.00  0.00    -0.006 A 
HETATM   21  C16 UNL     1      22.925  -0.740  54.289  1.00  0.00     0.012 A 
HETATM   22  C17 UNL     1      21.647  -1.008  54.769  1.00  0.00     0.002 A 
HETATM   23  C18 UNL     1      20.580  -0.642  53.980  1.00  0.00     0.022 A 
HETATM   24  C19 UNL     1      20.849  -0.038  52.775  1.00  0.00     0.044 A 
HETATM   25 BR1  UNL     1      19.341   0.458  51.704  1.00  0.00    -0.048 Br
HETATM   26  C20 UNL     1      22.153   0.195  52.367  1.00  0.00     0.090 A 
BRANCH  26  27
HETATM   27  O3  UNL     1      22.241   0.808  51.143  1.00  0.00    -0.359 OA
HETATM   28  H19 UNL     1      23.060   0.809  50.544  1.00  0.00     0.217 HD
ENDBRANCH  26  27
ENDBRANCH  19  20
ENDBRANCH   1  19
TORSDOF 8
ENDMDL
MODEL 7
REMARK VINA RESULT:      -7.8      2.622      6.448
REMARK  8 active torsions:
REMARK  status: ('A' for Active; 'I' for Inactive)
REMARK    1  A    between atoms: N1_7  and  C6_8 
REMARK    2  A    between atoms: C6_8  and  N2_9 
REMARK    3  A    between atoms: N2_9  and  C7_10 
REMARK    4  A    between atoms: N2_9  and  C14_18 
REMARK    5  A    between atoms: C7_10  and  C8_11 
REMARK    6  A    between atoms: C11_14  and  O2_15 
REMARK    7  A    between atoms: C14_18  and  C15_19 
REMARK    8  A    between atoms: C20_25  and  O3_26 
ROOT
HETATM    1  N2  UNL     1      23.513   2.014  51.782  1.00  0.00    -0.388 N 
ENDROOT
BRANCH   1   2
HETATM    2  C6  UNL     1      23.297   3.386  51.444  1.00  0.00     0.252 C 
BRANCH   2   3
HETATM    3  N1  UNL     1      24.449   3.890  50.674  1.00  0.00    -0.308 N 
HETATM    4  C1  UNL     1      24.641   5.184  50.358  1.00  0.00     0.248 A 
HETATM    5  O1  UNL     1      23.769   6.003  50.768  1.00  0.00    -0.268 OA
HETATM    6  C2  UNL     1      25.705   5.634  49.634  1.00  0.00     0.074 A 
HETATM    7  C3  UNL     1      26.641   4.718  49.198  1.00  0.00     0.007 A 
HETATM    8  C4  UNL     1      26.510   3.359  49.488  1.00  0.00     0.018 A 
HETATM    9  C5  UNL     1      25.396   3.019  50.224  1.00  0.00     0.096 A 
ENDBRANCH   2   3
ENDBRANCH   1   2
BRANCH   1  10
HETATM   10  C7  UNL     1      22.629   1.102  51.174  1.00  0.00     0.157 C 
BRANCH  10  11
HETATM   11  C8  UNL     1      21.606   0.456  51.991  1.00  0.00    -0.041 A 
HETATM   12  C9  UNL     1      21.672  -0.421  53.057  1.00  0.00     0.011 A 
HETATM   13  C10 UNL     1      20.567  -0.931  53.684  1.00  0.00     0.037 A 
HETATM   14  C11 UNL     1      19.285  -0.607  53.297  1.00  0.00     0.065 A 
HETATM   15  C12 UNL     1      19.172   0.264  52.239  1.00  0.00     0.037 A 
HETATM   16  C13 UNL     1      20.282   0.760  51.629  1.00  0.00     0.011 A 
BRANCH  14  17
HETATM   17  O2  UNL     1      18.192  -1.125  53.933  1.00  0.00    -0.361 OA
HETATM   18  H11 UNL     1      17.385  -1.450  53.383  1.00  0.00     0.217 HD
ENDBRANCH  14  17
ENDBRANCH  10  11
ENDBRANCH   1  10
BRANCH   1  19
HETATM   19  C14 UNL     1      24.065   1.730  53.044  1.00  0.00     0.160 C 
BRANCH  19  20
HETATM   20  C15 UNL     1      25.304   0.964  53.147  1.00  0.00    -0.006 A 
HETATM   21  C16 UNL     1      25.370  -0.368  52.799  1.00  0.00     0.012 A 
HETATM   22  C17 UNL     1      26.478  -1.210  52.842  1.00  0.00     0.002 A 
HETATM   23  C18 UNL     1      27.668  -0.674  53.281  1.00  0.00     0.022 A 
HETATM   24  C19 UNL     1      27.681   0.652  53.646  1.00  0.00     0.044 A 
HETATM   25 BR1  UNL     1      29.352   1.362  54.251  1.00  0.00    -0.048 Br
HETATM   26  C20 UNL     1      26.532   1.424  53.574  1.00  0.00     0.090 A 
BRANCH  26  27
HETATM   27  O3  UNL     1      26.722   2.723  53.971  1.00  0.00    -0.359 OA
HETATM   28  H19 UNL     1      26.777   3.525  53.352  1.00  0.00     0.217 HD
ENDBRANCH  26  27
ENDBRANCH  19  20
ENDBRANCH   1  19
TORSDOF 8
ENDMDL
MODEL 8
REMARK VINA RESULT:      -7.7      1.354      1.903
REMARK  8 active torsions:
REMARK  status: ('A' for Active; 'I' for Inactive)
REMARK    1  A    between atoms: N1_7  and  C6_8 
REMARK    2  A    between atoms: C6_8  and  N2_9 
REMARK    3  A    between atoms: N2_9  and  C7_10 
REMARK    4  A    between atoms: N2_9  and  C14_18 
REMARK    5  A    between atoms: C7_10  and  C8_11 
REMARK    6  A    between atoms: C11_14  and  O2_15 
REMARK    7  A    between atoms: C14_18  and  C15_19 
REMARK    8  A    between atoms: C20_25  and  O3_26 
ROOT
HETATM    1  N2  UNL     1      24.026   2.046  52.209  1.00  0.00    -0.388 N 
ENDROOT
BRANCH   1   2
HETATM    2  C6  UNL     1      22.716   2.305  52.718  1.00  0.00     0.252 C 
BRANCH   2   3
HETATM    3  N1  UNL     1      22.092   1.037  53.139  1.00  0.00    -0.308 N 
HETATM    4  C1  UNL     1      20.780   0.763  53.023  1.00  0.00     0.248 A 
HETATM    5  O1  UNL     1      20.057   1.663  52.506  1.00  0.00    -0.268 OA
HETATM    6  C2  UNL     1      20.215  -0.409  53.429  1.00  0.00     0.074 A 
HETATM    7  C3  UNL     1      21.028  -1.374  53.990  1.00  0.00     0.007 A 
HETATM    8  C4  UNL     1      22.398  -1.162  54.142  1.00  0.00     0.018 A 
HETATM    9  C5  UNL     1      22.859   0.058  53.698  1.00  0.00     0.096 A 
ENDBRANCH   2   3
ENDBRANCH   1   2
BRANCH   1  10
HETATM   10  C7  UNL     1      25.084   2.422  53.059  1.00  0.00     0.157 C 
BRANCH  10  11
HETATM   11  C8  UNL     1      26.260   1.563  53.149  1.00  0.00    -0.041 A 
HETATM   12  C9  UNL     1      26.437   0.198  53.022  1.00  0.00     0.011 A 
HETATM   13  C10 UNL     1      27.649  -0.422  53.162  1.00  0.00     0.037 A 
HETATM   14  C11 UNL     1      28.804   0.273  53.445  1.00  0.00     0.065 A 
HETATM   15  C12 UNL     1      28.675   1.636  53.580  1.00  0.00     0.037 A 
HETATM   16  C13 UNL     1      27.461   2.234  53.436  1.00  0.00     0.011 A 
BRANCH  14  17
HETATM   17  O2  UNL     1      30.007  -0.360  53.582  1.00  0.00    -0.361 OA
HETATM   18  H11 UNL     1      30.831  -0.013  53.072  1.00  0.00     0.217 HD
ENDBRANCH  14  17
ENDBRANCH  10  11
ENDBRANCH   1  10
BRANCH   1  19
HETATM   19  C14 UNL     1      24.200   2.062  50.813  1.00  0.00     0.160 C 
BRANCH  19  20
HETATM   20  C15 UNL     1      24.893   3.177  50.173  1.00  0.00    -0.006 A 
HETATM   21  C16 UNL     1      26.228   3.112  49.837  1.00  0.00     0.012 A 
HETATM   22  C17 UNL     1      27.003   4.091  49.222  1.00  0.00     0.002 A 
HETATM   23  C18 UNL     1      26.390   5.280  48.898  1.00  0.00     0.022 A 
HETATM   24  C19 UNL     1      25.056   5.418  49.201  1.00  0.00     0.044 A 
HETATM   25 BR1  UNL     1      24.235   7.084  48.735  1.00  0.00    -0.048 Br
HETATM   26  C20 UNL     1      24.352   4.395  49.815  1.00  0.00     0.090 A 
BRANCH  26  27
HETATM   27  O3  UNL     1      23.034   4.698  50.043  1.00  0.00    -0.359 OA
HETATM   28  H19 UNL     1      22.300   4.023  50.229  1.00  0.00     0.217 HD
ENDBRANCH  26  27
ENDBRANCH  19  20
ENDBRANCH   1  19
TORSDOF 8
ENDMDL
MODEL 9
REMARK VINA RESULT:      -7.6      3.035      5.676
REMARK  8 active torsions:
REMARK  status: ('A' for Active; 'I' for Inactive)
REMARK    1  A    between atoms: N1_7  and  C6_8 
REMARK    2  A    between atoms: C6_8  and  N2_9 
REMARK    3  A    between atoms: N2_9  and  C7_10 
REMARK    4  A    between atoms: N2_9  and  C14_18 
REMARK    5  A    between atoms: C7_10  and  C8_11 
REMARK    6  A    between atoms: C11_14  and  O2_15 
REMARK    7  A    between atoms: C14_18  and  C15_19 
REMARK    8  A    between atoms: C20_25  and  O3_26 
ROOT
HETATM    1  N2  UNL     1      24.194   1.859  51.794  1.00  0.00    -0.388 N 
ENDROOT
BRANCH   1   2
HETATM    2  C6  UNL     1      23.527   3.013  51.279  1.00  0.00     0.252 C 
BRANCH   2   3
HETATM    3  N1  UNL     1      22.878   2.676  50.000  1.00  0.00    -0.308 N 
HETATM    4  C1  UNL     1      23.080   3.344  48.849  1.00  0.00     0.248 A 
HETATM    5  O1  UNL     1      23.892   4.313  48.891  1.00  0.00    -0.268 OA
HETATM    6  C2  UNL     1      22.462   3.029  47.675  1.00  0.00     0.074 A 
HETATM    7  C3  UNL     1      21.579   1.967  47.658  1.00  0.00     0.007 A 
HETATM    8  C4  UNL     1      21.319   1.228  48.812  1.00  0.00     0.018 A 
HETATM    9  C5  UNL     1      21.999   1.636  49.939  1.00  0.00     0.096 A 
ENDBRANCH   2   3
ENDBRANCH   1   2
BRANCH   1  10
HETATM   10  C7  UNL     1      23.907   1.551  53.138  1.00  0.00     0.157 C 
BRANCH  10  11
HETATM   11  C8  UNL     1      22.900   0.537  53.433  1.00  0.00    -0.041 A 
HETATM   12  C9  UNL     1      22.980  -0.821  53.680  1.00  0.00     0.011 A 
HETATM   13  C10 UNL     1      21.887  -1.609  53.925  1.00  0.00     0.037 A 
HETATM   14  C11 UNL     1      20.605  -1.105  53.944  1.00  0.00     0.065 A 
HETATM   15  C12 UNL     1      20.478   0.243  53.703  1.00  0.00     0.037 A 
HETATM   16  C13 UNL     1      21.577   1.009  53.462  1.00  0.00     0.011 A 
BRANCH  14  17
HETATM   17  O2  UNL     1      19.524  -1.905  54.189  1.00  0.00    -0.361 OA
HETATM   18  H11 UNL     1      19.664  -2.864  54.535  1.00  0.00     0.217 HD
ENDBRANCH  14  17
ENDBRANCH  10  11
ENDBRANCH   1  10
BRANCH   1  19
HETATM   19  C14 UNL     1      25.445   1.526  51.244  1.00  0.00     0.160 C 
BRANCH  19  20
HETATM   20  C15 UNL     1      26.471   0.905  52.077  1.00  0.00    -0.006 A 
HETATM   21  C16 UNL     1      26.590  -0.463  52.194  1.00  0.00     0.012 A 
HETATM   22  C17 UNL     1      27.519  -1.181  52.942  1.00  0.00     0.002 A 
HETATM   23  C18 UNL     1      28.445  -0.463  53.664  1.00  0.00     0.022 A 
HETATM   24  C19 UNL     1      28.391   0.909  53.597  1.00  0.00     0.044 A 
HETATM   25 BR1  UNL     1      29.695   1.873  54.614  1.00  0.00    -0.048 Br
HETATM   26  C20 UNL     1      27.433   1.550  52.827  1.00  0.00     0.090 A 
BRANCH  26  27
HETATM   27  O3  UNL     1      27.523   2.918  52.871  1.00  0.00    -0.359 OA
HETATM   28  H19 UNL     1      26.900   3.563  52.396  1.00  0.00     0.217 HD
ENDBRANCH  26  27
ENDBRANCH  19  20
ENDBRANCH   1  19
TORSDOF 8
ENDMDL
