MODEL 1
REMARK VINA RESULT:      -6.7      0.000      0.000
REMARK  5 active torsions:
REMARK  status: ('A' for Active; 'I' for Inactive)
REMARK    1  A    between atoms: C3_3  and  C4_4 
REMARK    2  A    between atoms: C4_4  and  C5_6 
REMARK    3  A    between atoms: C7_8  and  N1_9 
REMARK    4  A    between atoms: C19_24  and  C20_25 
REMARK    5  A    between atoms: C20_25  and  N4_26 
ROOT
HETATM    1  C1  UNL     1      28.825   6.192  47.922  1.00  0.00     0.112 C 
HETATM    2  C2  UNL     1      27.902   5.239  48.565  1.00  0.00    -0.102 C 
HETATM    3  C3  UNL     1      27.148   4.465  49.108  1.00  0.00    -0.024 C 
ENDROOT
BRANCH   3   4
HETATM    4  C4  UNL     1      26.262   3.568  49.762  1.00  0.00     0.235 C 
HETATM    5  O1  UNL     1      26.746   2.478  50.203  1.00  0.00    -0.278 OA
BRANCH   4   6
HETATM    6  C5  UNL     1      24.837   3.908  49.915  1.00  0.00     0.031 A 
HETATM    7  C6  UNL     1      24.278   5.041  49.518  1.00  0.00     0.032 A 
HETATM    8  C7  UNL     1      22.877   4.995  49.828  1.00  0.00     0.120 A 
HETATM    9  C14 UNL     1      22.023   6.118  50.076  1.00  0.00     0.076 C 
HETATM   10  C18 UNL     1      22.679   3.793  50.612  1.00  0.00     0.006 A 
HETATM   11  C15 UNL     1      22.111   7.476  49.762  1.00  0.00     0.100 C 
HETATM   12  C16 UNL     1      20.937   5.699  50.761  1.00  0.00     0.137 C 
HETATM   13  N2  UNL     1      22.202   8.579  49.505  1.00  0.00    -0.192 NA
HETATM   14  N3  UNL     1      20.550   4.441  51.291  1.00  0.00    -0.271 NA
HETATM   15  C17 UNL     1      21.385   3.460  51.201  1.00  0.00     0.127 C 
HETATM   16  C19 UNL     1      23.834   3.101  50.620  1.00  0.00    -0.005 A 
BRANCH   8  17
HETATM   17  N1  UNL     1      22.330   4.528  48.381  1.00  0.00    -0.359 N 
HETATM   18  C8  UNL     1      22.711   5.581  47.494  1.00  0.00     0.107 A 
HETATM   19  C9  UNL     1      22.303   5.581  46.213  1.00  0.00     0.026 A 
HETATM   20 BR1  UNL     1      22.705   6.882  44.914  1.00  0.00    -0.050 Br
HETATM   21  C10 UNL     1      21.502   4.454  45.757  1.00  0.00     0.018 A 
HETATM   22  C11 UNL     1      21.202   3.473  46.586  1.00  0.00    -0.001 A 
HETATM   23  C12 UNL     1      21.598   3.351  48.013  1.00  0.00     0.104 A 
HETATM   24  C13 UNL     1      22.277   2.046  48.156  1.00  0.00     0.037 C 
ENDBRANCH   8  17
BRANCH  16  25
HETATM   25  C20 UNL     1      24.161   1.781  51.191  1.00  0.00     0.306 C 
BRANCH  25  26
HETATM   26  N4  UNL     1      24.704   1.817  52.508  1.00  0.00     0.082 N 
HETATM   27  H16 UNL     1      25.656   1.388  52.500  1.00  0.00     0.313 HD
HETATM   28  H17 UNL     1      24.125   1.279  53.158  1.00  0.00     0.313 HD
ENDBRANCH  25  26
ENDBRANCH  16  25
ENDBRANCH   4   6
ENDBRANCH   3   4
TORSDOF 5
ENDMDL
MODEL 2
REMARK VINA RESULT:      -6.5      6.844     11.116
REMARK  5 active torsions:
REMARK  status: ('A' for Active; 'I' for Inactive)
REMARK    1  A    between atoms: C3_3  and  C4_4 
REMARK    2  A    between atoms: C4_4  and  C5_6 
REMARK    3  A    between atoms: C7_8  and  N1_9 
REMARK    4  A    between atoms: C19_24  and  C20_25 
REMARK    5  A    between atoms: C20_25  and  N4_26 
ROOT
HETATM    1  C1  UNL     1      27.396   5.273  48.487  1.00  0.00     0.112 C 
HETATM    2  C2  UNL     1      28.246   6.475  48.566  1.00  0.00    -0.102 C 
HETATM    3  C3  UNL     1      28.959   7.449  48.633  1.00  0.00    -0.024 C 
ENDROOT
BRANCH   3   4
HETATM    4  C4  UNL     1      29.812   8.582  48.712  1.00  0.00     0.235 C 
HETATM    5  O1  UNL     1      29.348   9.633  49.257  1.00  0.00    -0.278 OA
BRANCH   4   6
HETATM    6  C5  UNL     1      31.182   8.522  48.174  1.00  0.00     0.031 A 
HETATM    7  C6  UNL     1      32.054   7.556  48.420  1.00  0.00     0.032 A 
HETATM    8  C7  UNL     1      33.268   7.843  47.712  1.00  0.00     0.120 A 
HETATM    9  C14 UNL     1      34.587   7.416  48.076  1.00  0.00     0.076 C 
HETATM   10  C18 UNL     1      33.105   9.171  47.156  1.00  0.00     0.006 A 
HETATM   11  C15 UNL     1      35.070   6.389  48.889  1.00  0.00     0.100 C 
HETATM   12  C16 UNL     1      35.489   8.222  47.476  1.00  0.00     0.137 C 
HETATM   13  N2  UNL     1      35.447   5.552  49.561  1.00  0.00    -0.192 NA
HETATM   14  N3  UNL     1      35.368   9.373  46.655  1.00  0.00    -0.271 NA
HETATM   15  C17 UNL     1      34.186   9.849  46.447  1.00  0.00     0.127 C 
HETATM   16  C19 UNL     1      31.835   9.564  47.374  1.00  0.00    -0.005 A 
BRANCH   8  17
HETATM   17  N1  UNL     1      33.011   6.917  46.414  1.00  0.00    -0.359 N 
HETATM   18  C8  UNL     1      32.873   5.594  46.937  1.00  0.00     0.107 A 
HETATM   19  C9  UNL     1      32.770   4.537  46.112  1.00  0.00     0.026 A 
HETATM   20 BR1  UNL     1      32.588   2.736  46.625  1.00  0.00    -0.050 Br
HETATM   21  C10 UNL     1      32.760   4.795  44.679  1.00  0.00     0.018 A 
HETATM   22  C11 UNL     1      32.844   6.030  44.225  1.00  0.00    -0.001 A 
HETATM   23  C12 UNL     1      32.952   7.276  45.027  1.00  0.00     0.104 A 
HETATM   24  C13 UNL     1      31.848   8.158  44.593  1.00  0.00     0.037 C 
ENDBRANCH   8  17
BRANCH  16  25
HETATM   25  C20 UNL     1      31.118  10.780  46.947  1.00  0.00     0.306 C 
BRANCH  25  26
HETATM   26  N4  UNL     1      31.223  11.882  47.845  1.00  0.00     0.082 N 
HETATM   27  H16 UNL     1      31.446  12.747  47.304  1.00  0.00     0.313 HD
HETATM   28  H17 UNL     1      31.976  11.733  48.521  1.00  0.00     0.313 HD
ENDBRANCH  25  26
ENDBRANCH  16  25
ENDBRANCH   4   6
ENDBRANCH   3   4
TORSDOF 5
ENDMDL
MODEL 3
REMARK VINA RESULT:      -6.5      7.803     10.985
REMARK  5 active torsions:
REMARK  status: ('A' for Active; 'I' for Inactive)
REMARK    1  A    between atoms: C3_3  and  C4_4 
REMARK    2  A    between atoms: C4_4  and  C5_6 
REMARK    3  A    between atoms: C7_8  and  N1_9 
REMARK    4  A    between atoms: C19_24  and  C20_25 
REMARK    5  A    between atoms: C20_25  and  N4_26 
ROOT
HETATM    1  C1  UNL     1      27.739   9.213  44.090  1.00  0.00     0.112 C 
HETATM    2  C2  UNL     1      28.337   8.469  45.213  1.00  0.00    -0.102 C 
HETATM    3  C3  UNL     1      28.829   7.875  46.144  1.00  0.00    -0.024 C 
ENDROOT
BRANCH   3   4
HETATM    4  C4  UNL     1      29.405   7.193  47.250  1.00  0.00     0.235 C 
HETATM    5  O1  UNL     1      28.615   6.717  48.125  1.00  0.00    -0.278 OA
BRANCH   4   6
HETATM    6  C5  UNL     1      30.867   7.055  47.360  1.00  0.00     0.031 A 
HETATM    7  C6  UNL     1      31.573   6.037  46.892  1.00  0.00     0.032 A 
HETATM    8  C7  UNL     1      32.959   6.268  47.181  1.00  0.00     0.120 A 
HETATM    9  C14 UNL     1      33.971   5.268  47.353  1.00  0.00     0.076 C 
HETATM   10  C18 UNL     1      33.002   7.443  48.027  1.00  0.00     0.006 A 
HETATM   11  C15 UNL     1      34.070   3.930  46.966  1.00  0.00     0.100 C 
HETATM   12  C16 UNL     1      35.002   5.803  48.042  1.00  0.00     0.137 C 
HETATM   13  N2  UNL     1      34.132   2.839  46.651  1.00  0.00    -0.192 NA
HETATM   14  N3  UNL     1      35.218   7.074  48.635  1.00  0.00    -0.271 NA
HETATM   15  C17 UNL     1      34.249   7.927  48.612  1.00  0.00     0.127 C 
HETATM   16  C19 UNL     1      31.760   7.960  48.092  1.00  0.00    -0.005 A 
BRANCH   8  17
HETATM   17  N1  UNL     1      33.399   6.884  45.754  1.00  0.00    -0.359 N 
HETATM   18  C8  UNL     1      33.152   5.834  44.816  1.00  0.00     0.107 A 
HETATM   19  C9  UNL     1      33.526   5.960  43.531  1.00  0.00     0.026 A 
HETATM   20 BR1  UNL     1      33.285   4.683  42.170  1.00  0.00    -0.050 Br
HETATM   21  C10 UNL     1      34.145   7.213  43.125  1.00  0.00     0.018 A 
HETATM   22  C11 UNL     1      34.321   8.182  44.002  1.00  0.00    -0.001 A 
HETATM   23  C12 UNL     1      33.946   8.172  45.439  1.00  0.00     0.104 A 
HETATM   24  C13 UNL     1      33.089   9.355  45.664  1.00  0.00     0.037 C 
ENDBRANCH   8  17
BRANCH  16  25
HETATM   25  C20 UNL     1      31.262   9.188  48.740  1.00  0.00     0.306 C 
BRANCH  25  26
HETATM   26  N4  UNL     1      30.350   8.969  49.813  1.00  0.00     0.082 N 
HETATM   27  H16 UNL     1      29.940   9.884  50.109  1.00  0.00     0.313 HD
HETATM   28  H17 UNL     1      30.826   8.564  50.623  1.00  0.00     0.313 HD
ENDBRANCH  25  26
ENDBRANCH  16  25
ENDBRANCH   4   6
ENDBRANCH   3   4
TORSDOF 5
ENDMDL
MODEL 4
REMARK VINA RESULT:      -6.5      2.274      2.889
REMARK  5 active torsions:
REMARK  status: ('A' for Active; 'I' for Inactive)
REMARK    1  A    between atoms: C3_3  and  C4_4 
REMARK    2  A    between atoms: C4_4  and  C5_6 
REMARK    3  A    between atoms: C7_8  and  N1_9 
REMARK    4  A    between atoms: C19_24  and  C20_25 
REMARK    5  A    between atoms: C20_25  and  N4_26 
ROOT
HETATM    1  C1  UNL     1      27.456   5.883  48.443  1.00  0.00     0.112 C 
HETATM    2  C2  UNL     1      26.297   6.224  49.287  1.00  0.00    -0.102 C 
HETATM    3  C3  UNL     1      25.351   6.489  49.992  1.00  0.00    -0.024 C 
ENDROOT
BRANCH   3   4
HETATM    4  C4  UNL     1      24.247   6.789  50.834  1.00  0.00     0.235 C 
HETATM    5  O1  UNL     1      24.305   7.854  51.525  1.00  0.00    -0.278 OA
BRANCH   4   6
HETATM    6  C5  UNL     1      23.086   5.884  50.891  1.00  0.00     0.031 A 
HETATM    7  C6  UNL     1      22.059   5.911  50.056  1.00  0.00     0.032 A 
HETATM    8  C7  UNL     1      21.140   4.872  50.425  1.00  0.00     0.120 A 
HETATM    9  C14 UNL     1      19.728   4.861  50.185  1.00  0.00     0.076 C 
HETATM   10  C18 UNL     1      21.629   4.330  51.676  1.00  0.00     0.006 A 
HETATM   11  C15 UNL     1      18.903   5.544  49.289  1.00  0.00     0.100 C 
HETATM   12  C16 UNL     1      19.145   3.993  51.040  1.00  0.00     0.137 C 
HETATM   13  N2  UNL     1      18.245   6.115  48.558  1.00  0.00    -0.192 NA
HETATM   14  N3  UNL     1      19.644   3.192  52.100  1.00  0.00    -0.271 NA
HETATM   15  C17 UNL     1      20.890   3.312  52.418  1.00  0.00     0.127 C 
HETATM   16  C19 UNL     1      22.828   4.886  51.935  1.00  0.00    -0.005 A 
BRANCH   8  17
HETATM   17  N1  UNL     1      21.623   3.744  49.375  1.00  0.00    -0.359 N 
HETATM   18  C8  UNL     1      21.548   4.383  48.099  1.00  0.00     0.107 A 
HETATM   19  C9  UNL     1      21.764   3.687  46.969  1.00  0.00     0.026 A 
HETATM   20 BR1  UNL     1      21.702   4.363  45.214  1.00  0.00    -0.050 Br
HETATM   21  C10 UNL     1      22.117   2.281  47.097  1.00  0.00     0.018 A 
HETATM   22  C11 UNL     1      22.223   1.727  48.289  1.00  0.00    -0.001 A 
HETATM   23  C12 UNL     1      22.020   2.386  49.606  1.00  0.00     0.104 A 
HETATM   24  C13 UNL     1      23.251   2.154  50.391  1.00  0.00     0.037 C 
ENDBRANCH   8  17
BRANCH  16  25
HETATM   25  C20 UNL     1      23.793   4.631  53.022  1.00  0.00     0.306 C 
BRANCH  25  26
HETATM   26  N4  UNL     1      24.079   5.759  53.844  1.00  0.00     0.082 N 
HETATM   27  H16 UNL     1      24.461   6.529  53.250  1.00  0.00     0.313 HD
HETATM   28  H17 UNL     1      24.784   5.530  54.549  1.00  0.00     0.313 HD
ENDBRANCH  25  26
ENDBRANCH  16  25
ENDBRANCH   4   6
ENDBRANCH   3   4
TORSDOF 5
ENDMDL
MODEL 5
REMARK VINA RESULT:      -6.3      5.549      9.389
REMARK  5 active torsions:
REMARK  status: ('A' for Active; 'I' for Inactive)
REMARK    1  A    between atoms: C3_3  and  C4_4 
REMARK    2  A    between atoms: C4_4  and  C5_6 
REMARK    3  A    between atoms: C7_8  and  N1_9 
REMARK    4  A    between atoms: C19_24  and  C20_25 
REMARK    5  A    between atoms: C20_25  and  N4_26 
ROOT
HETATM    1  C1  UNL     1      26.352   5.009  49.032  1.00  0.00     0.112 C 
HETATM    2  C2  UNL     1      27.732   5.270  48.583  1.00  0.00    -0.102 C 
HETATM    3  C3  UNL     1      28.870   5.478  48.231  1.00  0.00    -0.024 C 
ENDROOT
BRANCH   3   4
HETATM    4  C4  UNL     1      30.213   5.711  47.833  1.00  0.00     0.235 C 
HETATM    5  O1  UNL     1      31.017   4.726  47.868  1.00  0.00    -0.278 OA
BRANCH   4   6
HETATM    6  C5  UNL     1      30.640   7.052  47.398  1.00  0.00     0.031 A 
HETATM    7  C6  UNL     1      30.048   7.771  46.457  1.00  0.00     0.032 A 
HETATM    8  C7  UNL     1      30.744   9.019  46.328  1.00  0.00     0.120 A 
HETATM    9  C14 UNL     1      30.815   9.836  45.153  1.00  0.00     0.076 C 
HETATM   10  C18 UNL     1      31.923   8.910  47.162  1.00  0.00     0.006 A 
HETATM   11  C15 UNL     1      30.031   9.927  44.001  1.00  0.00     0.100 C 
HETATM   12  C16 UNL     1      31.885  10.654  45.253  1.00  0.00     0.137 C 
HETATM   13  N2  UNL     1      29.388   9.982  43.065  1.00  0.00    -0.192 NA
HETATM   14  N3  UNL     1      32.912  10.794  46.222  1.00  0.00    -0.271 NA
HETATM   15  C17 UNL     1      32.937   9.959  47.206  1.00  0.00     0.127 C 
HETATM   16  C19 UNL     1      31.841   7.759  47.857  1.00  0.00    -0.005 A 
BRANCH   8  17
HETATM   17  N1  UNL     1      29.778   9.925  47.254  1.00  0.00    -0.359 N 
HETATM   18  C8  UNL     1      28.485   9.797  46.660  1.00  0.00     0.107 A 
HETATM   19  C9  UNL     1      27.449  10.528  47.106  1.00  0.00     0.026 A 
HETATM   20 BR1  UNL     1      25.689  10.490  46.442  1.00  0.00    -0.050 Br
HETATM   21  C10 UNL     1      27.683  11.414  48.238  1.00  0.00     0.018 A 
HETATM   22  C11 UNL     1      28.876  11.479  48.795  1.00  0.00    -0.001 A 
HETATM   23  C12 UNL     1      30.093  10.721  48.404  1.00  0.00     0.104 A 
HETATM   24  C13 UNL     1      30.565  10.020  49.616  1.00  0.00     0.037 C 
ENDBRANCH   8  17
BRANCH  16  25
HETATM   25  C20 UNL     1      32.721   7.201  48.901  1.00  0.00     0.306 C 
BRANCH  25  26
HETATM   26  N4  UNL     1      33.705   6.285  48.427  1.00  0.00     0.082 N 
HETATM   27  H16 UNL     1      33.230   5.488  47.947  1.00  0.00     0.313 HD
HETATM   28  H17 UNL     1      34.253   5.902  49.201  1.00  0.00     0.313 HD
ENDBRANCH  25  26
ENDBRANCH  16  25
ENDBRANCH   4   6
ENDBRANCH   3   4
TORSDOF 5
ENDMDL
MODEL 6
REMARK VINA RESULT:      -6.2      2.585      5.129
REMARK  5 active torsions:
REMARK  status: ('A' for Active; 'I' for Inactive)
REMARK    1  A    between atoms: C3_3  and  C4_4 
REMARK    2  A    between atoms: C4_4  and  C5_6 
REMARK    3  A    between atoms: C7_8  and  N1_9 
REMARK    4  A    between atoms: C19_24  and  C20_25 
REMARK    5  A    between atoms: C20_25  and  N4_26 
ROOT
HETATM    1  C1  UNL     1      22.495   6.962  44.387  1.00  0.00     0.112 C 
HETATM    2  C2  UNL     1      22.255   5.915  45.396  1.00  0.00    -0.102 C 
HETATM    3  C3  UNL     1      22.045   5.067  46.233  1.00  0.00    -0.024 C 
ENDROOT
BRANCH   3   4
HETATM    4  C4  UNL     1      21.782   4.081  47.221  1.00  0.00     0.235 C 
HETATM    5  O1  UNL     1      21.062   3.088  46.885  1.00  0.00    -0.278 OA
BRANCH   4   6
HETATM    6  C5  UNL     1      22.332   4.223  48.580  1.00  0.00     0.031 A 
HETATM    7  C6  UNL     1      23.571   3.920  48.934  1.00  0.00     0.032 A 
HETATM    8  C7  UNL     1      23.731   4.205  50.331  1.00  0.00     0.120 A 
HETATM    9  C14 UNL     1      24.652   3.573  51.229  1.00  0.00     0.076 C 
HETATM   10  C18 UNL     1      22.412   4.544  50.826  1.00  0.00     0.006 A 
HETATM   11  C15 UNL     1      25.832   2.850  51.039  1.00  0.00     0.100 C 
HETATM   12  C16 UNL     1      24.221   3.751  52.496  1.00  0.00     0.137 C 
HETATM   13  N2  UNL     1      26.787   2.258  50.866  1.00  0.00    -0.192 NA
HETATM   14  N3  UNL     1      23.065   4.360  53.051  1.00  0.00    -0.271 NA
HETATM   15  C17 UNL     1      22.160   4.798  52.241  1.00  0.00     0.127 C 
HETATM   16  C19 UNL     1      21.576   4.618  49.773  1.00  0.00    -0.005 A 
BRANCH   8  17
HETATM   17  N1  UNL     1      24.410   5.665  50.199  1.00  0.00    -0.359 N 
HETATM   18  C8  UNL     1      25.579   5.449  49.406  1.00  0.00     0.107 A 
HETATM   19  C9  UNL     1      26.461   6.442  49.198  1.00  0.00     0.026 A 
HETATM   20 BR1  UNL     1      28.046   6.333  48.190  1.00  0.00    -0.050 Br
HETATM   21  C10 UNL     1      26.159   7.746  49.770  1.00  0.00     0.018 A 
HETATM   22  C11 UNL     1      25.051   7.929  50.461  1.00  0.00    -0.001 A 
HETATM   23  C12 UNL     1      23.998   6.922  50.752  1.00  0.00     0.104 A 
HETATM   24  C13 UNL     1      22.720   7.494  50.279  1.00  0.00     0.037 C 
ENDBRANCH   8  17
BRANCH  16  25
HETATM   25  C20 UNL     1      20.154   5.007  49.699  1.00  0.00     0.306 C 
BRANCH  25  26
HETATM   26  N4  UNL     1      19.247   3.921  49.527  1.00  0.00     0.082 N 
HETATM   27  H16 UNL     1      18.900   3.916  48.541  1.00  0.00     0.313 HD
HETATM   28  H17 UNL     1      18.435   4.021  50.142  1.00  0.00     0.313 HD
ENDBRANCH  25  26
ENDBRANCH  16  25
ENDBRANCH   4   6
ENDBRANCH   3   4
TORSDOF 5
ENDMDL
MODEL 7
REMARK VINA RESULT:      -6.1      2.981      3.838
REMARK  5 active torsions:
REMARK  status: ('A' for Active; 'I' for Inactive)
REMARK    1  A    between atoms: C3_3  and  C4_4 
REMARK    2  A    between atoms: C4_4  and  C5_6 
REMARK    3  A    between atoms: C7_8  and  N1_9 
REMARK    4  A    between atoms: C19_24  and  C20_25 
REMARK    5  A    between atoms: C20_25  and  N4_26 
ROOT
HETATM    1  C1  UNL     1      24.480   8.035  50.212  1.00  0.00     0.112 C 
HETATM    2  C2  UNL     1      24.083   6.844  50.984  1.00  0.00    -0.102 C 
HETATM    3  C3  UNL     1      23.775   5.863  51.621  1.00  0.00    -0.024 C 
ENDROOT
BRANCH   3   4
HETATM    4  C4  UNL     1      23.433   4.709  52.376  1.00  0.00     0.235 C 
HETATM    5  O1  UNL     1      24.053   4.515  53.469  1.00  0.00    -0.278 OA
BRANCH   4   6
HETATM    6  C5  UNL     1      22.395   3.783  51.892  1.00  0.00     0.031 A 
HETATM    7  C6  UNL     1      21.120   4.094  51.717  1.00  0.00     0.032 A 
HETATM    8  C7  UNL     1      20.429   2.937  51.226  1.00  0.00     0.120 A 
HETATM    9  C14 UNL     1      19.038   2.639  51.398  1.00  0.00     0.076 C 
HETATM   10  C18 UNL     1      21.379   1.845  51.289  1.00  0.00     0.006 A 
HETATM   11  C15 UNL     1      17.922   3.421  51.701  1.00  0.00     0.100 C 
HETATM   12  C16 UNL     1      18.849   1.314  51.220  1.00  0.00     0.137 C 
HETATM   13  N2  UNL     1      17.025   4.071  51.957  1.00  0.00    -0.192 NA
HETATM   14  N3  UNL     1      19.732   0.232  50.969  1.00  0.00    -0.271 NA
HETATM   15  C17 UNL     1      21.001   0.473  50.962  1.00  0.00     0.127 C 
HETATM   16  C19 UNL     1      22.580   2.352  51.629  1.00  0.00    -0.005 A 
BRANCH   8  17
HETATM   17  N1  UNL     1      20.457   3.295  49.651  1.00  0.00    -0.359 N 
HETATM   18  C8  UNL     1      19.941   4.626  49.575  1.00  0.00     0.107 A 
HETATM   19  C9  UNL     1      19.706   5.204  48.384  1.00  0.00     0.026 A 
HETATM   20 BR1  UNL     1      19.029   6.936  48.100  1.00  0.00    -0.050 Br
HETATM   21  C10 UNL     1      20.036   4.445  47.186  1.00  0.00     0.018 A 
HETATM   22  C11 UNL     1      20.552   3.236  47.286  1.00  0.00    -0.001 A 
HETATM   23  C12 UNL     1      20.866   2.494  48.534  1.00  0.00     0.104 A 
HETATM   24  C13 UNL     1      22.290   2.108  48.452  1.00  0.00     0.037 C 
ENDBRANCH   8  17
BRANCH  16  25
HETATM   25  C20 UNL     1      23.898   1.702  51.751  1.00  0.00     0.306 C 
BRANCH  25  26
HETATM   26  N4  UNL     1      24.275   1.359  53.083  1.00  0.00     0.082 N 
HETATM   27  H16 UNL     1      23.800   2.006  53.752  1.00  0.00     0.313 HD
HETATM   28  H17 UNL     1      25.284   1.459  53.216  1.00  0.00     0.313 HD
ENDBRANCH  25  26
ENDBRANCH  16  25
ENDBRANCH   4   6
ENDBRANCH   3   4
TORSDOF 5
ENDMDL
MODEL 8
REMARK VINA RESULT:      -6.1      2.397      4.949
REMARK  5 active torsions:
REMARK  status: ('A' for Active; 'I' for Inactive)
REMARK    1  A    between atoms: C3_3  and  C4_4 
REMARK    2  A    between atoms: C4_4  and  C5_6 
REMARK    3  A    between atoms: C7_8  and  N1_9 
REMARK    4  A    between atoms: C19_24  and  C20_25 
REMARK    5  A    between atoms: C20_25  and  N4_26 
ROOT
HETATM    1  C1  UNL     1      21.709   5.514  44.568  1.00  0.00     0.112 C 
HETATM    2  C2  UNL     1      21.746   4.517  45.653  1.00  0.00    -0.102 C 
HETATM    3  C3  UNL     1      21.783   3.712  46.555  1.00  0.00    -0.024 C 
ENDROOT
BRANCH   3   4
HETATM    4  C4  UNL     1      21.829   2.781  47.628  1.00  0.00     0.235 C 
HETATM    5  O1  UNL     1      20.955   1.859  47.645  1.00  0.00    -0.278 OA
BRANCH   4   6
HETATM    6  C5  UNL     1      22.862   2.899  48.672  1.00  0.00     0.031 A 
HETATM    7  C6  UNL     1      23.983   3.594  48.558  1.00  0.00     0.032 A 
HETATM    8  C7  UNL     1      24.722   3.476  49.782  1.00  0.00     0.120 A 
HETATM    9  C14 UNL     1      26.142   3.583  49.933  1.00  0.00     0.076 C 
HETATM   10  C18 UNL     1      24.017   2.496  50.584  1.00  0.00     0.006 A 
HETATM   11  C15 UNL     1      27.148   4.155  49.150  1.00  0.00     0.100 C 
HETATM   12  C16 UNL     1      26.507   2.983  51.087  1.00  0.00     0.137 C 
HETATM   13  N2  UNL     1      27.955   4.619  48.498  1.00  0.00    -0.192 NA
HETATM   14  N3  UNL     1      25.788   2.263  52.075  1.00  0.00    -0.271 NA
HETATM   15  C17 UNL     1      24.534   2.035  51.869  1.00  0.00     0.127 C 
HETATM   16  C19 UNL     1      22.867   2.187  49.955  1.00  0.00    -0.005 A 
BRANCH   8  17
HETATM   17  N1  UNL     1      24.250   4.857  50.477  1.00  0.00    -0.359 N 
HETATM   18  C8  UNL     1      24.412   5.846  49.459  1.00  0.00     0.107 A 
HETATM   19  C9  UNL     1      24.226   7.149  49.732  1.00  0.00     0.026 A 
HETATM   20 BR1  UNL     1      24.400   8.578  48.520  1.00  0.00    -0.050 Br
HETATM   21  C10 UNL     1      23.816   7.506  51.082  1.00  0.00     0.018 A 
HETATM   22  C11 UNL     1      23.631   6.568  51.991  1.00  0.00    -0.001 A 
HETATM   23  C12 UNL     1      23.792   5.102  51.813  1.00  0.00     0.104 A 
HETATM   24  C13 UNL     1      22.517   4.481  52.227  1.00  0.00     0.037 C 
ENDBRANCH   8  17
BRANCH  16  25
HETATM   25  C20 UNL     1      21.749   1.317  50.366  1.00  0.00     0.306 C 
BRANCH  25  26
HETATM   26  N4  UNL     1      20.562   2.009  50.745  1.00  0.00     0.082 N 
HETATM   27  H16 UNL     1      19.816   1.314  50.971  1.00  0.00     0.313 HD
HETATM   28  H17 UNL     1      20.220   2.597  49.981  1.00  0.00     0.313 HD
ENDBRANCH  25  26
ENDBRANCH  16  25
ENDBRANCH   4   6
ENDBRANCH   3   4
TORSDOF 5
ENDMDL
MODEL 9
REMARK VINA RESULT:      -6.0      2.666      4.855
REMARK  5 active torsions:
REMARK  status: ('A' for Active; 'I' for Inactive)
REMARK    1  A    between atoms: C3_3  and  C4_4 
REMARK    2  A    between atoms: C4_4  and  C5_6 
REMARK    3  A    between atoms: C7_8  and  N1_9 
REMARK    4  A    between atoms: C19_24  and  C20_25 
REMARK    5  A    between atoms: C20_25  and  N4_26 
ROOT
HETATM    1  C1  UNL     1      21.567   0.190  52.314  1.00  0.00     0.112 C 
HETATM    2  C2  UNL     1      22.515   1.120  51.674  1.00  0.00    -0.102 C 
HETATM    3  C3  UNL     1      23.292   1.872  51.134  1.00  0.00    -0.024 C 
ENDROOT
BRANCH   3   4
HETATM    4  C4  UNL     1      24.200   2.748  50.480  1.00  0.00     0.235 C 
HETATM    5  O1  UNL     1      25.442   2.572  50.689  1.00  0.00    -0.278 OA
BRANCH   4   6
HETATM    6  C5  UNL     1      23.700   3.816  49.597  1.00  0.00     0.031 A 
HETATM    7  C6  UNL     1      22.935   3.628  48.534  1.00  0.00     0.032 A 
HETATM    8  C7  UNL     1      22.648   4.903  47.943  1.00  0.00     0.120 A 
HETATM    9  C14 UNL     1      22.343   5.155  46.566  1.00  0.00     0.076 C 
HETATM   10  C18 UNL     1      23.463   5.867  48.654  1.00  0.00     0.006 A 
HETATM   11  C15 UNL     1      21.881   4.347  45.525  1.00  0.00     0.100 C 
HETATM   12  C16 UNL     1      22.581   6.457  46.295  1.00  0.00     0.137 C 
HETATM   13  N2  UNL     1      21.512   3.674  44.686  1.00  0.00    -0.192 NA
HETATM   14  N3  UNL     1      23.099   7.529  47.066  1.00  0.00    -0.271 NA
HETATM   15  C17 UNL     1      23.516   7.272  48.262  1.00  0.00     0.127 C 
HETATM   16  C19 UNL     1      24.053   5.237  49.688  1.00  0.00    -0.005 A 
BRANCH   8  17
HETATM   17  N1  UNL     1      21.199   5.153  48.612  1.00  0.00    -0.359 N 
HETATM   18  C8  UNL     1      20.641   3.847  48.765  1.00  0.00     0.107 A 
HETATM   19  C9  UNL     1      19.374   3.685  49.183  1.00  0.00     0.026 A 
HETATM   20 BR1  UNL     1      18.483   2.047  49.435  1.00  0.00    -0.050 Br
HETATM   21  C10 UNL     1      18.613   4.881  49.515  1.00  0.00     0.018 A 
HETATM   22  C11 UNL     1      19.167   6.073  49.406  1.00  0.00    -0.001 A 
HETATM   23  C12 UNL     1      20.552   6.383  48.968  1.00  0.00     0.104 A 
HETATM   24  C13 UNL     1      21.165   7.197  50.038  1.00  0.00     0.037 C 
ENDBRANCH   8  17
BRANCH  16  25
HETATM   25  C20 UNL     1      24.910   5.759  50.770  1.00  0.00     0.306 C 
BRANCH  25  26
HETATM   26  N4  UNL     1      24.270   6.681  51.648  1.00  0.00     0.082 N 
HETATM   27  H16 UNL     1      24.927   7.463  51.864  1.00  0.00     0.313 HD
HETATM   28  H17 UNL     1      24.018   6.232  52.532  1.00  0.00     0.313 HD
ENDBRANCH  25  26
ENDBRANCH  16  25
ENDBRANCH   4   6
ENDBRANCH   3   4
TORSDOF 5
ENDMDL
