MODEL 1
REMARK VINA RESULT:      -7.1      0.000      0.000
REMARK  2 active torsions:
REMARK  status: ('A' for Active; 'I' for Inactive)
REMARK    1  A    between atoms: O1_2  and  C2_3 
REMARK    2  A    between atoms: C16_21  and  O2_22 
ROOT
HETATM    1  C2  UNL     1      32.354   4.233  46.775  1.00  0.00     0.105 C 
HETATM    2  C3  UNL     1      32.125   4.481  48.093  1.00  0.00     0.070 C 
HETATM    3  C4  UNL     1      32.627   5.685  48.805  1.00  0.00     0.051 C 
HETATM    4  C5  UNL     1      33.850   6.217  48.537  1.00  0.00     0.126 C 
HETATM    5  N1  UNL     1      33.784   6.931  47.279  1.00  0.00    -0.323 N 
HETATM    6  C6  UNL     1      33.968   8.272  46.685  1.00  0.00     0.207 C 
HETATM    7  N2  UNL     1      32.963   9.047  46.577  1.00  0.00    -0.278 NA
HETATM    8  C7  UNL     1      31.724   8.729  46.976  1.00  0.00     0.126 C 
HETATM    9  C8  UNL     1      30.409   8.856  46.299  1.00  0.00     0.031 C 
HETATM   10  C9  UNL     1      29.511   7.883  47.151  1.00  0.00     0.040 C 
HETATM   11  C10 UNL     1      30.127   7.874  48.579  1.00  0.00     0.083 A 
HETATM   12  C11 UNL     1      31.221   7.275  49.169  1.00  0.00     0.036 A 
HETATM   13  C12 UNL     1      32.387   8.273  49.132  1.00  0.00     0.017 A 
HETATM   14  C13 UNL     1      31.467   9.003  48.499  1.00  0.00     0.048 A 
HETATM   15  C14 UNL     1      30.428   9.830  49.275  1.00  0.00     0.133 C 
HETATM   16  N3  UNL     1      29.387   8.792  49.573  1.00  0.00    -0.405 N 
HETATM   17  N4  UNL     1      31.474   5.979  49.652  1.00  0.00    -0.356 N 
HETATM   18  C15 UNL     1      33.411   6.380  45.967  1.00  0.00     0.137 C 
HETATM   19  C16 UNL     1      32.905   5.141  45.728  1.00  0.00     0.117 C 
HETATM   20  H15 UNL     1      28.792   9.353  50.288  1.00  0.00     0.154 HD
HETATM   21  H16 UNL     1      30.992   5.435  50.302  1.00  0.00     0.166 HD
ENDROOT
BRANCH   1  22
HETATM   22  O1  UNL     1      32.021   2.949  46.372  1.00  0.00    -0.353 OA
HETATM   23  C1  UNL     1      32.672   1.852  46.959  1.00  0.00     0.210 C 
ENDBRANCH   1  22
BRANCH  19  24
HETATM   24  O2  UNL     1      32.900   4.705  44.439  1.00  0.00    -0.352 OA
HETATM   25  C17 UNL     1      34.087   4.708  43.665  1.00  0.00     0.210 C 
ENDBRANCH  19  24
TORSDOF 2
ENDMDL
MODEL 2
REMARK VINA RESULT:      -6.6      8.850     10.418
REMARK  2 active torsions:
REMARK  status: ('A' for Active; 'I' for Inactive)
REMARK    1  A    between atoms: O1_2  and  C2_3 
REMARK    2  A    between atoms: C16_21  and  O2_22 
ROOT
HETATM    1  C2  UNL     1      25.685   1.950  51.426  1.00  0.00     0.105 C 
HETATM    2  C3  UNL     1      24.563   1.455  52.014  1.00  0.00     0.070 C 
HETATM    3  C4  UNL     1      23.334   2.256  52.254  1.00  0.00     0.051 C 
HETATM    4  C5  UNL     1      23.393   3.565  52.617  1.00  0.00     0.126 C 
HETATM    5  N1  UNL     1      23.740   4.358  51.456  1.00  0.00    -0.323 N 
HETATM    6  C6  UNL     1      23.245   5.456  50.600  1.00  0.00     0.207 C 
HETATM    7  N2  UNL     1      22.572   5.176  49.556  1.00  0.00    -0.278 NA
HETATM    8  C7  UNL     1      22.269   3.928  49.172  1.00  0.00     0.126 C 
HETATM    9  C8  UNL     1      22.376   3.251  47.854  1.00  0.00     0.031 C 
HETATM   10  C9  UNL     1      22.292   1.732  48.264  1.00  0.00     0.040 C 
HETATM   11  C10 UNL     1      21.448   1.688  49.568  1.00  0.00     0.083 A 
HETATM   12  C11 UNL     1      21.685   1.966  50.899  1.00  0.00     0.036 A 
HETATM   13  C12 UNL     1      21.249   3.412  51.168  1.00  0.00     0.017 A 
HETATM   14  C13 UNL     1      20.983   3.354  49.862  1.00  0.00     0.048 A 
HETATM   15  C14 UNL     1      19.662   2.765  49.339  1.00  0.00     0.133 C 
HETATM   16  N3  UNL     1      19.974   1.298  49.332  1.00  0.00    -0.405 N 
HETATM   17  N4  UNL     1      22.315   1.259  51.939  1.00  0.00    -0.356 N 
HETATM   18  C15 UNL     1      24.948   4.230  50.626  1.00  0.00     0.137 C 
HETATM   19  C16 UNL     1      25.877   3.240  50.701  1.00  0.00     0.117 C 
HETATM   20  H15 UNL     1      18.971   0.915  49.168  1.00  0.00     0.154 HD
HETATM   21  H16 UNL     1      22.153   0.364  52.291  1.00  0.00     0.166 HD
ENDROOT
BRANCH   1  22
HETATM   22  O1  UNL     1      26.793   1.122  51.524  1.00  0.00    -0.353 OA
HETATM   23  C1  UNL     1      26.722  -0.028  52.326  1.00  0.00     0.210 C 
ENDBRANCH   1  22
BRANCH  19  24
HETATM   24  O2  UNL     1      27.063   3.445  50.067  1.00  0.00    -0.352 OA
HETATM   25  C17 UNL     1      27.164   4.357  48.987  1.00  0.00     0.210 C 
ENDBRANCH  19  24
TORSDOF 2
ENDMDL
MODEL 3
REMARK VINA RESULT:      -6.5      2.233      5.399
REMARK  2 active torsions:
REMARK  status: ('A' for Active; 'I' for Inactive)
REMARK    1  A    between atoms: O1_2  and  C2_3 
REMARK    2  A    between atoms: C16_21  and  O2_22 
ROOT
HETATM    1  C2  UNL     1      31.246   8.609  46.073  1.00  0.00     0.105 C 
HETATM    2  C3  UNL     1      32.606   8.600  46.058  1.00  0.00     0.070 C 
HETATM    3  C4  UNL     1      33.440   7.995  47.128  1.00  0.00     0.051 C 
HETATM    4  C5  UNL     1      33.087   8.071  48.440  1.00  0.00     0.126 C 
HETATM    5  N1  UNL     1      32.006   7.139  48.689  1.00  0.00    -0.323 N 
HETATM    6  C6  UNL     1      31.647   5.955  49.497  1.00  0.00     0.207 C 
HETATM    7  N2  UNL     1      31.840   4.792  49.017  1.00  0.00    -0.278 NA
HETATM    8  C7  UNL     1      32.363   4.558  47.805  1.00  0.00     0.126 C 
HETATM    9  C8  UNL     1      31.933   3.657  46.706  1.00  0.00     0.031 C 
HETATM   10  C9  UNL     1      32.722   4.248  45.478  1.00  0.00     0.040 C 
HETATM   11  C10 UNL     1      34.010   4.890  46.066  1.00  0.00     0.083 A 
HETATM   12  C11 UNL     1      34.303   6.061  46.733  1.00  0.00     0.036 A 
HETATM   13  C12 UNL     1      34.268   5.772  48.241  1.00  0.00     0.017 A 
HETATM   14  C13 UNL     1      33.931   4.563  47.787  1.00  0.00     0.048 A 
HETATM   15  C14 UNL     1      34.998   3.548  47.342  1.00  0.00     0.133 C 
HETATM   16  N3  UNL     1      35.258   3.994  45.933  1.00  0.00    -0.405 N 
HETATM   17  N4  UNL     1      34.495   7.392  46.319  1.00  0.00    -0.356 N 
HETATM   18  C15 UNL     1      30.690   7.114  48.032  1.00  0.00     0.137 C 
HETATM   19  C16 UNL     1      30.310   7.860  46.961  1.00  0.00     0.117 C 
HETATM   20  H15 UNL     1      36.148   3.403  45.734  1.00  0.00     0.154 HD
HETATM   21  H16 UNL     1      35.102   7.772  45.657  1.00  0.00     0.166 HD
ENDROOT
BRANCH   1  22
HETATM   22  O1  UNL     1      30.671   9.437  45.121  1.00  0.00    -0.353 OA
HETATM   23  C1  UNL     1      30.748  10.829  45.283  1.00  0.00     0.210 C 
ENDBRANCH   1  22
BRANCH  19  24
HETATM   24  O2  UNL     1      28.979   7.921  46.682  1.00  0.00    -0.352 OA
HETATM   25  C17 UNL     1      28.020   7.417  47.594  1.00  0.00     0.210 C 
ENDBRANCH  19  24
TORSDOF 2
ENDMDL
MODEL 4
REMARK VINA RESULT:      -6.5     10.813     12.497
REMARK  2 active torsions:
REMARK  status: ('A' for Active; 'I' for Inactive)
REMARK    1  A    between atoms: O1_2  and  C2_3 
REMARK    2  A    between atoms: C16_21  and  O2_22 
ROOT
HETATM    1  C2  UNL     1      21.983   0.061  52.614  1.00  0.00     0.105 C 
HETATM    2  C3  UNL     1      20.695   0.249  52.220  1.00  0.00     0.070 C 
HETATM    3  C4  UNL     1      20.101   1.583  51.947  1.00  0.00     0.051 C 
HETATM    4  C5  UNL     1      20.420   2.675  52.692  1.00  0.00     0.126 C 
HETATM    5  N1  UNL     1      21.741   3.131  52.312  1.00  0.00    -0.323 N 
HETATM    6  C6  UNL     1      22.461   4.301  51.764  1.00  0.00     0.207 C 
HETATM    7  N2  UNL     1      22.641   4.386  50.507  1.00  0.00    -0.278 NA
HETATM    8  C7  UNL     1      22.211   3.475  49.623  1.00  0.00     0.126 C 
HETATM    9  C8  UNL     1      22.895   2.805  48.488  1.00  0.00     0.031 C 
HETATM   10  C9  UNL     1      21.952   1.572  48.225  1.00  0.00     0.040 C 
HETATM   11  C10 UNL     1      20.532   2.016  48.672  1.00  0.00     0.083 A 
HETATM   12  C11 UNL     1      19.888   2.166  49.884  1.00  0.00     0.036 A 
HETATM   13  C12 UNL     1      20.023   3.632  50.317  1.00  0.00     0.017 A 
HETATM   14  C13 UNL     1      20.720   3.685  49.181  1.00  0.00     0.048 A 
HETATM   15  C14 UNL     1      20.025   3.866  47.821  1.00  0.00     0.133 C 
HETATM   16  N3  UNL     1      19.629   2.455  47.502  1.00  0.00    -0.405 N 
HETATM   17  N4  UNL     1      19.285   1.264  50.779  1.00  0.00    -0.356 N 
HETATM   18  C15 UNL     1      22.994   2.363  52.367  1.00  0.00     0.137 C 
HETATM   19  C16 UNL     1      23.113   1.034  52.632  1.00  0.00     0.117 C 
HETATM   20  H15 UNL     1      18.969   2.654  46.662  1.00  0.00     0.154 HD
HETATM   21  H16 UNL     1      18.585   0.599  50.639  1.00  0.00     0.166 HD
ENDROOT
BRANCH   1  22
HETATM   22  O1  UNL     1      22.262  -1.223  53.057  1.00  0.00    -0.353 OA
HETATM   23  C1  UNL     1      21.781  -1.640  54.308  1.00  0.00     0.210 C 
ENDBRANCH   1  22
BRANCH  19  24
HETATM   24  O2  UNL     1      24.355   0.565  52.932  1.00  0.00    -0.352 OA
HETATM   25  C17 UNL     1      25.482   0.943  52.162  1.00  0.00     0.210 C 
ENDBRANCH  19  24
TORSDOF 2
ENDMDL
MODEL 5
REMARK VINA RESULT:      -6.4      9.935     11.784
REMARK  2 active torsions:
REMARK  status: ('A' for Active; 'I' for Inactive)
REMARK    1  A    between atoms: O1_2  and  C2_3 
REMARK    2  A    between atoms: C16_21  and  O2_22 
ROOT
HETATM    1  C2  UNL     1      20.823   1.942  52.370  1.00  0.00     0.105 C 
HETATM    2  C3  UNL     1      22.056   1.468  52.048  1.00  0.00     0.070 C 
HETATM    3  C4  UNL     1      22.664   1.596  50.698  1.00  0.00     0.051 C 
HETATM    4  C5  UNL     1      21.921   1.486  49.565  1.00  0.00     0.126 C 
HETATM    5  N1  UNL     1      21.154   2.703  49.388  1.00  0.00    -0.323 N 
HETATM    6  C6  UNL     1      20.943   3.824  48.449  1.00  0.00     0.207 C 
HETATM    7  N2  UNL     1      21.619   4.893  48.595  1.00  0.00    -0.278 NA
HETATM    8  C7  UNL     1      22.534   5.076  49.558  1.00  0.00     0.126 C 
HETATM    9  C8  UNL     1      22.759   6.202  50.500  1.00  0.00     0.031 C 
HETATM   10  C9  UNL     1      23.667   5.528  51.596  1.00  0.00     0.040 C 
HETATM   11  C10 UNL     1      24.452   4.402  50.868  1.00  0.00     0.083 A 
HETATM   12  C11 UNL     1      24.154   3.128  50.427  1.00  0.00     0.036 A 
HETATM   13  C12 UNL     1      23.748   3.219  48.950  1.00  0.00     0.017 A 
HETATM   14  C13 UNL     1      23.952   4.515  49.190  1.00  0.00     0.048 A 
HETATM   15  C14 UNL     1      25.360   5.131  49.123  1.00  0.00     0.133 C 
HETATM   16  N3  UNL     1      25.891   4.803  50.486  1.00  0.00    -0.405 N 
HETATM   17  N4  UNL     1      24.048   1.881  51.068  1.00  0.00    -0.356 N 
HETATM   18  C15 UNL     1      20.177   3.277  50.325  1.00  0.00     0.137 C 
HETATM   19  C16 UNL     1      19.935   2.858  51.596  1.00  0.00     0.117 C 
HETATM   20  H15 UNL     1      26.935   5.058  50.324  1.00  0.00     0.154 HD
HETATM   21  H16 UNL     1      24.682   1.396  51.629  1.00  0.00     0.166 HD
ENDROOT
BRANCH   1  22
HETATM   22  O1  UNL     1      20.344   1.501  53.594  1.00  0.00    -0.353 OA
HETATM   23  C1  UNL     1      20.714   0.229  54.059  1.00  0.00     0.210 C 
ENDBRANCH   1  22
BRANCH  19  24
HETATM   24  O2  UNL     1      18.803   3.310  52.199  1.00  0.00    -0.352 OA
HETATM   25  C17 UNL     1      17.569   3.342  51.503  1.00  0.00     0.210 C 
ENDBRANCH  19  24
TORSDOF 2
ENDMDL
MODEL 6
REMARK VINA RESULT:      -6.1      4.075      6.300
REMARK  2 active torsions:
REMARK  status: ('A' for Active; 'I' for Inactive)
REMARK    1  A    between atoms: O1_2  and  C2_3 
REMARK    2  A    between atoms: C16_21  and  O2_22 
ROOT
HETATM    1  C2  UNL     1      29.625   8.481  48.116  1.00  0.00     0.105 C 
HETATM    2  C3  UNL     1      29.224   8.960  49.325  1.00  0.00     0.070 C 
HETATM    3  C4  UNL     1      27.963   9.716  49.536  1.00  0.00     0.051 C 
HETATM    4  C5  UNL     1      27.497  10.603  48.617  1.00  0.00     0.126 C 
HETATM    5  N1  UNL     1      26.927   9.869  47.506  1.00  0.00    -0.323 N 
HETATM    6  C6  UNL     1      25.666   9.671  46.761  1.00  0.00     0.207 C 
HETATM    7  N2  UNL     1      24.881   8.730  47.105  1.00  0.00    -0.278 NA
HETATM    8  C7  UNL     1      25.119   7.890  48.122  1.00  0.00     0.126 C 
HETATM    9  C8  UNL     1      25.032   6.410  48.216  1.00  0.00     0.031 C 
HETATM   10  C9  UNL     1      25.880   6.119  49.511  1.00  0.00     0.040 C 
HETATM   11  C10 UNL     1      25.746   7.386  50.403  1.00  0.00     0.083 A 
HETATM   12  C11 UNL     1      26.304   8.648  50.401  1.00  0.00     0.036 A 
HETATM   13  C12 UNL     1      25.349   9.590  49.655  1.00  0.00     0.017 A 
HETATM   14  C13 UNL     1      24.669   8.450  49.516  1.00  0.00     0.048 A 
HETATM   15  C14 UNL     1      23.733   7.936  50.623  1.00  0.00     0.133 C 
HETATM   16  N3  UNL     1      24.703   7.237  51.529  1.00  0.00    -0.405 N 
HETATM   17  N4  UNL     1      27.545   9.159  50.821  1.00  0.00    -0.356 N 
HETATM   18  C15 UNL     1      27.610   8.890  46.648  1.00  0.00     0.137 C 
HETATM   19  C16 UNL     1      28.854   8.376  46.843  1.00  0.00     0.117 C 
HETATM   20  H15 UNL     1      24.050   7.080  52.383  1.00  0.00     0.154 HD
HETATM   21  H16 UNL     1      28.000   9.103  51.682  1.00  0.00     0.166 HD
ENDROOT
BRANCH   1  22
HETATM   22  O1  UNL     1      30.936   8.031  48.087  1.00  0.00    -0.353 OA
HETATM   23  C1  UNL     1      31.984   8.964  48.143  1.00  0.00     0.210 C 
ENDBRANCH   1  22
BRANCH  19  24
HETATM   24  O2  UNL     1      29.431   7.720  45.800  1.00  0.00    -0.352 OA
HETATM   25  C17 UNL     1      30.173   8.421  44.818  1.00  0.00     0.210 C 
ENDBRANCH  19  24
TORSDOF 2
ENDMDL
MODEL 7
REMARK VINA RESULT:      -6.1     10.038     11.807
REMARK  2 active torsions:
REMARK  status: ('A' for Active; 'I' for Inactive)
REMARK    1  A    between atoms: O1_2  and  C2_3 
REMARK    2  A    between atoms: C16_21  and  O2_22 
ROOT
HETATM    1  C2  UNL     1      21.344   1.570  52.834  1.00  0.00     0.105 C 
HETATM    2  C3  UNL     1      20.633   2.698  52.564  1.00  0.00     0.070 C 
HETATM    3  C4  UNL     1      21.228   3.930  51.984  1.00  0.00     0.051 C 
HETATM    4  C5  UNL     1      22.474   4.353  52.328  1.00  0.00     0.126 C 
HETATM    5  N1  UNL     1      23.453   3.513  51.669  1.00  0.00    -0.323 N 
HETATM    6  C6  UNL     1      24.581   3.560  50.716  1.00  0.00     0.207 C 
HETATM    7  N2  UNL     1      24.357   3.370  49.478  1.00  0.00    -0.278 NA
HETATM    8  C7  UNL     1      23.143   3.130  48.963  1.00  0.00     0.126 C 
HETATM    9  C8  UNL     1      22.667   2.103  48.001  1.00  0.00     0.031 C 
HETATM   10  C9  UNL     1      21.110   2.142  48.233  1.00  0.00     0.040 C 
HETATM   11  C10 UNL     1      20.783   3.588  48.700  1.00  0.00     0.083 A 
HETATM   12  C11 UNL     1      20.909   4.287  49.883  1.00  0.00     0.036 A 
HETATM   13  C12 UNL     1      22.238   5.054  49.844  1.00  0.00     0.017 A 
HETATM   14  C13 UNL     1      22.320   4.432  48.666  1.00  0.00     0.048 A 
HETATM   15  C14 UNL     1      21.640   5.002  47.410  1.00  0.00     0.133 C 
HETATM   16  N3  UNL     1      20.240   4.489  47.573  1.00  0.00    -0.405 N 
HETATM   17  N4  UNL     1      20.158   4.325  51.072  1.00  0.00    -0.356 N 
HETATM   18  C15 UNL     1      23.594   2.054  51.795  1.00  0.00     0.137 C 
HETATM   19  C16 UNL     1      22.732   1.211  52.424  1.00  0.00     0.117 C 
HETATM   20  H15 UNL     1      19.755   5.079  46.800  1.00  0.00     0.154 HD
HETATM   21  H16 UNL     1      19.211   4.502  51.222  1.00  0.00     0.166 HD
ENDROOT
BRANCH   1  22
HETATM   22  O1  UNL     1      20.661   0.636  53.598  1.00  0.00    -0.353 OA
HETATM   23  C1  UNL     1      19.659  -0.144  52.998  1.00  0.00     0.210 C 
ENDBRANCH   1  22
BRANCH  19  24
HETATM   24  O2  UNL     1      23.172  -0.047  52.694  1.00  0.00    -0.352 OA
HETATM   25  C17 UNL     1      24.306  -0.262  53.517  1.00  0.00     0.210 C 
ENDBRANCH  19  24
TORSDOF 2
ENDMDL
MODEL 8
REMARK VINA RESULT:      -6.1      7.924     10.302
REMARK  2 active torsions:
REMARK  status: ('A' for Active; 'I' for Inactive)
REMARK    1  A    between atoms: O1_2  and  C2_3 
REMARK    2  A    between atoms: C16_21  and  O2_22 
ROOT
HETATM    1  C2  UNL     1      24.115   7.982  48.574  1.00  0.00     0.105 C 
HETATM    2  C3  UNL     1      24.243   7.971  49.928  1.00  0.00     0.070 C 
HETATM    3  C4  UNL     1      23.245   7.367  50.847  1.00  0.00     0.051 C 
HETATM    4  C5  UNL     1      21.909   7.445  50.605  1.00  0.00     0.126 C 
HETATM    5  N1  UNL     1      21.570   6.515  49.547  1.00  0.00    -0.323 N 
HETATM    6  C6  UNL     1      20.732   5.334  49.254  1.00  0.00     0.207 C 
HETATM    7  N2  UNL     1      21.224   4.170  49.405  1.00  0.00    -0.278 NA
HETATM    8  C7  UNL     1      22.475   3.933  49.825  1.00  0.00     0.126 C 
HETATM    9  C8  UNL     1      23.533   3.031  49.304  1.00  0.00     0.031 C 
HETATM   10  C9  UNL     1      24.824   3.619  49.989  1.00  0.00     0.040 C 
HETATM   11  C10 UNL     1      24.346   4.259  51.322  1.00  0.00     0.083 A 
HETATM   12  C11 UNL     1      23.707   5.431  51.672  1.00  0.00     0.036 A 
HETATM   13  C12 UNL     1      22.202   5.144  51.761  1.00  0.00     0.017 A 
HETATM   14  C13 UNL     1      22.623   3.935  51.386  1.00  0.00     0.048 A 
HETATM   15  C14 UNL     1      23.155   2.918  52.410  1.00  0.00     0.133 C 
HETATM   16  N3  UNL     1      24.580   3.361  52.553  1.00  0.00    -0.405 N 
HETATM   17  N4  UNL     1      24.139   6.760  51.830  1.00  0.00    -0.356 N 
HETATM   18  C15 UNL     1      22.114   6.492  48.181  1.00  0.00     0.137 C 
HETATM   19  C16 UNL     1      23.152   7.236  47.713  1.00  0.00     0.117 C 
HETATM   20  H15 UNL     1      24.852   2.768  53.423  1.00  0.00     0.154 HD
HETATM   21  H16 UNL     1      24.850   7.139  52.380  1.00  0.00     0.166 HD
ENDROOT
BRANCH   1  22
HETATM   22  O1  UNL     1      25.018   8.809  47.922  1.00  0.00    -0.353 OA
HETATM   23  C1  UNL     1      25.726   9.771  48.660  1.00  0.00     0.210 C 
ENDBRANCH   1  22
BRANCH  19  24
HETATM   24  O2  UNL     1      23.319   7.299  46.365  1.00  0.00    -0.352 OA
HETATM   25  C17 UNL     1      22.408   6.661  45.487  1.00  0.00     0.210 C 
ENDBRANCH  19  24
TORSDOF 2
ENDMDL
MODEL 9
REMARK VINA RESULT:      -6.0      2.954      5.383
REMARK  2 active torsions:
REMARK  status: ('A' for Active; 'I' for Inactive)
REMARK    1  A    between atoms: O1_2  and  C2_3 
REMARK    2  A    between atoms: C16_21  and  O2_22 
ROOT
HETATM    1  C2  UNL     1      29.401   8.937  48.994  1.00  0.00     0.105 C 
HETATM    2  C3  UNL     1      29.096   7.699  48.523  1.00  0.00     0.070 C 
HETATM    3  C4  UNL     1      29.683   7.118  47.288  1.00  0.00     0.051 C 
HETATM    4  C5  UNL     1      29.935   7.878  46.189  1.00  0.00     0.126 C 
HETATM    5  N1  UNL     1      31.119   8.676  46.433  1.00  0.00    -0.323 N 
HETATM    6  C6  UNL     1      32.483   8.930  45.923  1.00  0.00     0.207 C 
HETATM    7  N2  UNL     1      33.461   8.277  46.411  1.00  0.00    -0.278 NA
HETATM    8  C7  UNL     1      33.339   7.351  47.372  1.00  0.00     0.126 C 
HETATM    9  C8  UNL     1      34.094   7.137  48.633  1.00  0.00     0.031 C 
HETATM   10  C9  UNL     1      33.120   6.194  49.435  1.00  0.00     0.040 C 
HETATM   11  C10 UNL     1      32.322   5.395  48.367  1.00  0.00     0.083 A 
HETATM   12  C11 UNL     1      31.260   5.670  47.530  1.00  0.00     0.036 A 
HETATM   13  C12 UNL     1      31.825   6.104  46.170  1.00  0.00     0.017 A 
HETATM   14  C13 UNL     1      32.973   5.926  46.827  1.00  0.00     0.048 A 
HETATM   15  C14 UNL     1      33.616   4.535  46.956  1.00  0.00     0.133 C 
HETATM   16  N3  UNL     1      32.868   3.973  48.129  1.00  0.00    -0.405 N 
HETATM   17  N4  UNL     1      29.868   5.735  47.720  1.00  0.00    -0.356 N 
HETATM   18  C15 UNL     1      31.321   9.650  47.516  1.00  0.00     0.137 C 
HETATM   19  C16 UNL     1      30.497   9.860  48.576  1.00  0.00     0.117 C 
HETATM   20  H15 UNL     1      33.192   2.938  48.052  1.00  0.00     0.154 HD
HETATM   21  H16 UNL     1      29.242   5.080  48.082  1.00  0.00     0.166 HD
ENDROOT
BRANCH   1  22
HETATM   22  O1  UNL     1      28.565   9.384  50.006  1.00  0.00    -0.353 OA
HETATM   23  C1  UNL     1      27.174   9.290  49.840  1.00  0.00     0.210 C 
ENDBRANCH   1  22
BRANCH  19  24
HETATM   24  O2  UNL     1      30.690  10.992  49.306  1.00  0.00    -0.352 OA
HETATM   25  C17 UNL     1      30.321  12.261  48.794  1.00  0.00     0.210 C 
ENDBRANCH  19  24
TORSDOF 2
ENDMDL
