MODEL 1
REMARK VINA RESULT:      -6.8      0.000      0.000
REMARK  9 active torsions:
REMARK  status: ('A' for Active; 'I' for Inactive)
REMARK    1  A    between atoms: O1_1  and  C1_2 
REMARK    2  A    between atoms: C1_2  and  C2_3 
REMARK    3  A    between atoms: C2_3  and  O2_4 
REMARK    4  A    between atoms: O2_4  and  C3_5 
REMARK    5  A    between atoms: N3_12  and  C8_13 
REMARK    6  A    between atoms: C15_22  and  O3_23 
REMARK    7  A    between atoms: O3_23  and  C16_24 
REMARK    8  A    between atoms: C16_24  and  C17_25 
REMARK    9  A    between atoms: C17_25  and  O4_26 
ROOT
HETATM    1  C3  UNL     1      23.630   5.638  51.211  1.00  0.00     0.128 C 
HETATM    2  C4  UNL     1      22.506   6.357  50.842  1.00  0.00     0.062 C 
HETATM    3  C5  UNL     1      21.072   6.240  50.330  1.00  0.00     0.142 C 
HETATM    4  N1  UNL     1      20.167   5.235  50.012  1.00  0.00    -0.275 NA
HETATM    5  C6  UNL     1      20.803   3.930  50.258  1.00  0.00     0.222 C 
HETATM    6  N2  UNL     1      21.595   3.003  49.963  1.00  0.00    -0.264 NA
HETATM    7  C7  UNL     1      21.863   1.776  50.674  1.00  0.00     0.274 C 
HETATM    8  N3  UNL     1      22.599   2.087  51.942  1.00  0.00    -0.359 N 
HETATM    9  C14 UNL     1      22.939   3.486  52.112  1.00  0.00     0.160 C 
HETATM   10  C15 UNL     1      24.001   4.055  51.269  1.00  0.00     0.177 C 
ENDROOT
BRANCH   8  11
HETATM   11  C8  UNL     1      22.900   1.029  52.849  1.00  0.00     0.056 A 
HETATM   12  C9  UNL     1      21.714   0.673  53.508  1.00  0.00     0.031 A 
HETATM   13  C10 UNL     1      21.713  -0.342  54.464  1.00  0.00     0.005 A 
HETATM   14  C11 UNL     1      22.892  -0.991  54.751  1.00  0.00     0.044 A 
HETATM   15  C12 UNL     1      24.033  -0.638  54.106  1.00  0.00     0.140 A 
HETATM   16  F1  UNL     1      25.243  -1.214  54.316  1.00  0.00    -0.204 F 
HETATM   17  C13 UNL     1      24.062   0.359  53.160  1.00  0.00     0.099 A 
HETATM   18 CL1  UNL     1      25.416   0.925  52.245  1.00  0.00    -0.079 Cl
ENDBRANCH   8  11
BRANCH  10  19
HETATM   19  O3  UNL     1      23.982   3.812  49.913  1.00  0.00    -0.379 OA
BRANCH  19  20
HETATM   20  C16 UNL     1      25.189   4.196  49.349  1.00  0.00     0.194 C 
BRANCH  20  21
HETATM   21  C17 UNL     1      26.386   3.443  49.818  1.00  0.00     0.190 C 
BRANCH  21  22
HETATM   22  O4  UNL     1      27.502   4.303  49.664  1.00  0.00    -0.399 OA
HETATM   23  H21 UNL     1      28.147   4.224  50.388  1.00  0.00     0.209 HD
ENDBRANCH  21  22
ENDBRANCH  20  21
ENDBRANCH  19  20
ENDBRANCH  10  19
BRANCH   1  24
HETATM   24  O2  UNL     1      24.189   6.851  51.463  1.00  0.00    -0.372 OA
BRANCH  24  25
HETATM   25  C2  UNL     1      24.513   7.866  50.568  1.00  0.00     0.195 C 
BRANCH  25  26
HETATM   26  C1  UNL     1      25.943   7.610  50.077  1.00  0.00     0.190 C 
BRANCH  26  27
HETATM   27  O1  UNL     1      26.820   8.398  50.818  1.00  0.00    -0.399 OA
HETATM   28  H1  UNL     1      27.332   7.775  51.420  1.00  0.00     0.209 HD
ENDBRANCH  26  27
ENDBRANCH  25  26
ENDBRANCH  24  25
ENDBRANCH   1  24
TORSDOF 9
ENDMDL
MODEL 2
REMARK VINA RESULT:      -6.7      1.235      1.594
REMARK  9 active torsions:
REMARK  status: ('A' for Active; 'I' for Inactive)
REMARK    1  A    between atoms: O1_1  and  C1_2 
REMARK    2  A    between atoms: C1_2  and  C2_3 
REMARK    3  A    between atoms: C2_3  and  O2_4 
REMARK    4  A    between atoms: O2_4  and  C3_5 
REMARK    5  A    between atoms: N3_12  and  C8_13 
REMARK    6  A    between atoms: C15_22  and  O3_23 
REMARK    7  A    between atoms: O3_23  and  C16_24 
REMARK    8  A    between atoms: C16_24  and  C17_25 
REMARK    9  A    between atoms: C17_25  and  O4_26 
ROOT
HETATM    1  C3  UNL     1      23.557   5.533  51.201  1.00  0.00     0.128 C 
HETATM    2  C4  UNL     1      22.339   6.102  50.865  1.00  0.00     0.062 C 
HETATM    3  C5  UNL     1      20.916   5.800  50.402  1.00  0.00     0.142 C 
HETATM    4  N1  UNL     1      20.135   4.685  50.119  1.00  0.00    -0.275 NA
HETATM    5  C6  UNL     1      20.940   3.474  50.349  1.00  0.00     0.222 C 
HETATM    6  N2  UNL     1      21.833   2.651  50.032  1.00  0.00    -0.264 NA
HETATM    7  C7  UNL     1      22.278   1.474  50.738  1.00  0.00     0.274 C 
HETATM    8  N3  UNL     1      23.009   1.887  51.979  1.00  0.00    -0.359 N 
HETATM    9  C14 UNL     1      23.174   3.319  52.133  1.00  0.00     0.160 C 
HETATM   10  C15 UNL     1      24.127   4.011  51.253  1.00  0.00     0.177 C 
ENDROOT
BRANCH   8  11
HETATM   11  C8  UNL     1      23.470   0.883  52.881  1.00  0.00     0.056 A 
HETATM   12  C9  UNL     1      24.845   0.710  52.671  1.00  0.00     0.031 A 
HETATM   13  C10 UNL     1      25.564  -0.221  53.421  1.00  0.00     0.005 A 
HETATM   14  C11 UNL     1      24.904  -0.966  54.371  1.00  0.00     0.044 A 
HETATM   15  C12 UNL     1      23.573  -0.789  54.565  1.00  0.00     0.140 A 
HETATM   16  F1  UNL     1      22.832  -1.473  55.474  1.00  0.00    -0.204 F 
HETATM   17  C13 UNL     1      22.841   0.120  53.841  1.00  0.00     0.099 A 
HETATM   18 CL1  UNL     1      21.153   0.476  53.965  1.00  0.00    -0.079 Cl
ENDBRANCH   8  11
BRANCH  10  19
HETATM   19  O3  UNL     1      24.095   3.756  49.898  1.00  0.00    -0.379 OA
BRANCH  19  20
HETATM   20  C16 UNL     1      25.249   4.239  49.302  1.00  0.00     0.194 C 
BRANCH  20  21
HETATM   21  C17 UNL     1      26.526   3.670  49.816  1.00  0.00     0.190 C 
BRANCH  21  22
HETATM   22  O4  UNL     1      27.521   4.664  49.645  1.00  0.00    -0.399 OA
HETATM   23  H21 UNL     1      27.495   5.353  50.333  1.00  0.00     0.209 HD
ENDBRANCH  21  22
ENDBRANCH  20  21
ENDBRANCH  19  20
ENDBRANCH  10  19
BRANCH   1  24
HETATM   24  O2  UNL     1      23.965   6.809  51.428  1.00  0.00    -0.372 OA
BRANCH  24  25
HETATM   25  C2  UNL     1      23.980   7.891  50.553  1.00  0.00     0.195 C 
BRANCH  25  26
HETATM   26  C1  UNL     1      25.391   7.987  49.961  1.00  0.00     0.190 C 
BRANCH  26  27
HETATM   27  O1  UNL     1      26.283   7.348  50.820  1.00  0.00    -0.399 OA
HETATM   28  H1  UNL     1      27.094   7.112  50.274  1.00  0.00     0.209 HD
ENDBRANCH  26  27
ENDBRANCH  25  26
ENDBRANCH  24  25
ENDBRANCH   1  24
TORSDOF 9
ENDMDL
MODEL 3
REMARK VINA RESULT:      -6.5      4.102      7.207
REMARK  9 active torsions:
REMARK  status: ('A' for Active; 'I' for Inactive)
REMARK    1  A    between atoms: O1_1  and  C1_2 
REMARK    2  A    between atoms: C1_2  and  C2_3 
REMARK    3  A    between atoms: C2_3  and  O2_4 
REMARK    4  A    between atoms: O2_4  and  C3_5 
REMARK    5  A    between atoms: N3_12  and  C8_13 
REMARK    6  A    between atoms: C15_22  and  O3_23 
REMARK    7  A    between atoms: O3_23  and  C16_24 
REMARK    8  A    between atoms: C16_24  and  C17_25 
REMARK    9  A    between atoms: C17_25  and  O4_26 
ROOT
HETATM    1  C3  UNL     1      26.201   0.347  52.289  1.00  0.00     0.128 C 
HETATM    2  C4  UNL     1      25.156  -0.477  52.672  1.00  0.00     0.062 C 
HETATM    3  C5  UNL     1      23.694  -0.501  53.114  1.00  0.00     0.142 C 
HETATM    4  N1  UNL     1      22.658   0.404  53.308  1.00  0.00    -0.275 NA
HETATM    5  C6  UNL     1      23.142   1.755  52.979  1.00  0.00     0.222 C 
HETATM    6  N2  UNL     1      23.799   2.795  53.227  1.00  0.00    -0.264 NA
HETATM    7  C7  UNL     1      23.951   3.986  52.426  1.00  0.00     0.274 C 
HETATM    8  N3  UNL     1      24.782   3.672  51.220  1.00  0.00    -0.359 N 
HETATM    9  C14 UNL     1      25.298   2.317  51.182  1.00  0.00     0.160 C 
HETATM   10  C15 UNL     1      26.378   1.954  52.113  1.00  0.00     0.177 C 
ENDROOT
BRANCH   8  11
HETATM   11  C8  UNL     1      24.996   4.684  50.239  1.00  0.00     0.056 A 
HETATM   12  C9  UNL     1      26.294   4.528  49.732  1.00  0.00     0.031 A 
HETATM   13  C10 UNL     1      26.779   5.392  48.750  1.00  0.00     0.005 A 
HETATM   14  C11 UNL     1      25.964   6.399  48.285  1.00  0.00     0.044 A 
HETATM   15  C12 UNL     1      24.709   6.539  48.784  1.00  0.00     0.140 A 
HETATM   16  F1  UNL     1      23.831   7.497  48.394  1.00  0.00    -0.204 F 
HETATM   17  C13 UNL     1      24.208   5.702  49.751  1.00  0.00     0.099 A 
HETATM   18 CL1  UNL     1      22.641   5.734  50.485  1.00  0.00    -0.079 Cl
ENDBRANCH   8  11
BRANCH  10  19
HETATM   19  O3  UNL     1      26.261   2.299  53.442  1.00  0.00    -0.379 OA
BRANCH  19  20
HETATM   20  C16 UNL     1      27.412   1.938  54.124  1.00  0.00     0.194 C 
BRANCH  20  21
HETATM   21  C17 UNL     1      28.678   2.529  53.607  1.00  0.00     0.190 C 
BRANCH  21  22
HETATM   22  O4  UNL     1      29.642   2.410  54.639  1.00  0.00    -0.399 OA
HETATM   23  H21 UNL     1      30.351   3.075  54.577  1.00  0.00     0.209 HD
ENDBRANCH  21  22
ENDBRANCH  20  21
ENDBRANCH  19  20
ENDBRANCH  10  19
BRANCH   1  24
HETATM   24  O2  UNL     1      26.915  -0.802  52.163  1.00  0.00    -0.372 OA
BRANCH  24  25
HETATM   25  C2  UNL     1      27.102  -1.820  53.093  1.00  0.00     0.195 C 
BRANCH  25  26
HETATM   26  C1  UNL     1      28.568  -2.262  53.006  1.00  0.00     0.190 C 
BRANCH  26  27
HETATM   27  O1  UNL     1      28.659  -3.596  53.395  1.00  0.00    -0.399 OA
HETATM   28  H1  UNL     1      27.796  -4.037  53.126  1.00  0.00     0.209 HD
ENDBRANCH  26  27
ENDBRANCH  25  26
ENDBRANCH  24  25
ENDBRANCH   1  24
TORSDOF 9
ENDMDL
MODEL 4
REMARK VINA RESULT:      -6.4      2.678      4.466
REMARK  9 active torsions:
REMARK  status: ('A' for Active; 'I' for Inactive)
REMARK    1  A    between atoms: O1_1  and  C1_2 
REMARK    2  A    between atoms: C1_2  and  C2_3 
REMARK    3  A    between atoms: C2_3  and  O2_4 
REMARK    4  A    between atoms: O2_4  and  C3_5 
REMARK    5  A    between atoms: N3_12  and  C8_13 
REMARK    6  A    between atoms: C15_22  and  O3_23 
REMARK    7  A    between atoms: O3_23  and  C16_24 
REMARK    8  A    between atoms: C16_24  and  C17_25 
REMARK    9  A    between atoms: C17_25  and  O4_26 
ROOT
HETATM    1  C3  UNL     1      23.608   3.718  49.464  1.00  0.00     0.128 C 
HETATM    2  C4  UNL     1      24.948   3.682  49.118  1.00  0.00     0.062 C 
HETATM    3  C5  UNL     1      26.349   3.336  49.618  1.00  0.00     0.142 C 
HETATM    4  N1  UNL     1      26.938   2.814  50.764  1.00  0.00    -0.275 NA
HETATM    5  C6  UNL     1      25.882   2.518  51.746  1.00  0.00     0.222 C 
HETATM    6  N2  UNL     1      25.032   2.855  52.606  1.00  0.00    -0.264 NA
HETATM    7  C7  UNL     1      24.126   2.026  53.362  1.00  0.00     0.274 C 
HETATM    8  N3  UNL     1      23.074   1.476  52.447  1.00  0.00    -0.359 N 
HETATM    9  C14 UNL     1      23.154   1.958  51.082  1.00  0.00     0.160 C 
HETATM   10  C15 UNL     1      22.769   3.351  50.809  1.00  0.00     0.177 C 
ENDROOT
BRANCH   8  11
HETATM   11  C8  UNL     1      22.113   0.559  52.963  1.00  0.00     0.056 A 
HETATM   12  C9  UNL     1      22.805  -0.511  53.548  1.00  0.00     0.031 A 
HETATM   13  C10 UNL     1      22.109  -1.568  54.134  1.00  0.00     0.005 A 
HETATM   14  C11 UNL     1      20.733  -1.545  54.132  1.00  0.00     0.044 A 
HETATM   15  C12 UNL     1      20.075  -0.503  53.563  1.00  0.00     0.140 A 
HETATM   16  F1  UNL     1      18.724  -0.387  53.509  1.00  0.00    -0.204 F 
HETATM   17  C13 UNL     1      20.735   0.550  52.978  1.00  0.00     0.099 A 
HETATM   18 CL1  UNL     1      20.057   1.950  52.222  1.00  0.00    -0.079 Cl
ENDBRANCH   8  11
BRANCH  10  19
HETATM   19  O3  UNL     1      23.264   4.353  51.615  1.00  0.00    -0.379 OA
BRANCH  19  20
HETATM   20  C16 UNL     1      22.573   5.532  51.376  1.00  0.00     0.194 C 
BRANCH  20  21
HETATM   21  C17 UNL     1      23.418   6.743  51.179  1.00  0.00     0.190 C 
BRANCH  21  22
HETATM   22  O4  UNL     1      24.380   6.750  52.219  1.00  0.00    -0.399 OA
HETATM   23  H21 UNL     1      25.288   6.601  51.901  1.00  0.00     0.209 HD
ENDBRANCH  21  22
ENDBRANCH  20  21
ENDBRANCH  19  20
ENDBRANCH  10  19
BRANCH   1  24
HETATM   24  O2  UNL     1      23.408   4.186  48.204  1.00  0.00    -0.372 OA
BRANCH  24  25
HETATM   25  C2  UNL     1      22.209   4.421  47.539  1.00  0.00     0.195 C 
BRANCH  25  26
HETATM   26  C1  UNL     1      21.938   3.215  46.632  1.00  0.00     0.190 C 
BRANCH  26  27
HETATM   27  O1  UNL     1      22.104   3.606  45.305  1.00  0.00    -0.399 OA
HETATM   28  H1  UNL     1      21.209   3.938  44.987  1.00  0.00     0.209 HD
ENDBRANCH  26  27
ENDBRANCH  25  26
ENDBRANCH  24  25
ENDBRANCH   1  24
TORSDOF 9
ENDMDL
MODEL 5
REMARK VINA RESULT:      -6.2      2.171      2.682
REMARK  9 active torsions:
REMARK  status: ('A' for Active; 'I' for Inactive)
REMARK    1  A    between atoms: O1_1  and  C1_2 
REMARK    2  A    between atoms: C1_2  and  C2_3 
REMARK    3  A    between atoms: C2_3  and  O2_4 
REMARK    4  A    between atoms: O2_4  and  C3_5 
REMARK    5  A    between atoms: N3_12  and  C8_13 
REMARK    6  A    between atoms: C15_22  and  O3_23 
REMARK    7  A    between atoms: O3_23  and  C16_24 
REMARK    8  A    between atoms: C16_24  and  C17_25 
REMARK    9  A    between atoms: C17_25  and  O4_26 
ROOT
HETATM    1  C3  UNL     1      22.456   5.305  49.367  1.00  0.00     0.128 C 
HETATM    2  C4  UNL     1      21.958   5.591  48.107  1.00  0.00     0.062 C 
HETATM    3  C5  UNL     1      21.383   4.978  46.832  1.00  0.00     0.142 C 
HETATM    4  N1  UNL     1      21.043   3.718  46.353  1.00  0.00    -0.275 NA
HETATM    5  C6  UNL     1      21.324   2.723  47.401  1.00  0.00     0.222 C 
HETATM    6  N2  UNL     1      22.101   2.009  48.081  1.00  0.00    -0.264 NA
HETATM    7  C7  UNL     1      21.788   1.082  49.142  1.00  0.00     0.274 C 
HETATM    8  N3  UNL     1      21.329   1.845  50.348  1.00  0.00    -0.359 N 
HETATM    9  C14 UNL     1      21.388   3.286  50.207  1.00  0.00     0.160 C 
HETATM   10  C15 UNL     1      22.708   3.935  50.207  1.00  0.00     0.177 C 
ENDROOT
BRANCH   8  11
HETATM   11  C8  UNL     1      20.887   1.127  51.498  1.00  0.00     0.056 A 
HETATM   12  C9  UNL     1      19.629   0.578  51.209  1.00  0.00     0.031 A 
HETATM   13  C10 UNL     1      18.951  -0.179  52.164  1.00  0.00     0.005 A 
HETATM   14  C11 UNL     1      19.535  -0.381  53.394  1.00  0.00     0.044 A 
HETATM   15  C12 UNL     1      20.752   0.156  53.661  1.00  0.00     0.140 A 
HETATM   16  F1  UNL     1      21.410   0.016  54.840  1.00  0.00    -0.204 F 
HETATM   17  C13 UNL     1      21.442   0.906  52.739  1.00  0.00     0.099 A 
HETATM   18 CL1  UNL     1      22.994   1.650  52.911  1.00  0.00    -0.079 Cl
ENDBRANCH   8  11
BRANCH  10  19
HETATM   19  O3  UNL     1      23.710   3.416  49.417  1.00  0.00    -0.379 OA
BRANCH  19  20
HETATM   20  C16 UNL     1      24.849   3.205  50.180  1.00  0.00     0.194 C 
BRANCH  20  21
HETATM   21  C17 UNL     1      26.020   4.058  49.835  1.00  0.00     0.190 C 
BRANCH  21  22
HETATM   22  O4  UNL     1      27.094   3.637  50.657  1.00  0.00    -0.399 OA
HETATM   23  H21 UNL     1      27.939   3.568  50.177  1.00  0.00     0.209 HD
ENDBRANCH  21  22
ENDBRANCH  20  21
ENDBRANCH  19  20
ENDBRANCH  10  19
BRANCH   1  24
HETATM   24  O2  UNL     1      22.607   6.650  49.492  1.00  0.00    -0.372 OA
BRANCH  24  25
HETATM   25  C2  UNL     1      22.829   7.400  50.643  1.00  0.00     0.195 C 
BRANCH  25  26
HETATM   26  C1  UNL     1      24.308   7.245  51.017  1.00  0.00     0.190 C 
BRANCH  26  27
HETATM   27  O1  UNL     1      24.393   6.657  52.277  1.00  0.00    -0.399 OA
HETATM   28  H1  UNL     1      25.352   6.737  52.570  1.00  0.00     0.209 HD
ENDBRANCH  26  27
ENDBRANCH  25  26
ENDBRANCH  24  25
ENDBRANCH   1  24
TORSDOF 9
ENDMDL
MODEL 6
REMARK VINA RESULT:      -6.2      2.877      4.406
REMARK  9 active torsions:
REMARK  status: ('A' for Active; 'I' for Inactive)
REMARK    1  A    between atoms: O1_1  and  C1_2 
REMARK    2  A    between atoms: C1_2  and  C2_3 
REMARK    3  A    between atoms: C2_3  and  O2_4 
REMARK    4  A    between atoms: O2_4  and  C3_5 
REMARK    5  A    between atoms: N3_12  and  C8_13 
REMARK    6  A    between atoms: C15_22  and  O3_23 
REMARK    7  A    between atoms: O3_23  and  C16_24 
REMARK    8  A    between atoms: C16_24  and  C17_25 
REMARK    9  A    between atoms: C17_25  and  O4_26 
ROOT
HETATM    1  C3  UNL     1      22.732   4.380  48.452  1.00  0.00     0.128 C 
HETATM    2  C4  UNL     1      23.143   5.699  48.356  1.00  0.00     0.062 C 
HETATM    3  C5  UNL     1      23.664   6.896  49.149  1.00  0.00     0.142 C 
HETATM    4  N1  UNL     1      24.023   7.191  50.458  1.00  0.00    -0.275 NA
HETATM    5  C6  UNL     1      23.843   5.984  51.282  1.00  0.00     0.222 C 
HETATM    6  N2  UNL     1      23.136   5.150  51.899  1.00  0.00    -0.264 NA
HETATM    7  C7  UNL     1      23.546   3.979  52.635  1.00  0.00     0.274 C 
HETATM    8  N3  UNL     1      24.046   2.941  51.678  1.00  0.00    -0.359 N 
HETATM    9  C14 UNL     1      23.924   3.303  50.279  1.00  0.00     0.160 C 
HETATM   10  C15 UNL     1      22.583   3.320  49.676  1.00  0.00     0.177 C 
ENDROOT
BRANCH   8  11
HETATM   11  C8  UNL     1      24.583   1.723  52.189  1.00  0.00     0.056 A 
HETATM   12  C9  UNL     1      23.529   0.982  52.742  1.00  0.00     0.031 A 
HETATM   13  C10 UNL     1      23.767  -0.263  53.324  1.00  0.00     0.005 A 
HETATM   14  C11 UNL     1      25.052  -0.755  53.346  1.00  0.00     0.044 A 
HETATM   15  C12 UNL     1      26.064  -0.028  52.807  1.00  0.00     0.140 A 
HETATM   16  F1  UNL     1      27.362  -0.424  52.779  1.00  0.00    -0.204 F 
HETATM   17  C13 UNL     1      25.857   1.201  52.229  1.00  0.00     0.099 A 
HETATM   18 CL1  UNL     1      27.023   2.246  51.494  1.00  0.00    -0.079 Cl
ENDBRANCH   8  11
BRANCH  10  19
HETATM   19  O3  UNL     1      21.556   3.952  50.344  1.00  0.00    -0.379 OA
BRANCH  19  20
HETATM   20  C16 UNL     1      20.441   3.129  50.378  1.00  0.00     0.194 C 
BRANCH  20  21
HETATM   21  C17 UNL     1      20.235   2.377  51.647  1.00  0.00     0.190 C 
BRANCH  21  22
HETATM   22  O4  UNL     1      20.035   3.338  52.669  1.00  0.00    -0.399 OA
HETATM   23  H21 UNL     1      20.828   3.484  53.216  1.00  0.00     0.209 HD
ENDBRANCH  21  22
ENDBRANCH  20  21
ENDBRANCH  19  20
ENDBRANCH  10  19
BRANCH   1  24
HETATM   24  O2  UNL     1      22.537   4.458  47.109  1.00  0.00    -0.372 OA
BRANCH  24  25
HETATM   25  C2  UNL     1      21.758   3.647  46.290  1.00  0.00     0.195 C 
BRANCH  25  26
HETATM   26  C1  UNL     1      21.449   4.439  45.014  1.00  0.00     0.190 C 
BRANCH  26  27
HETATM   27  O1  UNL     1      21.196   3.542  43.979  1.00  0.00    -0.399 OA
HETATM   28  H1  UNL     1      21.917   2.841  44.020  1.00  0.00     0.209 HD
ENDBRANCH  26  27
ENDBRANCH  25  26
ENDBRANCH  24  25
ENDBRANCH   1  24
TORSDOF 9
ENDMDL
MODEL 7
REMARK VINA RESULT:      -6.2      9.125     11.951
REMARK  9 active torsions:
REMARK  status: ('A' for Active; 'I' for Inactive)
REMARK    1  A    between atoms: O1_1  and  C1_2 
REMARK    2  A    between atoms: C1_2  and  C2_3 
REMARK    3  A    between atoms: C2_3  and  O2_4 
REMARK    4  A    between atoms: O2_4  and  C3_5 
REMARK    5  A    between atoms: N3_12  and  C8_13 
REMARK    6  A    between atoms: C15_22  and  O3_23 
REMARK    7  A    between atoms: O3_23  and  C16_24 
REMARK    8  A    between atoms: C16_24  and  C17_25 
REMARK    9  A    between atoms: C17_25  and  O4_26 
ROOT
HETATM    1  C3  UNL     1      33.989   5.617  44.855  1.00  0.00     0.128 C 
HETATM    2  C4  UNL     1      34.724   4.461  45.060  1.00  0.00     0.062 C 
HETATM    3  C5  UNL     1      35.183   3.454  46.113  1.00  0.00     0.142 C 
HETATM    4  N1  UNL     1      35.006   3.226  47.472  1.00  0.00    -0.275 NA
HETATM    5  C6  UNL     1      34.114   4.265  48.013  1.00  0.00     0.222 C 
HETATM    6  N2  UNL     1      33.870   5.432  48.404  1.00  0.00    -0.264 NA
HETATM    7  C7  UNL     1      32.632   5.985  48.899  1.00  0.00     0.274 C 
HETATM    8  N3  UNL     1      31.650   6.088  47.773  1.00  0.00    -0.359 N 
HETATM    9  C14 UNL     1      32.177   5.708  46.477  1.00  0.00     0.160 C 
HETATM   10  C15 UNL     1      33.136   6.610  45.821  1.00  0.00     0.177 C 
ENDROOT
BRANCH   8  11
HETATM   11  C8  UNL     1      30.323   6.534  48.045  1.00  0.00     0.056 A 
HETATM   12  C9  UNL     1      29.493   5.406  48.118  1.00  0.00     0.031 A 
HETATM   13  C10 UNL     1      28.129   5.547  48.372  1.00  0.00     0.005 A 
HETATM   14  C11 UNL     1      27.609   6.808  48.553  1.00  0.00     0.044 A 
HETATM   15  C12 UNL     1      28.424   7.892  48.481  1.00  0.00     0.140 A 
HETATM   16  F1  UNL     1      28.010   9.174  48.643  1.00  0.00    -0.204 F 
HETATM   17  C13 UNL     1      29.770   7.782  48.231  1.00  0.00     0.099 A 
HETATM   18 CL1  UNL     1      30.943   9.048  48.115  1.00  0.00    -0.079 Cl
ENDBRANCH   8  11
BRANCH  10  19
HETATM   19  O3  UNL     1      34.193   7.110  46.551  1.00  0.00    -0.379 OA
BRANCH  19  20
HETATM   20  C16 UNL     1      34.160   8.495  46.537  1.00  0.00     0.194 C 
BRANCH  20  21
HETATM   21  C17 UNL     1      34.733   9.140  45.322  1.00  0.00     0.190 C 
BRANCH  21  22
HETATM   22  O4  UNL     1      36.114   9.338  45.572  1.00  0.00    -0.399 OA
HETATM   23  H21 UNL     1      36.517   8.613  46.083  1.00  0.00     0.209 HD
ENDBRANCH  21  22
ENDBRANCH  20  21
ENDBRANCH  19  20
ENDBRANCH  10  19
BRANCH   1  24
HETATM   24  O2  UNL     1      34.344   5.479  43.551  1.00  0.00    -0.372 OA
BRANCH  24  25
HETATM   25  C2  UNL     1      34.592   6.468  42.604  1.00  0.00     0.195 C 
BRANCH  25  26
HETATM   26  C1  UNL     1      36.068   6.363  42.202  1.00  0.00     0.190 C 
BRANCH  26  27
HETATM   27  O1  UNL     1      36.773   7.403  42.803  1.00  0.00    -0.399 OA
HETATM   28  H1  UNL     1      37.742   7.135  42.801  1.00  0.00     0.209 HD
ENDBRANCH  26  27
ENDBRANCH  25  26
ENDBRANCH  24  25
ENDBRANCH   1  24
TORSDOF 9
ENDMDL
MODEL 8
REMARK VINA RESULT:      -6.2      3.710      6.549
REMARK  9 active torsions:
REMARK  status: ('A' for Active; 'I' for Inactive)
REMARK    1  A    between atoms: O1_1  and  C1_2 
REMARK    2  A    between atoms: C1_2  and  C2_3 
REMARK    3  A    between atoms: C2_3  and  O2_4 
REMARK    4  A    between atoms: O2_4  and  C3_5 
REMARK    5  A    between atoms: N3_12  and  C8_13 
REMARK    6  A    between atoms: C15_22  and  O3_23 
REMARK    7  A    between atoms: O3_23  and  C16_24 
REMARK    8  A    between atoms: C16_24  and  C17_25 
REMARK    9  A    between atoms: C17_25  and  O4_26 
ROOT
HETATM    1  C3  UNL     1      23.909   0.034  52.994  1.00  0.00     0.128 C 
HETATM    2  C4  UNL     1      23.211  -0.766  53.884  1.00  0.00     0.062 C 
HETATM    3  C5  UNL     1      21.861  -0.976  54.566  1.00  0.00     0.142 C 
HETATM    4  N1  UNL     1      20.596  -0.401  54.553  1.00  0.00    -0.275 NA
HETATM    5  C6  UNL     1      20.594   0.717  53.596  1.00  0.00     0.222 C 
HETATM    6  N2  UNL     1      20.885   1.888  53.248  1.00  0.00    -0.264 NA
HETATM    7  C7  UNL     1      20.599   2.564  52.005  1.00  0.00     0.274 C 
HETATM    8  N3  UNL     1      21.430   1.964  50.911  1.00  0.00    -0.359 N 
HETATM    9  C14 UNL     1      22.359   0.942  51.353  1.00  0.00     0.160 C 
HETATM   10  C15 UNL     1      23.541   1.358  52.123  1.00  0.00     0.177 C 
ENDROOT
BRANCH   8  11
HETATM   11  C8  UNL     1      21.253   2.422  49.573  1.00  0.00     0.056 A 
HETATM   12  C9  UNL     1      22.463   2.986  49.145  1.00  0.00     0.031 A 
HETATM   13  C10 UNL     1      22.579   3.523  47.862  1.00  0.00     0.005 A 
HETATM   14  C11 UNL     1      21.490   3.489  47.023  1.00  0.00     0.044 A 
HETATM   15  C12 UNL     1      20.324   2.940  47.449  1.00  0.00     0.140 A 
HETATM   16  F1  UNL     1      19.195   2.859  46.701  1.00  0.00    -0.204 F 
HETATM   17  C13 UNL     1      20.182   2.405  48.707  1.00  0.00     0.099 A 
HETATM   18 CL1  UNL     1      18.782   1.664  49.402  1.00  0.00    -0.079 Cl
ENDBRANCH   8  11
BRANCH  10  19
HETATM   19  O3  UNL     1      23.381   2.233  53.176  1.00  0.00    -0.379 OA
BRANCH  19  20
HETATM   20  C16 UNL     1      24.228   3.318  53.017  1.00  0.00     0.194 C 
BRANCH  20  21
HETATM   21  C17 UNL     1      23.567   4.602  52.651  1.00  0.00     0.190 C 
BRANCH  21  22
HETATM   22  O4  UNL     1      23.964   5.561  53.616  1.00  0.00    -0.399 OA
HETATM   23  H21 UNL     1      23.249   5.800  54.232  1.00  0.00     0.209 HD
ENDBRANCH  21  22
ENDBRANCH  20  21
ENDBRANCH  19  20
ENDBRANCH  10  19
BRANCH   1  24
HETATM   24  O2  UNL     1      24.953  -0.801  53.234  1.00  0.00    -0.372 OA
BRANCH  24  25
HETATM   25  C2  UNL     1      26.317  -0.525  53.204  1.00  0.00     0.195 C 
BRANCH  25  26
HETATM   26  C1  UNL     1      26.655   0.274  54.468  1.00  0.00     0.190 C 
BRANCH  26  27
HETATM   27  O1  UNL     1      27.820  -0.244  55.029  1.00  0.00    -0.399 OA
HETATM   28  H1  UNL     1      28.053  -1.069  54.503  1.00  0.00     0.209 HD
ENDBRANCH  26  27
ENDBRANCH  25  26
ENDBRANCH  24  25
ENDBRANCH   1  24
TORSDOF 9
ENDMDL
MODEL 9
REMARK VINA RESULT:      -6.1      8.324     10.587
REMARK  9 active torsions:
REMARK  status: ('A' for Active; 'I' for Inactive)
REMARK    1  A    between atoms: O1_1  and  C1_2 
REMARK    2  A    between atoms: C1_2  and  C2_3 
REMARK    3  A    between atoms: C2_3  and  O2_4 
REMARK    4  A    between atoms: O2_4  and  C3_5 
REMARK    5  A    between atoms: N3_12  and  C8_13 
REMARK    6  A    between atoms: C15_22  and  O3_23 
REMARK    7  A    between atoms: O3_23  and  C16_24 
REMARK    8  A    between atoms: C16_24  and  C17_25 
REMARK    9  A    between atoms: C17_25  and  O4_26 
ROOT
HETATM    1  C3  UNL     1      29.033   8.133  47.880  1.00  0.00     0.128 C 
HETATM    2  C4  UNL     1      28.308   8.589  46.792  1.00  0.00     0.062 C 
HETATM    3  C5  UNL     1      28.408   9.046  45.338  1.00  0.00     0.142 C 
HETATM    4  N1  UNL     1      29.388   9.179  44.362  1.00  0.00    -0.275 NA
HETATM    5  C6  UNL     1      30.677   8.741  44.923  1.00  0.00     0.222 C 
HETATM    6  N2  UNL     1      31.691   8.901  45.646  1.00  0.00    -0.264 NA
HETATM    7  C7  UNL     1      32.805   8.008  45.858  1.00  0.00     0.274 C 
HETATM    8  N3  UNL     1      32.347   6.823  46.652  1.00  0.00    -0.359 N 
HETATM    9  C14 UNL     1      30.964   6.885  47.084  1.00  0.00     0.160 C 
HETATM   10  C15 UNL     1      30.608   7.831  48.152  1.00  0.00     0.177 C 
ENDROOT
BRANCH   8  11
HETATM   11  C8  UNL     1      33.265   5.764  46.914  1.00  0.00     0.056 A 
HETATM   12  C9  UNL     1      33.786   5.950  48.202  1.00  0.00     0.031 A 
HETATM   13  C10 UNL     1      34.720   5.056  48.724  1.00  0.00     0.005 A 
HETATM   14  C11 UNL     1      35.123   3.987  47.957  1.00  0.00     0.044 A 
HETATM   15  C12 UNL     1      34.611   3.817  46.711  1.00  0.00     0.140 A 
HETATM   16  F1  UNL     1      34.942   2.799  45.878  1.00  0.00    -0.204 F 
HETATM   17  C13 UNL     1      33.690   4.683  46.173  1.00  0.00     0.099 A 
HETATM   18 CL1  UNL     1      32.936   4.611  44.618  1.00  0.00    -0.079 Cl
ENDBRANCH   8  11
BRANCH  10  19
HETATM   19  O3  UNL     1      31.061   9.130  48.075  1.00  0.00    -0.379 OA
BRANCH  19  20
HETATM   20  C16 UNL     1      30.757   9.804  49.248  1.00  0.00     0.194 C 
BRANCH  20  21
HETATM   21  C17 UNL     1      30.573  11.276  49.115  1.00  0.00     0.190 C 
BRANCH  21  22
HETATM   22  O4  UNL     1      29.266  11.573  49.576  1.00  0.00    -0.399 OA
HETATM   23  H21 UNL     1      28.677  11.893  48.870  1.00  0.00     0.209 HD
ENDBRANCH  21  22
ENDBRANCH  20  21
ENDBRANCH  19  20
ENDBRANCH  10  19
BRANCH   1  24
HETATM   24  O2  UNL     1      27.836   8.091  48.521  1.00  0.00    -0.372 OA
BRANCH  24  25
HETATM   25  C2  UNL     1      27.003   9.144  48.887  1.00  0.00     0.195 C 
BRANCH  25  26
HETATM   26  C1  UNL     1      26.659   8.968  50.370  1.00  0.00     0.190 C 
BRANCH  26  27
HETATM   27  O1  UNL     1      27.676   9.531  51.137  1.00  0.00    -0.399 OA
HETATM   28  H1  UNL     1      27.345   9.554  52.087  1.00  0.00     0.209 HD
ENDBRANCH  26  27
ENDBRANCH  25  26
ENDBRANCH  24  25
ENDBRANCH   1  24
TORSDOF 9
ENDMDL
