MODEL 1
REMARK VINA RESULT:      -9.4      0.000      0.000
REMARK  5 active torsions:
REMARK  status: ('A' for Active; 'I' for Inactive)
REMARK    1  A    between atoms: C5_5  and  N1_6 
REMARK    2  A    between atoms: N1_6  and  C6_7 
REMARK    3  A    between atoms: C10_13  and  O1_14 
REMARK    4  A    between atoms: O1_14  and  C11_15 
REMARK    5  A    between atoms: C11_15  and  O2_17 
ROOT
HETATM    1  C1  UNL     1      29.880  -1.091  53.700  1.00  0.00     0.049 C 
HETATM    2  C2  UNL     1      28.481  -0.641  53.437  1.00  0.00    -0.041 A 
HETATM    3  C3  UNL     1      27.682  -1.566  52.842  1.00  0.00     0.010 A 
HETATM    4  C4  UNL     1      26.389  -1.208  52.576  1.00  0.00     0.030 A 
HETATM    5  C5  UNL     1      25.786   0.022  52.852  1.00  0.00     0.035 A 
HETATM    6  C18 UNL     1      26.670   0.903  53.457  1.00  0.00     0.052 A 
HETATM    7  C19 UNL     1      27.982   0.604  53.752  1.00  0.00     0.052 A 
HETATM    8  C20 UNL     1      28.903   1.504  54.378  1.00  0.00     0.100 C 
HETATM    9  N4  UNL     1      29.647   2.240  54.874  1.00  0.00    -0.191 NA
ENDROOT
BRANCH   5  10
HETATM   10  N1  UNL     1      24.431   0.388  52.591  1.00  0.00    -0.340 N 
HETATM   11  H6  UNL     1      24.562   1.065  51.818  1.00  0.00     0.167 HD
BRANCH  10  12
HETATM   12  C6  UNL     1      23.399  -0.185  53.343  1.00  0.00     0.144 A 
HETATM   13  N2  UNL     1      23.713  -0.836  54.458  1.00  0.00    -0.223 NA
HETATM   14  C7  UNL     1      22.810  -1.420  55.263  1.00  0.00     0.236 A 
HETATM   15  N3  UNL     1      21.509  -1.353  54.945  1.00  0.00    -0.241 NA
HETATM   16  C8  UNL     1      21.063  -0.727  53.848  1.00  0.00     0.077 A 
HETATM   17  C9  UNL     1      19.725  -0.629  53.474  1.00  0.00     0.072 A 
HETATM   18  C15 UNL     1      22.053  -0.159  53.081  1.00  0.00     0.075 A 
HETATM   19  C10 UNL     1      19.300   0.043  52.311  1.00  0.00     0.110 A 
HETATM   20  C13 UNL     1      20.331   0.591  51.580  1.00  0.00     0.136 A 
HETATM   21  C14 UNL     1      21.657   0.501  51.938  1.00  0.00     0.121 A 
HETATM   22  O4  UNL     1      19.876   1.240  50.447  1.00  0.00    -0.344 OA
HETATM   23  O3  UNL     1      22.523   1.121  51.063  1.00  0.00    -0.345 OA
HETATM   24  C16 UNL     1      22.176   1.471  49.737  1.00  0.00     0.202 C 
HETATM   25  C17 UNL     1      20.770   2.064  49.724  1.00  0.00     0.202 C 
BRANCH  19  26
HETATM   26  O1  UNL     1      17.960  -0.038  52.231  1.00  0.00    -0.315 OA
BRANCH  26  27
HETATM   27  C11 UNL     1      17.202  -0.986  51.602  1.00  0.00     0.304 C 
HETATM   28  C12 UNL     1      16.531  -0.294  50.392  1.00  0.00     0.074 C 
BRANCH  27  29
HETATM   29  O2  UNL     1      16.137  -1.453  52.405  1.00  0.00    -0.166 OA
HETATM   30  F1  UNL     1      16.605  -2.436  53.150  1.00  0.00    -0.045 F 
ENDBRANCH  27  29
ENDBRANCH  26  27
ENDBRANCH  19  26
ENDBRANCH  10  12
ENDBRANCH   5  10
TORSDOF 5
ENDMDL
MODEL 2
REMARK VINA RESULT:      -8.9      3.631      8.587
REMARK  5 active torsions:
REMARK  status: ('A' for Active; 'I' for Inactive)
REMARK    1  A    between atoms: C5_5  and  N1_6 
REMARK    2  A    between atoms: N1_6  and  C6_7 
REMARK    3  A    between atoms: C10_13  and  O1_14 
REMARK    4  A    between atoms: O1_14  and  C11_15 
REMARK    5  A    between atoms: C11_15  and  O2_17 
ROOT
HETATM    1  C1  UNL     1      17.025  -0.288  50.030  1.00  0.00     0.049 C 
HETATM    2  C2  UNL     1      18.208   0.205  50.797  1.00  0.00    -0.041 A 
HETATM    3  C3  UNL     1      18.952   1.148  50.162  1.00  0.00     0.010 A 
HETATM    4  C4  UNL     1      20.049   1.635  50.817  1.00  0.00     0.030 A 
HETATM    5  C5  UNL     1      20.499   1.267  52.089  1.00  0.00     0.035 A 
HETATM    6  C18 UNL     1      19.682   0.303  52.663  1.00  0.00     0.052 A 
HETATM    7  C19 UNL     1      18.565  -0.227  52.056  1.00  0.00     0.052 A 
HETATM    8  C20 UNL     1      17.714  -1.220  52.638  1.00  0.00     0.100 C 
HETATM    9  N4  UNL     1      17.036  -2.032  53.110  1.00  0.00    -0.191 NA
ENDROOT
BRANCH   5  10
HETATM   10  N1  UNL     1      21.633   1.790  52.779  1.00  0.00    -0.340 N 
HETATM   11  H6  UNL     1      21.259   1.847  53.744  1.00  0.00     0.167 HD
BRANCH  10  12
HETATM   12  C6  UNL     1      22.813   2.057  52.076  1.00  0.00     0.144 A 
HETATM   13  N2  UNL     1      22.781   2.962  51.103  1.00  0.00    -0.223 NA
HETATM   14  C7  UNL     1      23.849   3.306  50.365  1.00  0.00     0.236 A 
HETATM   15  N3  UNL     1      25.030   2.716  50.608  1.00  0.00    -0.241 NA
HETATM   16  C8  UNL     1      25.194   1.789  51.559  1.00  0.00     0.077 A 
HETATM   17  C9  UNL     1      26.396   1.148  51.850  1.00  0.00     0.072 A 
HETATM   18  C15 UNL     1      24.050   1.496  52.265  1.00  0.00     0.075 A 
HETATM   19  C10 UNL     1      26.524   0.178  52.863  1.00  0.00     0.110 A 
HETATM   20  C13 UNL     1      25.350  -0.077  53.537  1.00  0.00     0.136 A 
HETATM   21  C14 UNL     1      24.155   0.548  53.260  1.00  0.00     0.121 A 
HETATM   22  O4  UNL     1      25.513  -1.034  54.522  1.00  0.00    -0.344 OA
HETATM   23  O3  UNL     1      23.105   0.142  54.055  1.00  0.00    -0.345 OA
HETATM   24  C16 UNL     1      23.113  -1.057  54.805  1.00  0.00     0.202 C 
HETATM   25  C17 UNL     1      24.478  -1.231  55.464  1.00  0.00     0.202 C 
BRANCH  19  26
HETATM   26  O1  UNL     1      27.799  -0.246  52.896  1.00  0.00    -0.315 OA
BRANCH  26  27
HETATM   27  C11 UNL     1      28.889   0.376  53.439  1.00  0.00     0.304 C 
HETATM   28  C12 UNL     1      29.982  -0.704  53.615  1.00  0.00     0.074 C 
BRANCH  27  29
HETATM   29  O2  UNL     1      28.641   0.873  54.739  1.00  0.00    -0.166 OA
HETATM   30  F1  UNL     1      28.346  -0.158  55.507  1.00  0.00    -0.045 F 
ENDBRANCH  27  29
ENDBRANCH  26  27
ENDBRANCH  19  26
ENDBRANCH  10  12
ENDBRANCH   5  10
TORSDOF 5
ENDMDL
MODEL 3
REMARK VINA RESULT:      -8.7      3.861      8.338
REMARK  5 active torsions:
REMARK  status: ('A' for Active; 'I' for Inactive)
REMARK    1  A    between atoms: C5_5  and  N1_6 
REMARK    2  A    between atoms: N1_6  and  C6_7 
REMARK    3  A    between atoms: C10_13  and  O1_14 
REMARK    4  A    between atoms: O1_14  and  C11_15 
REMARK    5  A    between atoms: C11_15  and  O2_17 
ROOT
HETATM    1  C1  UNL     1      16.783   1.258  49.775  1.00  0.00     0.049 C 
HETATM    2  C2  UNL     1      18.078   1.547  50.460  1.00  0.00    -0.041 A 
HETATM    3  C3  UNL     1      19.092   0.695  50.156  1.00  0.00     0.010 A 
HETATM    4  C4  UNL     1      20.301   0.912  50.756  1.00  0.00     0.030 A 
HETATM    5  C5  UNL     1      20.618   1.929  51.661  1.00  0.00     0.035 A 
HETATM    6  C18 UNL     1      19.529   2.750  51.913  1.00  0.00     0.052 A 
HETATM    7  C19 UNL     1      18.286   2.585  51.342  1.00  0.00     0.052 A 
HETATM    8  C20 UNL     1      17.155   3.427  51.593  1.00  0.00     0.100 C 
HETATM    9  N4  UNL     1      16.240   4.103  51.809  1.00  0.00    -0.191 NA
ENDROOT
BRANCH   5  10
HETATM   10  N1  UNL     1      21.886   2.165  52.272  1.00  0.00    -0.340 N 
HETATM   11  H6  UNL     1      22.034   3.160  52.024  1.00  0.00     0.167 HD
BRANCH  10  12
HETATM   12  C6  UNL     1      22.528   1.132  52.965  1.00  0.00     0.144 A 
HETATM   13  N2  UNL     1      21.798   0.344  53.747  1.00  0.00    -0.223 NA
HETATM   14  C7  UNL     1      22.300  -0.682  54.454  1.00  0.00     0.236 A 
HETATM   15  N3  UNL     1      23.612  -0.949  54.379  1.00  0.00    -0.241 NA
HETATM   16  C8  UNL     1      24.456  -0.230  53.627  1.00  0.00     0.077 A 
HETATM   17  C9  UNL     1      25.824  -0.465  53.515  1.00  0.00     0.072 A 
HETATM   18  C15 UNL     1      23.858   0.801  52.939  1.00  0.00     0.075 A 
HETATM   19  C10 UNL     1      26.674   0.317  52.709  1.00  0.00     0.110 A 
HETATM   20  C13 UNL     1      26.026   1.334  52.045  1.00  0.00     0.136 A 
HETATM   21  C14 UNL     1      24.675   1.578  52.146  1.00  0.00     0.121 A 
HETATM   22  O4  UNL     1      26.891   2.080  51.265  1.00  0.00    -0.344 OA
HETATM   23  O3  UNL     1      24.234   2.647  51.395  1.00  0.00    -0.345 OA
HETATM   24  C16 UNL     1      25.092   3.649  50.885  1.00  0.00     0.202 C 
HETATM   25  C17 UNL     1      26.355   2.997  50.332  1.00  0.00     0.202 C 
BRANCH  19  26
HETATM   26  O1  UNL     1      27.927  -0.161  52.813  1.00  0.00    -0.315 OA
BRANCH  26  27
HETATM   27  C11 UNL     1      29.004   0.409  53.432  1.00  0.00     0.304 C 
HETATM   28  C12 UNL     1      30.014  -0.729  53.712  1.00  0.00     0.074 C 
BRANCH  27  29
HETATM   29  O2  UNL     1      28.684   0.946  54.699  1.00  0.00    -0.166 OA
HETATM   30  F1  UNL     1      28.469  -0.069  55.516  1.00  0.00    -0.045 F 
ENDBRANCH  27  29
ENDBRANCH  26  27
ENDBRANCH  19  26
ENDBRANCH  10  12
ENDBRANCH   5  10
TORSDOF 5
ENDMDL
MODEL 4
REMARK VINA RESULT:      -8.4      4.925      6.071
REMARK  5 active torsions:
REMARK  status: ('A' for Active; 'I' for Inactive)
REMARK    1  A    between atoms: C5_5  and  N1_6 
REMARK    2  A    between atoms: N1_6  and  C6_7 
REMARK    3  A    between atoms: C10_13  and  O1_14 
REMARK    4  A    between atoms: O1_14  and  C11_15 
REMARK    5  A    between atoms: C11_15  and  O2_17 
ROOT
HETATM    1  C1  UNL     1      29.153   8.057  48.215  1.00  0.00     0.049 C 
HETATM    2  C2  UNL     1      28.143   7.013  48.559  1.00  0.00    -0.041 A 
HETATM    3  C3  UNL     1      28.524   5.735  48.296  1.00  0.00     0.010 A 
HETATM    4  C4  UNL     1      27.637   4.737  48.591  1.00  0.00     0.030 A 
HETATM    5  C5  UNL     1      26.361   4.885  49.142  1.00  0.00     0.035 A 
HETATM    6  C18 UNL     1      26.055   6.217  49.378  1.00  0.00     0.052 A 
HETATM    7  C19 UNL     1      26.903   7.268  49.105  1.00  0.00     0.052 A 
HETATM    8  C20 UNL     1      26.600   8.646  49.346  1.00  0.00     0.100 C 
HETATM    9  N4  UNL     1      26.344   9.760  49.532  1.00  0.00    -0.191 NA
ENDROOT
BRANCH   5  10
HETATM   10  N1  UNL     1      25.444   3.841  49.467  1.00  0.00    -0.340 N 
HETATM   11  H6  UNL     1      24.780   3.917  48.675  1.00  0.00     0.167 HD
BRANCH  10  12
HETATM   12  C6  UNL     1      25.644   3.073  50.620  1.00  0.00     0.144 A 
HETATM   13  N2  UNL     1      26.887   2.894  51.055  1.00  0.00    -0.223 NA
HETATM   14  C7  UNL     1      27.201   2.184  52.151  1.00  0.00     0.236 A 
HETATM   15  N3  UNL     1      26.220   1.616  52.867  1.00  0.00    -0.241 NA
HETATM   16  C8  UNL     1      24.927   1.721  52.534  1.00  0.00     0.077 A 
HETATM   17  C9  UNL     1      23.872   1.151  53.243  1.00  0.00     0.072 A 
HETATM   18  C15 UNL     1      24.695   2.462  51.399  1.00  0.00     0.075 A 
HETATM   19  C10 UNL     1      22.524   1.290  52.857  1.00  0.00     0.110 A 
HETATM   20  C13 UNL     1      22.350   2.039  51.715  1.00  0.00     0.136 A 
HETATM   21  C14 UNL     1      23.382   2.608  51.005  1.00  0.00     0.121 A 
HETATM   22  O4  UNL     1      21.016   2.153  51.367  1.00  0.00    -0.344 OA
HETATM   23  O3  UNL     1      22.983   3.318  49.893  1.00  0.00    -0.345 OA
HETATM   24  C16 UNL     1      21.713   3.170  49.288  1.00  0.00     0.202 C 
HETATM   25  C17 UNL     1      20.644   3.088  50.373  1.00  0.00     0.202 C 
BRANCH  19  26
HETATM   26  O1  UNL     1      21.753   0.630  53.739  1.00  0.00    -0.315 OA
BRANCH  26  27
HETATM   27  C11 UNL     1      21.731  -0.709  54.014  1.00  0.00     0.304 C 
HETATM   28  C12 UNL     1      20.309  -1.214  53.674  1.00  0.00     0.074 C 
BRANCH  27  29
HETATM   29  O2  UNL     1      21.908  -0.986  55.389  1.00  0.00    -0.166 OA
HETATM   30  F1  UNL     1      22.906  -1.843  55.494  1.00  0.00    -0.045 F 
ENDBRANCH  27  29
ENDBRANCH  26  27
ENDBRANCH  19  26
ENDBRANCH  10  12
ENDBRANCH   5  10
TORSDOF 5
ENDMDL
MODEL 5
REMARK VINA RESULT:      -8.4      4.988      6.716
REMARK  5 active torsions:
REMARK  status: ('A' for Active; 'I' for Inactive)
REMARK    1  A    between atoms: C5_5  and  N1_6 
REMARK    2  A    between atoms: N1_6  and  C6_7 
REMARK    3  A    between atoms: C10_13  and  O1_14 
REMARK    4  A    between atoms: O1_14  and  C11_15 
REMARK    5  A    between atoms: C11_15  and  O2_17 
ROOT
HETATM    1  C1  UNL     1      28.110   8.371  47.970  1.00  0.00     0.049 C 
HETATM    2  C2  UNL     1      27.571   7.059  48.435  1.00  0.00    -0.041 A 
HETATM    3  C3  UNL     1      28.371   5.989  48.186  1.00  0.00     0.010 A 
HETATM    4  C4  UNL     1      27.926   4.760  48.590  1.00  0.00     0.030 A 
HETATM    5  C5  UNL     1      26.723   4.475  49.241  1.00  0.00     0.035 A 
HETATM    6  C18 UNL     1      25.972   5.622  49.455  1.00  0.00     0.052 A 
HETATM    7  C19 UNL     1      26.362   6.887  49.074  1.00  0.00     0.052 A 
HETATM    8  C20 UNL     1      25.596   8.077  49.291  1.00  0.00     0.100 C 
HETATM    9  N4  UNL     1      24.968   9.035  49.458  1.00  0.00    -0.191 NA
ENDROOT
BRANCH   5  10
HETATM   10  N1  UNL     1      26.270   3.195  49.679  1.00  0.00    -0.340 N 
HETATM   11  H6  UNL     1      27.168   2.681  49.729  1.00  0.00     0.167 HD
BRANCH  10  12
HETATM   12  C6  UNL     1      24.905   2.980  49.904  1.00  0.00     0.144 A 
HETATM   13  N2  UNL     1      24.032   3.473  49.031  1.00  0.00    -0.223 NA
HETATM   14  C7  UNL     1      22.702   3.325  49.139  1.00  0.00     0.236 A 
HETATM   15  N3  UNL     1      22.200   2.642  50.179  1.00  0.00    -0.241 NA
HETATM   16  C8  UNL     1      22.973   2.097  51.127  1.00  0.00     0.077 A 
HETATM   17  C9  UNL     1      22.502   1.380  52.225  1.00  0.00     0.072 A 
HETATM   18  C15 UNL     1      24.321   2.297  50.940  1.00  0.00     0.075 A 
HETATM   19  C10 UNL     1      23.353   0.821  53.198  1.00  0.00     0.110 A 
HETATM   20  C13 UNL     1      24.690   1.052  52.963  1.00  0.00     0.136 A 
HETATM   21  C14 UNL     1      25.169   1.759  51.884  1.00  0.00     0.121 A 
HETATM   22  O4  UNL     1      25.494   0.490  53.939  1.00  0.00    -0.344 OA
HETATM   23  O3  UNL     1      26.542   1.870  51.843  1.00  0.00    -0.345 OA
HETATM   24  C16 UNL     1      27.377   1.650  52.963  1.00  0.00     0.202 C 
HETATM   25  C17 UNL     1      26.889   0.419  53.721  1.00  0.00     0.202 C 
BRANCH  19  26
HETATM   26  O1  UNL     1      22.601   0.195  54.120  1.00  0.00    -0.315 OA
BRANCH  26  27
HETATM   27  C11 UNL     1      22.326  -1.140  54.230  1.00  0.00     0.304 C 
HETATM   28  C12 UNL     1      20.801  -1.302  54.031  1.00  0.00     0.074 C 
BRANCH  27  29
HETATM   29  O2  UNL     1      22.592  -1.647  55.522  1.00  0.00    -0.166 OA
HETATM   30  F1  UNL     1      23.823  -1.294  55.839  1.00  0.00    -0.045 F 
ENDBRANCH  27  29
ENDBRANCH  26  27
ENDBRANCH  19  26
ENDBRANCH  10  12
ENDBRANCH   5  10
TORSDOF 5
ENDMDL
MODEL 6
REMARK VINA RESULT:      -8.3      2.053      3.363
REMARK  5 active torsions:
REMARK  status: ('A' for Active; 'I' for Inactive)
REMARK    1  A    between atoms: C5_5  and  N1_6 
REMARK    2  A    between atoms: N1_6  and  C6_7 
REMARK    3  A    between atoms: C10_13  and  O1_14 
REMARK    4  A    between atoms: O1_14  and  C11_15 
REMARK    5  A    between atoms: C11_15  and  O2_17 
ROOT
HETATM    1  C1  UNL     1      29.470  -0.960  53.457  1.00  0.00     0.049 C 
HETATM    2  C2  UNL     1      28.138  -0.287  53.403  1.00  0.00    -0.041 A 
HETATM    3  C3  UNL     1      27.150  -1.015  52.820  1.00  0.00     0.010 A 
HETATM    4  C4  UNL     1      25.908  -0.447  52.742  1.00  0.00     0.030 A 
HETATM    5  C5  UNL     1      25.535   0.819  53.201  1.00  0.00     0.035 A 
HETATM    6  C18 UNL     1      26.602   1.491  53.780  1.00  0.00     0.052 A 
HETATM    7  C19 UNL     1      27.874   0.975  53.890  1.00  0.00     0.052 A 
HETATM    8  C20 UNL     1      28.983   1.658  54.486  1.00  0.00     0.100 C 
HETATM    9  N4  UNL     1      29.878   2.219  54.959  1.00  0.00    -0.191 NA
ENDROOT
BRANCH   5  10
HETATM   10  N1  UNL     1      24.234   1.403  53.135  1.00  0.00    -0.340 N 
HETATM   11  H6  UNL     1      23.975   1.405  54.138  1.00  0.00     0.167 HD
BRANCH  10  12
HETATM   12  C6  UNL     1      23.704   1.782  51.896  1.00  0.00     0.144 A 
HETATM   13  N2  UNL     1      24.470   2.479  51.064  1.00  0.00    -0.223 NA
HETATM   14  C7  UNL     1      24.074   2.890  49.849  1.00  0.00     0.236 A 
HETATM   15  N3  UNL     1      22.837   2.590  49.427  1.00  0.00    -0.241 NA
HETATM   16  C8  UNL     1      21.967   1.895  50.170  1.00  0.00     0.077 A 
HETATM   17  C9  UNL     1      20.673   1.558  49.779  1.00  0.00     0.072 A 
HETATM   18  C15 UNL     1      22.454   1.515  51.399  1.00  0.00     0.075 A 
HETATM   19  C10 UNL     1      19.792   0.821  50.594  1.00  0.00     0.110 A 
HETATM   20  C13 UNL     1      20.329   0.468  51.812  1.00  0.00     0.136 A 
HETATM   21  C14 UNL     1      21.605   0.794  52.212  1.00  0.00     0.121 A 
HETATM   22  O4  UNL     1      19.436  -0.253  52.584  1.00  0.00    -0.344 OA
HETATM   23  O3  UNL     1      21.939   0.340  53.470  1.00  0.00    -0.345 OA
HETATM   24  C16 UNL     1      20.984  -0.066  54.431  1.00  0.00     0.202 C 
HETATM   25  C17 UNL     1      19.906  -0.902  53.749  1.00  0.00     0.202 C 
BRANCH  19  26
HETATM   26  O1  UNL     1      18.630   0.660  49.937  1.00  0.00    -0.315 OA
BRANCH  26  27
HETATM   27  C11 UNL     1      17.439   1.296  50.149  1.00  0.00     0.304 C 
HETATM   28  C12 UNL     1      17.129   2.109  48.870  1.00  0.00     0.074 C 
BRANCH  27  29
HETATM   29  O2  UNL     1      17.507   2.249  51.191  1.00  0.00    -0.166 OA
HETATM   30  F1  UNL     1      17.677   3.433  50.633  1.00  0.00    -0.045 F 
ENDBRANCH  27  29
ENDBRANCH  26  27
ENDBRANCH  19  26
ENDBRANCH  10  12
ENDBRANCH   5  10
TORSDOF 5
ENDMDL
MODEL 7
REMARK VINA RESULT:      -8.3      3.560      8.243
REMARK  5 active torsions:
REMARK  status: ('A' for Active; 'I' for Inactive)
REMARK    1  A    between atoms: C5_5  and  N1_6 
REMARK    2  A    between atoms: N1_6  and  C6_7 
REMARK    3  A    between atoms: C10_13  and  O1_14 
REMARK    4  A    between atoms: O1_14  and  C11_15 
REMARK    5  A    between atoms: C11_15  and  O2_17 
ROOT
HETATM    1  C1  UNL     1      16.477  -0.439  49.463  1.00  0.00     0.049 C 
HETATM    2  C2  UNL     1      17.528   0.011  50.422  1.00  0.00    -0.041 A 
HETATM    3  C3  UNL     1      18.420   0.906  49.920  1.00  0.00     0.010 A 
HETATM    4  C4  UNL     1      19.407   1.352  50.755  1.00  0.00     0.030 A 
HETATM    5  C5  UNL     1      19.606   0.986  52.089  1.00  0.00     0.035 A 
HETATM    6  C18 UNL     1      18.653   0.073  52.519  1.00  0.00     0.052 A 
HETATM    7  C19 UNL     1      17.635  -0.415  51.729  1.00  0.00     0.052 A 
HETATM    8  C20 UNL     1      16.647  -1.355  52.161  1.00  0.00     0.100 C 
HETATM    9  N4  UNL     1      15.856  -2.125  52.512  1.00  0.00    -0.191 NA
ENDROOT
BRANCH   5  10
HETATM   10  N1  UNL     1      20.625   1.467  52.965  1.00  0.00    -0.340 N 
HETATM   11  H6  UNL     1      20.408   2.480  52.971  1.00  0.00     0.167 HD
BRANCH  10  12
HETATM   12  C6  UNL     1      21.541   0.569  53.525  1.00  0.00     0.144 A 
HETATM   13  N2  UNL     1      21.083  -0.390  54.323  1.00  0.00    -0.223 NA
HETATM   14  C7  UNL     1      21.863  -1.311  54.911  1.00  0.00     0.236 A 
HETATM   15  N3  UNL     1      23.186  -1.284  54.693  1.00  0.00    -0.241 NA
HETATM   16  C8  UNL     1      23.772  -0.369  53.910  1.00  0.00     0.077 A 
HETATM   17  C9  UNL     1      25.139  -0.298  53.651  1.00  0.00     0.072 A 
HETATM   18  C15 UNL     1      22.900   0.535  53.350  1.00  0.00     0.075 A 
HETATM   19  C10 UNL     1      25.713   0.681  52.817  1.00  0.00     0.110 A 
HETATM   20  C13 UNL     1      24.797   1.561  52.285  1.00  0.00     0.136 A 
HETATM   21  C14 UNL     1      23.444   1.503  52.532  1.00  0.00     0.121 A 
HETATM   22  O4  UNL     1      25.396   2.507  51.473  1.00  0.00    -0.344 OA
HETATM   23  O3  UNL     1      22.709   2.481  51.897  1.00  0.00    -0.345 OA
HETATM   24  C16 UNL     1      23.276   3.665  51.370  1.00  0.00     0.202 C 
HETATM   25  C17 UNL     1      24.581   3.325  50.657  1.00  0.00     0.202 C 
BRANCH  19  26
HETATM   26  O1  UNL     1      27.042   0.482  52.769  1.00  0.00    -0.315 OA
BRANCH  26  27
HETATM   27  C11 UNL     1      27.982   0.785  53.714  1.00  0.00     0.304 C 
HETATM   28  C12 UNL     1      28.382   2.262  53.493  1.00  0.00     0.074 C 
BRANCH  27  29
HETATM   29  O2  UNL     1      29.175   0.045  53.552  1.00  0.00    -0.166 OA
HETATM   30  F1  UNL     1      28.888  -1.013  52.819  1.00  0.00    -0.045 F 
ENDBRANCH  27  29
ENDBRANCH  26  27
ENDBRANCH  19  26
ENDBRANCH  10  12
ENDBRANCH   5  10
TORSDOF 5
ENDMDL
MODEL 8
REMARK VINA RESULT:      -8.2      4.174      8.780
REMARK  5 active torsions:
REMARK  status: ('A' for Active; 'I' for Inactive)
REMARK    1  A    between atoms: C5_5  and  N1_6 
REMARK    2  A    between atoms: N1_6  and  C6_7 
REMARK    3  A    between atoms: C10_13  and  O1_14 
REMARK    4  A    between atoms: O1_14  and  C11_15 
REMARK    5  A    between atoms: C11_15  and  O2_17 
ROOT
HETATM    1  C1  UNL     1      17.173   1.534  49.391  1.00  0.00     0.049 C 
HETATM    2  C2  UNL     1      18.365   1.672  50.277  1.00  0.00    -0.041 A 
HETATM    3  C3  UNL     1      19.375   0.799  50.023  1.00  0.00     0.010 A 
HETATM    4  C4  UNL     1      20.493   0.880  50.806  1.00  0.00     0.030 A 
HETATM    5  C5  UNL     1      20.719   1.774  51.857  1.00  0.00     0.035 A 
HETATM    6  C18 UNL     1      19.641   2.626  52.046  1.00  0.00     0.052 A 
HETATM    7  C19 UNL     1      18.488   2.597  51.292  1.00  0.00     0.052 A 
HETATM    8  C20 UNL     1      17.370   3.471  51.477  1.00  0.00     0.100 C 
HETATM    9  N4  UNL     1      16.464   4.174  51.639  1.00  0.00    -0.191 NA
ENDROOT
BRANCH   5  10
HETATM   10  N1  UNL     1      21.894   1.869  52.661  1.00  0.00    -0.340 N 
HETATM   11  H6  UNL     1      21.491   1.731  53.605  1.00  0.00     0.167 HD
BRANCH  10  12
HETATM   12  C6  UNL     1      23.136   2.092  52.054  1.00  0.00     0.144 A 
HETATM   13  N2  UNL     1      23.219   3.010  51.097  1.00  0.00    -0.223 NA
HETATM   14  C7  UNL     1      24.355   3.315  50.449  1.00  0.00     0.236 A 
HETATM   15  N3  UNL     1      25.486   2.670  50.771  1.00  0.00    -0.241 NA
HETATM   16  C8  UNL     1      25.536   1.724  51.716  1.00  0.00     0.077 A 
HETATM   17  C9  UNL     1      26.683   1.026  52.088  1.00  0.00     0.072 A 
HETATM   18  C15 UNL     1      24.329   1.474  52.328  1.00  0.00     0.075 A 
HETATM   19  C10 UNL     1      26.689   0.039  53.092  1.00  0.00     0.110 A 
HETATM   20  C13 UNL     1      25.457  -0.173  53.669  1.00  0.00     0.136 A 
HETATM   21  C14 UNL     1      24.316   0.509  53.312  1.00  0.00     0.121 A 
HETATM   22  O4  UNL     1      25.502  -1.149  54.648  1.00  0.00    -0.344 OA
HETATM   23  O3  UNL     1      23.190   0.140  54.018  1.00  0.00    -0.345 OA
HETATM   24  C16 UNL     1      23.088  -1.068  54.747  1.00  0.00     0.202 C 
HETATM   25  C17 UNL     1      24.389  -1.311  55.505  1.00  0.00     0.202 C 
BRANCH  19  26
HETATM   26  O1  UNL     1      27.939  -0.443  53.215  1.00  0.00    -0.315 OA
BRANCH  26  27
HETATM   27  C11 UNL     1      28.803  -0.305  54.265  1.00  0.00     0.304 C 
HETATM   28  C12 UNL     1      29.205   1.188  54.322  1.00  0.00     0.074 C 
BRANCH  27  29
HETATM   29  O2  UNL     1      30.012  -1.011  54.072  1.00  0.00    -0.166 OA
HETATM   30  F1  UNL     1      30.303  -0.953  52.787  1.00  0.00    -0.045 F 
ENDBRANCH  27  29
ENDBRANCH  26  27
ENDBRANCH  19  26
ENDBRANCH  10  12
ENDBRANCH   5  10
TORSDOF 5
ENDMDL
MODEL 9
REMARK VINA RESULT:      -8.1      4.766      6.521
REMARK  5 active torsions:
REMARK  status: ('A' for Active; 'I' for Inactive)
REMARK    1  A    between atoms: C5_5  and  N1_6 
REMARK    2  A    between atoms: N1_6  and  C6_7 
REMARK    3  A    between atoms: C10_13  and  O1_14 
REMARK    4  A    between atoms: O1_14  and  C11_15 
REMARK    5  A    between atoms: C11_15  and  O2_17 
ROOT
HETATM    1  C1  UNL     1      25.799   7.858  47.319  1.00  0.00     0.049 C 
HETATM    2  C2  UNL     1      25.340   7.177  48.565  1.00  0.00    -0.041 A 
HETATM    3  C3  UNL     1      24.791   5.948  48.379  1.00  0.00     0.010 A 
HETATM    4  C4  UNL     1      24.352   5.278  49.488  1.00  0.00     0.030 A 
HETATM    5  C5  UNL     1      24.406   5.720  50.812  1.00  0.00     0.035 A 
HETATM    6  C18 UNL     1      24.980   6.980  50.909  1.00  0.00     0.052 A 
HETATM    7  C19 UNL     1      25.441   7.706  49.834  1.00  0.00     0.052 A 
HETATM    8  C20 UNL     1      26.037   9.005  49.921  1.00  0.00     0.100 C 
HETATM    9  N4  UNL     1      26.507  10.061  49.997  1.00  0.00    -0.191 NA
ENDROOT
BRANCH   5  10
HETATM   10  N1  UNL     1      23.965   5.011  51.970  1.00  0.00    -0.340 N 
HETATM   11  H6  UNL     1      24.712   5.261  52.642  1.00  0.00     0.167 HD
BRANCH  10  12
HETATM   12  C6  UNL     1      22.787   4.258  51.916  1.00  0.00     0.144 A 
HETATM   13  N2  UNL     1      21.662   4.863  51.548  1.00  0.00    -0.223 NA
HETATM   14  C7  UNL     1      20.475   4.243  51.452  1.00  0.00     0.236 A 
HETATM   15  N3  UNL     1      20.394   2.935  51.739  1.00  0.00    -0.241 NA
HETATM   16  C8  UNL     1      21.454   2.211  52.123  1.00  0.00     0.077 A 
HETATM   17  C9  UNL     1      21.423   0.853  52.431  1.00  0.00     0.072 A 
HETATM   18  C15 UNL     1      22.628   2.924  52.195  1.00  0.00     0.075 A 
HETATM   19  C10 UNL     1      22.564   0.130  52.828  1.00  0.00     0.110 A 
HETATM   20  C13 UNL     1      23.711   0.892  52.885  1.00  0.00     0.136 A 
HETATM   21  C14 UNL     1      23.755   2.234  52.583  1.00  0.00     0.121 A 
HETATM   22  O4  UNL     1      24.809   0.149  53.279  1.00  0.00    -0.344 OA
HETATM   23  O3  UNL     1      25.006   2.801  52.706  1.00  0.00    -0.345 OA
HETATM   24  C16 UNL     1      26.063   2.210  53.438  1.00  0.00     0.202 C 
HETATM   25  C17 UNL     1      26.099   0.713  53.149  1.00  0.00     0.202 C 
BRANCH  19  26
HETATM   26  O1  UNL     1      22.210  -1.148  53.051  1.00  0.00    -0.315 OA
BRANCH  26  27
HETATM   27  C11 UNL     1      21.799  -1.724  54.220  1.00  0.00     0.304 C 
HETATM   28  C12 UNL     1      20.255  -1.795  54.168  1.00  0.00     0.074 C 
BRANCH  27  29
HETATM   29  O2  UNL     1      22.100  -0.934  55.353  1.00  0.00    -0.166 OA
HETATM   30  F1  UNL     1      23.264  -1.342  55.822  1.00  0.00    -0.045 F 
ENDBRANCH  27  29
ENDBRANCH  26  27
ENDBRANCH  19  26
ENDBRANCH  10  12
ENDBRANCH   5  10
TORSDOF 5
ENDMDL
