MODEL 1
REMARK VINA RESULT:      -8.3      0.000      0.000
REMARK  7 active torsions:
REMARK  status: ('A' for Active; 'I' for Inactive)
REMARK    1  A    between atoms: N1_1  and  C1_2 
REMARK    2  A    between atoms: C1_2  and  N2_4 
REMARK    3  A    between atoms: N2_4  and  C2_5 
REMARK    4  A    between atoms: C2_5  and  C3_6 
REMARK    5  A    between atoms: C2_5  and  C14_18 
REMARK    6  A    between atoms: C4_7  and  N3_8 
REMARK    7  A    between atoms: N3_8  and  C5_9 
ROOT
HETATM    1  C2  UNL     1      24.306   3.961  50.462  1.00  0.00     0.141 C 
ENDROOT
BRANCH   1   2
HETATM    2  N2  UNL     1      23.854   5.219  49.900  1.00  0.00    -0.355 N 
HETATM    3  H3  UNL     1      23.774   5.553  48.896  1.00  0.00     0.163 HD
BRANCH   2   4
HETATM    4  C1  UNL     1      23.443   6.190  50.853  1.00  0.00     0.166 C 
HETATM    5  S1  UNL     1      22.023   6.999  50.824  1.00  0.00    -0.041 SA
BRANCH   4   6
HETATM    6  N1  UNL     1      24.280   6.554  51.970  1.00  0.00    -0.376 N 
HETATM    7  H1  UNL     1      23.779   7.244  52.601  1.00  0.00     0.158 HD
HETATM    8  H2  UNL     1      25.063   5.925  51.630  1.00  0.00     0.158 HD
ENDBRANCH   4   6
ENDBRANCH   2   4
ENDBRANCH   1   2
BRANCH   1   9
HETATM    9  C3  UNL     1      25.639   3.575  49.992  1.00  0.00     0.020 C 
HETATM   10  C4  UNL     1      26.617   3.050  50.708  1.00  0.00     0.086 C 
BRANCH  10  11
HETATM   11  N3  UNL     1      26.437   2.802  52.079  1.00  0.00    -0.367 N 
HETATM   12  H7  UNL     1      25.990   3.314  52.862  1.00  0.00     0.165 HD
BRANCH  11  13
HETATM   13  C5  UNL     1      27.035   1.516  52.421  1.00  0.00     0.025 A 
HETATM   14  C6  UNL     1      28.185   1.322  53.098  1.00  0.00     0.003 A 
HETATM   15  C7  UNL     1      29.410   0.897  53.819  1.00  0.00     0.035 A 
HETATM   16  C8  UNL     1      29.546  -0.575  53.885  1.00  0.00     0.002 A 
HETATM   17  C9  UNL     1      28.487  -1.146  53.253  1.00  0.00     0.020 A 
HETATM   18  C10 UNL     1      28.005  -2.528  52.954  1.00  0.00    -0.024 A 
HETATM   19  C11 UNL     1      26.888  -2.186  52.297  1.00  0.00    -0.021 A 
HETATM   20  C12 UNL     1      26.972  -0.696  52.362  1.00  0.00     0.044 A 
HETATM   21  C13 UNL     1      26.226   0.355  51.931  1.00  0.00     0.012 A 
ENDBRANCH  11  13
ENDBRANCH  10  11
ENDBRANCH   1   9
BRANCH   1  22
HETATM   22  C14 UNL     1      23.332   2.915  50.000  1.00  0.00    -0.032 A 
HETATM   23  C15 UNL     1      22.721   2.012  50.861  1.00  0.00     0.009 A 
HETATM   24  C16 UNL     1      21.839   1.086  50.347  1.00  0.00     0.001 A 
HETATM   25  C17 UNL     1      21.537   1.022  48.997  1.00  0.00     0.000 A 
HETATM   26  C18 UNL     1      22.129   1.909  48.102  1.00  0.00     0.001 A 
HETATM   27  C19 UNL     1      23.002   2.813  48.670  1.00  0.00     0.009 A 
ENDBRANCH   1  22
TORSDOF 7
ENDMDL
MODEL 2
REMARK VINA RESULT:      -8.3      2.138      3.237
REMARK  7 active torsions:
REMARK  status: ('A' for Active; 'I' for Inactive)
REMARK    1  A    between atoms: N1_1  and  C1_2 
REMARK    2  A    between atoms: C1_2  and  N2_4 
REMARK    3  A    between atoms: N2_4  and  C2_5 
REMARK    4  A    between atoms: C2_5  and  C3_6 
REMARK    5  A    between atoms: C2_5  and  C14_18 
REMARK    6  A    between atoms: C4_7  and  N3_8 
REMARK    7  A    between atoms: N3_8  and  C5_9 
ROOT
HETATM    1  C2  UNL     1      23.093   2.511  52.598  1.00  0.00     0.141 C 
ENDROOT
BRANCH   1   2
HETATM    2  N2  UNL     1      22.079   3.535  52.443  1.00  0.00    -0.355 N 
HETATM    3  H3  UNL     1      21.019   3.482  52.447  1.00  0.00     0.163 HD
BRANCH   2   4
HETATM    4  C1  UNL     1      22.578   4.852  52.250  1.00  0.00     0.166 C 
HETATM    5  S1  UNL     1      22.055   5.902  51.113  1.00  0.00    -0.041 SA
BRANCH   4   6
HETATM    6  N1  UNL     1      23.630   5.390  53.079  1.00  0.00    -0.376 N 
HETATM    7  H1  UNL     1      23.547   6.445  53.144  1.00  0.00     0.158 HD
HETATM    8  H2  UNL     1      24.029   4.424  53.256  1.00  0.00     0.158 HD
ENDBRANCH   4   6
ENDBRANCH   2   4
ENDBRANCH   1   2
BRANCH   1   9
HETATM    9  C3  UNL     1      23.796   2.213  51.347  1.00  0.00     0.020 C 
HETATM   10  C4  UNL     1      25.099   2.261  51.133  1.00  0.00     0.086 C 
BRANCH  10  11
HETATM   11  N3  UNL     1      25.974   2.628  52.168  1.00  0.00    -0.367 N 
HETATM   12  H7  UNL     1      26.140   3.495  52.714  1.00  0.00     0.165 HD
BRANCH  11  13
HETATM   13  C5  UNL     1      26.818   1.489  52.515  1.00  0.00     0.025 A 
HETATM   14  C6  UNL     1      26.509   0.186  52.358  1.00  0.00     0.003 A 
HETATM   15  C7  UNL     1      26.365  -1.288  52.269  1.00  0.00     0.035 A 
HETATM   16  C8  UNL     1      27.557  -2.004  52.775  1.00  0.00     0.002 A 
HETATM   17  C9  UNL     1      28.477  -1.095  53.193  1.00  0.00     0.020 A 
HETATM   18  C10 UNL     1      29.846  -1.116  53.790  1.00  0.00    -0.024 A 
HETATM   19  C11 UNL     1      30.016   0.210  53.887  1.00  0.00    -0.021 A 
HETATM   20  C12 UNL     1      28.718   0.697  53.330  1.00  0.00     0.044 A 
HETATM   21  C13 UNL     1      28.135   1.903  53.096  1.00  0.00     0.012 A 
ENDBRANCH  11  13
ENDBRANCH  10  11
ENDBRANCH   1   9
BRANCH   1  22
HETATM   22  C14 UNL     1      22.376   1.265  53.034  1.00  0.00    -0.032 A 
HETATM   23  C15 UNL     1      20.994   1.131  52.998  1.00  0.00     0.009 A 
HETATM   24  C16 UNL     1      20.422  -0.051  53.418  1.00  0.00     0.001 A 
HETATM   25  C17 UNL     1      21.179  -1.116  53.876  1.00  0.00     0.000 A 
HETATM   26  C18 UNL     1      22.567  -1.021  53.928  1.00  0.00     0.001 A 
HETATM   27  C19 UNL     1      23.084   0.182  53.496  1.00  0.00     0.009 A 
ENDBRANCH   1  22
TORSDOF 7
ENDMDL
MODEL 3
REMARK VINA RESULT:      -8.2      1.292      2.537
REMARK  7 active torsions:
REMARK  status: ('A' for Active; 'I' for Inactive)
REMARK    1  A    between atoms: N1_1  and  C1_2 
REMARK    2  A    between atoms: C1_2  and  N2_4 
REMARK    3  A    between atoms: N2_4  and  C2_5 
REMARK    4  A    between atoms: C2_5  and  C3_6 
REMARK    5  A    between atoms: C2_5  and  C14_18 
REMARK    6  A    between atoms: C4_7  and  N3_8 
REMARK    7  A    between atoms: N3_8  and  C5_9 
ROOT
HETATM    1  C2  UNL     1      23.756   3.331  51.528  1.00  0.00     0.141 C 
ENDROOT
BRANCH   1   2
HETATM    2  N2  UNL     1      22.746   4.211  50.976  1.00  0.00    -0.355 N 
HETATM    3  H3  UNL     1      21.930   4.025  50.321  1.00  0.00     0.163 HD
BRANCH   2   4
HETATM    4  C1  UNL     1      22.851   5.572  51.372  1.00  0.00     0.166 C 
HETATM    5  S1  UNL     1      21.912   6.792  50.823  1.00  0.00    -0.041 SA
BRANCH   4   6
HETATM    6  N1  UNL     1      23.838   6.005  52.333  1.00  0.00    -0.376 N 
HETATM    7  H1  UNL     1      24.743   5.470  52.201  1.00  0.00     0.158 HD
HETATM    8  H2  UNL     1      23.164   6.705  52.758  1.00  0.00     0.158 HD
ENDBRANCH   4   6
ENDBRANCH   2   4
ENDBRANCH   1   2
BRANCH   1   9
HETATM    9  C3  UNL     1      24.839   3.046  50.583  1.00  0.00     0.020 C 
HETATM   10  C4  UNL     1      26.111   2.828  50.868  1.00  0.00     0.086 C 
BRANCH  10  11
HETATM   11  N3  UNL     1      26.552   2.853  52.201  1.00  0.00    -0.367 N 
HETATM   12  H7  UNL     1      26.513   3.546  52.972  1.00  0.00     0.165 HD
BRANCH  11  13
HETATM   13  C5  UNL     1      27.205   1.587  52.519  1.00  0.00     0.025 A 
HETATM   14  C6  UNL     1      26.691   0.353  52.342  1.00  0.00     0.003 A 
HETATM   15  C7  UNL     1      26.312  -1.077  52.227  1.00  0.00     0.035 A 
HETATM   16  C8  UNL     1      27.377  -1.984  52.709  1.00  0.00     0.002 A 
HETATM   17  C9  UNL     1      28.434  -1.241  53.133  1.00  0.00     0.020 A 
HETATM   18  C10 UNL     1      29.786  -1.492  53.715  1.00  0.00    -0.024 A 
HETATM   19  C11 UNL     1      30.167  -0.213  53.834  1.00  0.00    -0.021 A 
HETATM   20  C12 UNL     1      28.960   0.486  53.299  1.00  0.00     0.044 A 
HETATM   21  C13 UNL     1      28.575   1.774  53.093  1.00  0.00     0.012 A 
ENDBRANCH  11  13
ENDBRANCH  10  11
ENDBRANCH   1   9
BRANCH   1  22
HETATM   22  C14 UNL     1      23.065   2.035  51.843  1.00  0.00    -0.032 A 
HETATM   23  C15 UNL     1      22.170   1.420  50.976  1.00  0.00     0.009 A 
HETATM   24  C16 UNL     1      21.583   0.230  51.350  1.00  0.00     0.001 A 
HETATM   25  C17 UNL     1      21.854  -0.378  52.564  1.00  0.00     0.000 A 
HETATM   26  C18 UNL     1      22.745   0.206  53.460  1.00  0.00     0.001 A 
HETATM   27  C19 UNL     1      23.302   1.394  53.035  1.00  0.00     0.009 A 
ENDBRANCH   1  22
TORSDOF 7
ENDMDL
MODEL 4
REMARK VINA RESULT:      -8.0      2.906      6.127
REMARK  7 active torsions:
REMARK  status: ('A' for Active; 'I' for Inactive)
REMARK    1  A    between atoms: N1_1  and  C1_2 
REMARK    2  A    between atoms: C1_2  and  N2_4 
REMARK    3  A    between atoms: N2_4  and  C2_5 
REMARK    4  A    between atoms: C2_5  and  C3_6 
REMARK    5  A    between atoms: C2_5  and  C14_18 
REMARK    6  A    between atoms: C4_7  and  N3_8 
REMARK    7  A    between atoms: N3_8  and  C5_9 
ROOT
HETATM    1  C2  UNL     1      25.893   2.189  51.762  1.00  0.00     0.141 C 
ENDROOT
BRANCH   1   2
HETATM    2  N2  UNL     1      26.822   3.161  51.220  1.00  0.00    -0.355 N 
HETATM    3  H3  UNL     1      27.767   3.501  51.566  1.00  0.00     0.163 HD
BRANCH   2   4
HETATM    4  C1  UNL     1      26.408   3.779  50.009  1.00  0.00     0.166 C 
HETATM    5  S1  UNL     1      24.926   3.639  49.335  1.00  0.00    -0.041 SA
BRANCH   4   6
HETATM    6  N1  UNL     1      27.301   4.617  49.245  1.00  0.00    -0.376 N 
HETATM    7  H1  UNL     1      28.285   4.221  49.260  1.00  0.00     0.158 HD
HETATM    8  H2  UNL     1      26.516   5.287  49.001  1.00  0.00     0.158 HD
ENDBRANCH   4   6
ENDBRANCH   2   4
ENDBRANCH   1   2
BRANCH   1   9
HETATM    9  C3  UNL     1      25.080   2.728  52.855  1.00  0.00     0.020 C 
HETATM   10  C4  UNL     1      23.761   2.742  52.937  1.00  0.00     0.086 C 
BRANCH  10  11
HETATM   11  N3  UNL     1      22.982   2.197  51.903  1.00  0.00    -0.367 N 
HETATM   12  H7  UNL     1      22.906   2.358  50.881  1.00  0.00     0.165 HD
BRANCH  11  13
HETATM   13  C5  UNL     1      22.094   1.177  52.452  1.00  0.00     0.025 A 
HETATM   14  C6  UNL     1      22.418   0.245  53.371  1.00  0.00     0.003 A 
HETATM   15  C7  UNL     1      22.567  -0.847  54.364  1.00  0.00     0.035 A 
HETATM   16  C8  UNL     1      21.315  -1.612  54.557  1.00  0.00     0.002 A 
HETATM   17  C9  UNL     1      20.350  -1.092  53.753  1.00  0.00     0.020 A 
HETATM   18  C10 UNL     1      18.912  -1.362  53.452  1.00  0.00    -0.024 A 
HETATM   19  C11 UNL     1      18.735  -0.388  52.549  1.00  0.00    -0.021 A 
HETATM   20  C12 UNL     1      20.098   0.224  52.531  1.00  0.00     0.044 A 
HETATM   21  C13 UNL     1      20.712   1.248  51.880  1.00  0.00     0.012 A 
ENDBRANCH  11  13
ENDBRANCH  10  11
ENDBRANCH   1   9
BRANCH   1  22
HETATM   22  C14 UNL     1      26.726   1.067  52.315  1.00  0.00    -0.032 A 
HETATM   23  C15 UNL     1      26.369  -0.270  52.205  1.00  0.00     0.009 A 
HETATM   24  C16 UNL     1      27.197  -1.233  52.743  1.00  0.00     0.001 A 
HETATM   25  C17 UNL     1      28.377  -0.913  53.392  1.00  0.00     0.000 A 
HETATM   26  C18 UNL     1      28.770   0.416  53.523  1.00  0.00     0.001 A 
HETATM   27  C19 UNL     1      27.906   1.335  52.967  1.00  0.00     0.009 A 
ENDBRANCH   1  22
TORSDOF 7
ENDMDL
MODEL 5
REMARK VINA RESULT:      -7.8      3.171      4.993
REMARK  7 active torsions:
REMARK  status: ('A' for Active; 'I' for Inactive)
REMARK    1  A    between atoms: N1_1  and  C1_2 
REMARK    2  A    between atoms: C1_2  and  N2_4 
REMARK    3  A    between atoms: N2_4  and  C2_5 
REMARK    4  A    between atoms: C2_5  and  C3_6 
REMARK    5  A    between atoms: C2_5  and  C14_18 
REMARK    6  A    between atoms: C4_7  and  N3_8 
REMARK    7  A    between atoms: N3_8  and  C5_9 
ROOT
HETATM    1  C2  UNL     1      26.137   5.803  49.174  1.00  0.00     0.141 C 
ENDROOT
BRANCH   1   2
HETATM    2  N2  UNL     1      26.086   6.559  50.409  1.00  0.00    -0.355 N 
HETATM    3  H3  UNL     1      26.854   6.907  51.054  1.00  0.00     0.163 HD
BRANCH   2   4
HETATM    4  C1  UNL     1      24.779   6.904  50.851  1.00  0.00     0.166 C 
HETATM    5  S1  UNL     1      23.684   7.754  49.986  1.00  0.00    -0.041 SA
BRANCH   4   6
HETATM    6  N1  UNL     1      24.294   6.513  52.153  1.00  0.00    -0.376 N 
HETATM    7  H1  UNL     1      24.195   5.460  52.211  1.00  0.00     0.158 HD
HETATM    8  H2  UNL     1      24.258   7.522  52.478  1.00  0.00     0.158 HD
ENDBRANCH   4   6
ENDBRANCH   2   4
ENDBRANCH   1   2
BRANCH   1   9
HETATM    9  C3  UNL     1      26.791   4.502  49.330  1.00  0.00     0.020 C 
HETATM   10  C4  UNL     1      26.274   3.406  49.856  1.00  0.00     0.086 C 
BRANCH  10  11
HETATM   11  N3  UNL     1      24.955   3.407  50.340  1.00  0.00    -0.367 N 
HETATM   12  H7  UNL     1      24.122   4.007  50.192  1.00  0.00     0.165 HD
BRANCH  11  13
HETATM   13  C5  UNL     1      24.774   2.285  51.255  1.00  0.00     0.025 A 
HETATM   14  C6  UNL     1      25.719   1.401  51.634  1.00  0.00     0.003 A 
HETATM   15  C7  UNL     1      26.602   0.336  52.172  1.00  0.00     0.035 A 
HETATM   16  C8  UNL     1      25.890  -0.577  53.093  1.00  0.00     0.002 A 
HETATM   17  C9  UNL     1      24.594  -0.181  53.196  1.00  0.00     0.020 A 
HETATM   18  C10 UNL     1      23.367  -0.628  53.922  1.00  0.00    -0.024 A 
HETATM   19  C11 UNL     1      22.536   0.317  53.460  1.00  0.00    -0.021 A 
HETATM   20  C12 UNL     1      23.461   1.092  52.579  1.00  0.00     0.044 A 
HETATM   21  C13 UNL     1      23.373   2.184  51.773  1.00  0.00     0.012 A 
ENDBRANCH  11  13
ENDBRANCH  10  11
ENDBRANCH   1   9
BRANCH   1  22
HETATM   22  C14 UNL     1      26.952   6.618  48.210  1.00  0.00    -0.032 A 
HETATM   23  C15 UNL     1      26.415   7.635  47.431  1.00  0.00     0.009 A 
HETATM   24  C16 UNL     1      27.241   8.331  46.573  1.00  0.00     0.001 A 
HETATM   25  C17 UNL     1      28.592   8.052  46.460  1.00  0.00     0.000 A 
HETATM   26  C18 UNL     1      29.168   7.040  47.223  1.00  0.00     0.001 A 
HETATM   27  C19 UNL     1      28.297   6.378  48.063  1.00  0.00     0.009 A 
ENDBRANCH   1  22
TORSDOF 7
ENDMDL
MODEL 6
REMARK VINA RESULT:      -7.7      3.322      6.454
REMARK  7 active torsions:
REMARK  status: ('A' for Active; 'I' for Inactive)
REMARK    1  A    between atoms: N1_1  and  C1_2 
REMARK    2  A    between atoms: C1_2  and  N2_4 
REMARK    3  A    between atoms: N2_4  and  C2_5 
REMARK    4  A    between atoms: C2_5  and  C3_6 
REMARK    5  A    between atoms: C2_5  and  C14_18 
REMARK    6  A    between atoms: C4_7  and  N3_8 
REMARK    7  A    between atoms: N3_8  and  C5_9 
ROOT
HETATM    1  C2  UNL     1      24.053   1.038  52.583  1.00  0.00     0.141 C 
ENDROOT
BRANCH   1   2
HETATM    2  N2  UNL     1      25.168   0.761  53.468  1.00  0.00    -0.355 N 
HETATM    3  H3  UNL     1      25.209   0.581  54.513  1.00  0.00     0.163 HD
BRANCH   2   4
HETATM    4  C1  UNL     1      26.441   0.720  52.837  1.00  0.00     0.166 C 
HETATM    5  S1  UNL     1      27.527   1.941  52.820  1.00  0.00    -0.041 SA
BRANCH   4   6
HETATM    6  N1  UNL     1      26.898  -0.455  52.133  1.00  0.00    -0.376 N 
HETATM    7  H1  UNL     1      26.698  -0.366  51.096  1.00  0.00     0.158 HD
HETATM    8  H2  UNL     1      27.248  -0.897  53.031  1.00  0.00     0.158 HD
ENDBRANCH   4   6
ENDBRANCH   2   4
ENDBRANCH   1   2
BRANCH   1   9
HETATM    9  C3  UNL     1      23.701   2.459  52.541  1.00  0.00     0.020 C 
HETATM   10  C4  UNL     1      23.850   3.289  51.524  1.00  0.00     0.086 C 
BRANCH  10  11
HETATM   11  N3  UNL     1      24.399   2.835  50.314  1.00  0.00    -0.367 N 
HETATM   12  H7  UNL     1      24.372   1.941  49.788  1.00  0.00     0.165 HD
BRANCH  11  13
HETATM   13  C5  UNL     1      25.175   3.908  49.701  1.00  0.00     0.025 A 
HETATM   14  C6  UNL     1      24.707   5.111  49.310  1.00  0.00     0.003 A 
HETATM   15  C7  UNL     1      24.397   6.476  48.818  1.00  0.00     0.035 A 
HETATM   16  C8  UNL     1      25.587   7.164  48.271  1.00  0.00     0.002 A 
HETATM   17  C9  UNL     1      26.662   6.338  48.370  1.00  0.00     0.020 A 
HETATM   18  C10 UNL     1      28.115   6.384  48.027  1.00  0.00    -0.024 A 
HETATM   19  C11 UNL     1      28.437   5.157  48.460  1.00  0.00    -0.021 A 
HETATM   20  C12 UNL     1      27.110   4.680  48.952  1.00  0.00     0.044 A 
HETATM   21  C13 UNL     1      26.618   3.550  49.527  1.00  0.00     0.012 A 
ENDBRANCH  11  13
ENDBRANCH  10  11
ENDBRANCH   1   9
BRANCH   1  22
HETATM   22  C14 UNL     1      22.876   0.285  53.134  1.00  0.00    -0.032 A 
HETATM   23  C15 UNL     1      21.559   0.603  52.828  1.00  0.00     0.009 A 
HETATM   24  C16 UNL     1      20.541  -0.145  53.381  1.00  0.00     0.001 A 
HETATM   25  C17 UNL     1      20.785  -1.207  54.235  1.00  0.00     0.000 A 
HETATM   26  C18 UNL     1      22.091  -1.557  54.567  1.00  0.00     0.001 A 
HETATM   27  C19 UNL     1      23.068  -0.777  53.986  1.00  0.00     0.009 A 
ENDBRANCH   1  22
TORSDOF 7
ENDMDL
MODEL 7
REMARK VINA RESULT:      -7.6      3.547      7.022
REMARK  7 active torsions:
REMARK  status: ('A' for Active; 'I' for Inactive)
REMARK    1  A    between atoms: N1_1  and  C1_2 
REMARK    2  A    between atoms: C1_2  and  N2_4 
REMARK    3  A    between atoms: N2_4  and  C2_5 
REMARK    4  A    between atoms: C2_5  and  C3_6 
REMARK    5  A    between atoms: C2_5  and  C14_18 
REMARK    6  A    between atoms: C4_7  and  N3_8 
REMARK    7  A    between atoms: N3_8  and  C5_9 
ROOT
HETATM    1  C2  UNL     1      26.302  -0.120  53.281  1.00  0.00     0.141 C 
ENDROOT
BRANCH   1   2
HETATM    2  N2  UNL     1      27.066  -1.021  54.121  1.00  0.00    -0.355 N 
HETATM    3  H3  UNL     1      26.923  -1.340  55.124  1.00  0.00     0.163 HD
BRANCH   2   4
HETATM    4  C1  UNL     1      28.216  -1.587  53.507  1.00  0.00     0.166 C 
HETATM    5  S1  UNL     1      29.661  -0.842  53.340  1.00  0.00    -0.041 SA
BRANCH   4   6
HETATM    6  N1  UNL     1      28.200  -2.922  52.960  1.00  0.00    -0.376 N 
HETATM    7  H1  UNL     1      27.244  -3.149  52.564  1.00  0.00     0.158 HD
HETATM    8  H2  UNL     1      29.217  -3.076  53.219  1.00  0.00     0.158 HD
ENDBRANCH   4   6
ENDBRANCH   2   4
ENDBRANCH   1   2
BRANCH   1   9
HETATM    9  C3  UNL     1      26.653   1.287  53.489  1.00  0.00     0.020 C 
HETATM   10  C4  UNL     1      26.865   2.203  52.561  1.00  0.00     0.086 C 
BRANCH  10  11
HETATM   11  N3  UNL     1      26.760   1.870  51.200  1.00  0.00    -0.367 N 
HETATM   12  H7  UNL     1      27.148   1.119  50.599  1.00  0.00     0.165 HD
BRANCH  11  13
HETATM   13  C5  UNL     1      25.894   2.835  50.531  1.00  0.00     0.025 A 
HETATM   14  C6  UNL     1      24.550   2.777  50.440  1.00  0.00     0.003 A 
HETATM   15  C7  UNL     1      23.086   2.900  50.230  1.00  0.00     0.035 A 
HETATM   16  C8  UNL     1      22.726   4.109  49.458  1.00  0.00     0.002 A 
HETATM   17  C9  UNL     1      23.859   4.791  49.145  1.00  0.00     0.020 A 
HETATM   18  C10 UNL     1      24.219   6.042  48.414  1.00  0.00    -0.024 A 
HETATM   19  C11 UNL     1      25.547   5.969  48.582  1.00  0.00    -0.021 A 
HETATM   20  C12 UNL     1      25.657   4.703  49.367  1.00  0.00     0.044 A 
HETATM   21  C13 UNL     1      26.660   3.964  49.913  1.00  0.00     0.012 A 
ENDBRANCH  11  13
ENDBRANCH  10  11
ENDBRANCH   1   9
BRANCH   1  22
HETATM   22  C14 UNL     1      24.861  -0.299  53.666  1.00  0.00    -0.032 A 
HETATM   23  C15 UNL     1      23.806   0.213  52.922  1.00  0.00     0.009 A 
HETATM   24  C16 UNL     1      22.513  -0.001  53.353  1.00  0.00     0.001 A 
HETATM   25  C17 UNL     1      22.228  -0.712  54.505  1.00  0.00     0.000 A 
HETATM   26  C18 UNL     1      23.257  -1.242  55.279  1.00  0.00     0.001 A 
HETATM   27  C19 UNL     1      24.528  -0.997  54.802  1.00  0.00     0.009 A 
ENDBRANCH   1  22
TORSDOF 7
ENDMDL
MODEL 8
REMARK VINA RESULT:      -7.4      3.331      6.110
REMARK  7 active torsions:
REMARK  status: ('A' for Active; 'I' for Inactive)
REMARK    1  A    between atoms: N1_1  and  C1_2 
REMARK    2  A    between atoms: C1_2  and  N2_4 
REMARK    3  A    between atoms: N2_4  and  C2_5 
REMARK    4  A    between atoms: C2_5  and  C3_6 
REMARK    5  A    between atoms: C2_5  and  C14_18 
REMARK    6  A    between atoms: C4_7  and  N3_8 
REMARK    7  A    between atoms: N3_8  and  C5_9 
ROOT
HETATM    1  C2  UNL     1      25.318   3.282  50.955  1.00  0.00     0.141 C 
ENDROOT
BRANCH   1   2
HETATM    2  N2  UNL     1      26.370   2.335  51.269  1.00  0.00    -0.355 N 
HETATM    3  H3  UNL     1      27.205   1.998  50.706  1.00  0.00     0.163 HD
BRANCH   2   4
HETATM    4  C1  UNL     1      26.282   1.743  52.558  1.00  0.00     0.166 C 
HETATM    5  S1  UNL     1      26.057   0.152  52.854  1.00  0.00    -0.041 SA
BRANCH   4   6
HETATM    6  N1  UNL     1      26.391   2.533  53.761  1.00  0.00    -0.376 N 
HETATM    7  H1  UNL     1      26.565   3.551  53.522  1.00  0.00     0.158 HD
HETATM    8  H2  UNL     1      26.236   1.681  54.374  1.00  0.00     0.158 HD
ENDBRANCH   4   6
ENDBRANCH   2   4
ENDBRANCH   1   2
BRANCH   1   9
HETATM    9  C3  UNL     1      24.195   2.669  50.242  1.00  0.00     0.020 C 
HETATM   10  C4  UNL     1      23.036   2.290  50.752  1.00  0.00     0.086 C 
BRANCH  10  11
HETATM   11  N3  UNL     1      22.775   2.463  52.122  1.00  0.00    -0.367 N 
HETATM   12  H7  UNL     1      23.045   3.166  52.835  1.00  0.00     0.165 HD
BRANCH  11  13
HETATM   13  C5  UNL     1      21.924   1.376  52.593  1.00  0.00     0.025 A 
HETATM   14  C6  UNL     1      22.279   0.393  53.446  1.00  0.00     0.003 A 
HETATM   15  C7  UNL     1      22.466  -0.760  54.360  1.00  0.00     0.035 A 
HETATM   16  C8  UNL     1      21.242  -1.580  54.494  1.00  0.00     0.002 A 
HETATM   17  C9  UNL     1      20.261  -1.041  53.724  1.00  0.00     0.020 A 
HETATM   18  C10 UNL     1      18.834  -1.340  53.399  1.00  0.00    -0.024 A 
HETATM   19  C11 UNL     1      18.623  -0.311  52.566  1.00  0.00    -0.021 A 
HETATM   20  C12 UNL     1      19.963   0.348  52.596  1.00  0.00     0.044 A 
HETATM   21  C13 UNL     1      20.542   1.437  52.022  1.00  0.00     0.012 A 
ENDBRANCH  11  13
ENDBRANCH  10  11
ENDBRANCH   1   9
BRANCH   1  22
HETATM   22  C14 UNL     1      25.931   4.315  50.053  1.00  0.00    -0.032 A 
HETATM   23  C15 UNL     1      27.089   4.092  49.319  1.00  0.00     0.009 A 
HETATM   24  C16 UNL     1      27.580   5.099  48.515  1.00  0.00     0.001 A 
HETATM   25  C17 UNL     1      26.957   6.331  48.412  1.00  0.00     0.000 A 
HETATM   26  C18 UNL     1      25.794   6.594  49.131  1.00  0.00     0.001 A 
HETATM   27  C19 UNL     1      25.349   5.552  49.918  1.00  0.00     0.009 A 
ENDBRANCH   1  22
TORSDOF 7
ENDMDL
MODEL 9
REMARK VINA RESULT:      -7.3      3.042      5.271
REMARK  7 active torsions:
REMARK  status: ('A' for Active; 'I' for Inactive)
REMARK    1  A    between atoms: N1_1  and  C1_2 
REMARK    2  A    between atoms: C1_2  and  N2_4 
REMARK    3  A    between atoms: N2_4  and  C2_5 
REMARK    4  A    between atoms: C2_5  and  C3_6 
REMARK    5  A    between atoms: C2_5  and  C14_18 
REMARK    6  A    between atoms: C4_7  and  N3_8 
REMARK    7  A    between atoms: N3_8  and  C5_9 
ROOT
HETATM    1  C2  UNL     1      25.277   4.693  49.919  1.00  0.00     0.141 C 
ENDROOT
BRANCH   1   2
HETATM    2  N2  UNL     1      24.657   5.676  50.785  1.00  0.00    -0.355 N 
HETATM    3  H3  UNL     1      25.068   6.341  51.504  1.00  0.00     0.163 HD
BRANCH   2   4
HETATM    4  C1  UNL     1      23.244   5.780  50.663  1.00  0.00     0.166 C 
HETATM    5  S1  UNL     1      22.395   5.541  49.288  1.00  0.00    -0.041 SA
BRANCH   4   6
HETATM    6  N1  UNL     1      22.412   6.119  51.793  1.00  0.00    -0.376 N 
HETATM    7  H1  UNL     1      22.660   7.081  52.161  1.00  0.00     0.158 HD
HETATM    8  H2  UNL     1      21.899   5.193  51.733  1.00  0.00     0.158 HD
ENDBRANCH   4   6
ENDBRANCH   2   4
ENDBRANCH   1   2
BRANCH   1   9
HETATM    9  C3  UNL     1      25.873   3.579  50.659  1.00  0.00     0.020 C 
HETATM   10  C4  UNL     1      25.278   2.460  51.034  1.00  0.00     0.086 C 
BRANCH  10  11
HETATM   11  N3  UNL     1      23.925   2.240  50.726  1.00  0.00    -0.367 N 
HETATM   12  H7  UNL     1      23.286   2.555  49.972  1.00  0.00     0.165 HD
BRANCH  11  13
HETATM   13  C5  UNL     1      23.337   1.358  51.729  1.00  0.00     0.025 A 
HETATM   14  C6  UNL     1      22.028   1.065  51.868  1.00  0.00     0.003 A 
HETATM   15  C7  UNL     1      20.650   0.617  52.188  1.00  0.00     0.035 A 
HETATM   16  C8  UNL     1      20.610  -0.308  53.342  1.00  0.00     0.002 A 
HETATM   17  C9  UNL     1      21.875  -0.497  53.804  1.00  0.00     0.020 A 
HETATM   18  C10 UNL     1      22.539  -1.271  54.895  1.00  0.00    -0.024 A 
HETATM   19  C11 UNL     1      23.798  -0.891  54.639  1.00  0.00    -0.021 A 
HETATM   20  C12 UNL     1      23.583   0.010  53.467  1.00  0.00     0.044 A 
HETATM   21  C13 UNL     1      24.360   0.769  52.649  1.00  0.00     0.012 A 
ENDBRANCH  11  13
ENDBRANCH  10  11
ENDBRANCH   1   9
BRANCH   1  22
HETATM   22  C14 UNL     1      26.380   5.406  49.189  1.00  0.00    -0.032 A 
HETATM   23  C15 UNL     1      26.297   6.736  48.798  1.00  0.00     0.009 A 
HETATM   24  C16 UNL     1      27.360   7.308  48.131  1.00  0.00     0.001 A 
HETATM   25  C17 UNL     1      28.513   6.600  47.835  1.00  0.00     0.000 A 
HETATM   26  C18 UNL     1      28.634   5.265  48.209  1.00  0.00     0.001 A 
HETATM   27  C19 UNL     1      27.543   4.745  48.873  1.00  0.00     0.009 A 
ENDBRANCH   1  22
TORSDOF 7
ENDMDL
