MODEL 1
REMARK VINA RESULT:      -7.4      0.000      0.000
REMARK  7 active torsions:
REMARK  status: ('A' for Active; 'I' for Inactive)
REMARK    1  A    between atoms: O1_2  and  C2_3 
REMARK    2  A    between atoms: C2_3  and  C3_4 
REMARK    3  A    between atoms: C4_5  and  C5_6 
REMARK       I    between atoms: C5_6  and  N1_8 
REMARK    4  A    between atoms: N1_8  and  C6_9 
REMARK    5  A    between atoms: C7_10  and  C8_11 
REMARK    6  A    between atoms: C11_14  and  N2_15 
REMARK    7  A    between atoms: N2_15  and  C12_16 
ROOT
HETATM    1  C8  UNL     1      25.242   3.666  49.429  1.00  0.00     0.029 C 
HETATM    2  C9  UNL     1      24.263   3.654  50.345  1.00  0.00     0.043 A 
HETATM    3  C10 UNL     1      23.398   2.471  50.418  1.00  0.00     0.137 A 
HETATM    4  C11 UNL     1      22.391   2.681  51.513  1.00  0.00     0.111 A 
HETATM    5  N3  UNL     1      22.327   3.751  52.249  1.00  0.00    -0.228 NA
HETATM    6  C18 UNL     1      23.212   4.842  52.094  1.00  0.00     0.235 A 
HETATM    7  N4  UNL     1      24.128   4.788  51.187  1.00  0.00    -0.246 NA
ENDROOT
BRANCH   1   8
HETATM    8  C7  UNL     1      26.148   4.816  49.297  1.00  0.00     0.019 C 
HETATM    9  C6  UNL     1      27.396   4.697  48.853  1.00  0.00     0.091 C 
BRANCH   9  10
HETATM   10  N1  UNL     1      28.219   5.843  48.749  1.00  0.00    -0.334 N 
HETATM   11  C5  UNL     1      29.511   5.731  48.244  1.00  0.00     0.244 C 
HETATM   12  O2  UNL     1      30.161   4.750  47.827  1.00  0.00    -0.268 OA
HETATM   13  H8  UNL     1      27.968   6.811  49.014  1.00  0.00     0.168 HD
BRANCH  11  14
HETATM   14  C4  UNL     1      30.439   6.848  48.096  1.00  0.00     0.072 C 
HETATM   15  C3  UNL     1      30.199   7.982  48.724  1.00  0.00     0.005 C 
BRANCH  15  16
HETATM   16  C2  UNL     1      30.669   9.345  48.980  1.00  0.00     0.194 C 
BRANCH  16  17
HETATM   17  O1  UNL     1      29.641  10.211  49.297  1.00  0.00    -0.392 OA
HETATM   18  C1  UNL     1      28.441   9.575  49.553  1.00  0.00     0.201 C 
ENDBRANCH  16  17
ENDBRANCH  15  16
ENDBRANCH  11  14
ENDBRANCH   9  10
ENDBRANCH   1   8
BRANCH   4  19
HETATM   19  N2  UNL     1      21.437   1.627  51.760  1.00  0.00    -0.344 N 
HETATM   20  H14 UNL     1      20.583   1.577  51.162  1.00  0.00     0.167 HD
BRANCH  19  21
HETATM   21  C12 UNL     1      21.736   0.706  52.831  1.00  0.00     0.034 A 
HETATM   22  C13 UNL     1      20.855   0.090  53.696  1.00  0.00     0.029 A 
HETATM   23  C14 UNL     1      21.358  -0.761  54.657  1.00  0.00     0.004 A 
HETATM   24  C15 UNL     1      22.708  -1.015  54.782  1.00  0.00     0.019 A 
HETATM   25  C16 UNL     1      23.604  -0.415  53.935  1.00  0.00     0.013 A 
HETATM   26 BR1  UNL     1      25.477  -0.750  54.088  1.00  0.00    -0.051 Br
HETATM   27  C17 UNL     1      23.098   0.435  52.975  1.00  0.00     0.048 A 
ENDBRANCH  19  21
ENDBRANCH   4  19
TORSDOF 7
ENDMDL
MODEL 2
REMARK VINA RESULT:      -7.4      1.497      2.145
REMARK  7 active torsions:
REMARK  status: ('A' for Active; 'I' for Inactive)
REMARK    1  A    between atoms: O1_2  and  C2_3 
REMARK    2  A    between atoms: C2_3  and  C3_4 
REMARK    3  A    between atoms: C4_5  and  C5_6 
REMARK       I    between atoms: C5_6  and  N1_8 
REMARK    4  A    between atoms: N1_8  and  C6_9 
REMARK    5  A    between atoms: C7_10  and  C8_11 
REMARK    6  A    between atoms: C11_14  and  N2_15 
REMARK    7  A    between atoms: N2_15  and  C12_16 
ROOT
HETATM    1  C8  UNL     1      25.366   3.775  49.446  1.00  0.00     0.029 C 
HETATM    2  C9  UNL     1      24.390   3.779  50.365  1.00  0.00     0.043 A 
HETATM    3  C10 UNL     1      23.502   2.614  50.437  1.00  0.00     0.137 A 
HETATM    4  C11 UNL     1      22.502   2.841  51.536  1.00  0.00     0.111 A 
HETATM    5  N3  UNL     1      22.463   3.911  52.276  1.00  0.00    -0.228 NA
HETATM    6  C18 UNL     1      23.370   4.983  52.121  1.00  0.00     0.235 A 
HETATM    7  N4  UNL     1      24.282   4.913  51.211  1.00  0.00    -0.246 NA
ENDROOT
BRANCH   1   8
HETATM    8  C7  UNL     1      26.295   4.906  49.314  1.00  0.00     0.019 C 
HETATM    9  C6  UNL     1      27.504   4.780  48.775  1.00  0.00     0.091 C 
BRANCH   9  10
HETATM   10  N1  UNL     1      28.352   5.908  48.677  1.00  0.00    -0.334 N 
HETATM   11  C5  UNL     1      29.659   5.762  48.220  1.00  0.00     0.244 C 
HETATM   12  O2  UNL     1      30.304   4.760  47.845  1.00  0.00    -0.268 OA
HETATM   13  H8  UNL     1      28.112   6.886  48.914  1.00  0.00     0.168 HD
BRANCH  11  14
HETATM   14  C4  UNL     1      30.613   6.858  48.082  1.00  0.00     0.072 C 
HETATM   15  C3  UNL     1      31.901   6.592  47.990  1.00  0.00     0.005 C 
BRANCH  15  16
HETATM   16  C2  UNL     1      33.245   7.156  47.847  1.00  0.00     0.194 C 
BRANCH  16  17
HETATM   17  O1  UNL     1      34.238   6.208  47.997  1.00  0.00    -0.392 OA
HETATM   18  C1  UNL     1      35.384   6.696  48.597  1.00  0.00     0.201 C 
ENDBRANCH  16  17
ENDBRANCH  15  16
ENDBRANCH  11  14
ENDBRANCH   9  10
ENDBRANCH   1   8
BRANCH   4  19
HETATM   19  N2  UNL     1      21.528   1.807  51.784  1.00  0.00    -0.344 N 
HETATM   20  H14 UNL     1      20.652   1.801  51.217  1.00  0.00     0.167 HD
BRANCH  19  21
HETATM   21  C12 UNL     1      21.839   0.841  52.811  1.00  0.00     0.034 A 
HETATM   22  C13 UNL     1      20.971   0.211  53.679  1.00  0.00     0.029 A 
HETATM   23  C14 UNL     1      21.484  -0.684  54.594  1.00  0.00     0.004 A 
HETATM   24  C15 UNL     1      22.831  -0.970  54.668  1.00  0.00     0.019 A 
HETATM   25  C16 UNL     1      23.714  -0.358  53.816  1.00  0.00     0.013 A 
HETATM   26 BR1  UNL     1      25.584  -0.735  53.900  1.00  0.00    -0.051 Br
HETATM   27  C17 UNL     1      23.199   0.538  52.904  1.00  0.00     0.048 A 
ENDBRANCH  19  21
ENDBRANCH   4  19
TORSDOF 7
ENDMDL
MODEL 3
REMARK VINA RESULT:      -7.3      4.840     10.664
REMARK  7 active torsions:
REMARK  status: ('A' for Active; 'I' for Inactive)
REMARK    1  A    between atoms: O1_2  and  C2_3 
REMARK    2  A    between atoms: C2_3  and  C3_4 
REMARK    3  A    between atoms: C4_5  and  C5_6 
REMARK       I    between atoms: C5_6  and  N1_8 
REMARK    4  A    between atoms: N1_8  and  C6_9 
REMARK    5  A    between atoms: C7_10  and  C8_11 
REMARK    6  A    between atoms: C11_14  and  N2_15 
REMARK    7  A    between atoms: N2_15  and  C12_16 
ROOT
HETATM    1  C8  UNL     1      27.017   5.433  48.648  1.00  0.00     0.029 C 
HETATM    2  C9  UNL     1      28.144   6.000  48.196  1.00  0.00     0.043 A 
HETATM    3  C10 UNL     1      28.058   7.346  47.619  1.00  0.00     0.137 A 
HETATM    4  C11 UNL     1      29.435   7.773  47.193  1.00  0.00     0.111 A 
HETATM    5  N3  UNL     1      30.500   7.040  47.329  1.00  0.00    -0.228 NA
HETATM    6  C18 UNL     1      30.473   5.747  47.899  1.00  0.00     0.235 A 
HETATM    7  N4  UNL     1      29.350   5.261  48.309  1.00  0.00    -0.246 NA
ENDROOT
BRANCH   1   8
HETATM    8  C7  UNL     1      27.025   4.087  49.239  1.00  0.00     0.019 C 
HETATM    9  C6  UNL     1      26.252   3.754  50.269  1.00  0.00     0.091 C 
BRANCH   9  10
HETATM   10  N1  UNL     1      26.306   2.441  50.794  1.00  0.00    -0.334 N 
HETATM   11  C5  UNL     1      25.391   2.037  51.762  1.00  0.00     0.244 C 
HETATM   12  O2  UNL     1      24.448   2.637  52.319  1.00  0.00    -0.268 OA
HETATM   13  H8  UNL     1      26.978   1.698  50.535  1.00  0.00     0.168 HD
BRANCH  11  14
HETATM   14  C4  UNL     1      25.361   0.710  52.368  1.00  0.00     0.072 C 
HETATM   15  C3  UNL     1      26.444  -0.041  52.347  1.00  0.00     0.005 C 
BRANCH  15  16
HETATM   16  C2  UNL     1      27.032  -1.325  52.731  1.00  0.00     0.194 C 
BRANCH  16  17
HETATM   17  O1  UNL     1      27.865  -1.222  53.829  1.00  0.00    -0.392 OA
HETATM   18  C1  UNL     1      29.068  -0.599  53.555  1.00  0.00     0.201 C 
ENDBRANCH  16  17
ENDBRANCH  15  16
ENDBRANCH  11  14
ENDBRANCH   9  10
ENDBRANCH   1   8
BRANCH   4  19
HETATM   19  N2  UNL     1      29.580   9.080  46.599  1.00  0.00    -0.344 N 
HETATM   20  H14 UNL     1      29.534   9.163  45.559  1.00  0.00     0.167 HD
BRANCH  19  21
HETATM   21  C12 UNL     1      29.780  10.194  47.496  1.00  0.00     0.034 A 
HETATM   22  C13 UNL     1      30.847  10.429  48.337  1.00  0.00     0.029 A 
HETATM   23  C14 UNL     1      30.837  11.565  49.118  1.00  0.00     0.004 A 
HETATM   24  C15 UNL     1      29.798  12.471  49.085  1.00  0.00     0.019 A 
HETATM   25  C16 UNL     1      28.725  12.260  48.257  1.00  0.00     0.013 A 
HETATM   26 BR1  UNL     1      27.274  13.499  48.193  1.00  0.00    -0.051 Br
HETATM   27  C17 UNL     1      28.739  11.123  47.478  1.00  0.00     0.048 A 
ENDBRANCH  19  21
ENDBRANCH   4  19
TORSDOF 7
ENDMDL
MODEL 4
REMARK VINA RESULT:      -7.1      2.588      4.160
REMARK  7 active torsions:
REMARK  status: ('A' for Active; 'I' for Inactive)
REMARK    1  A    between atoms: O1_2  and  C2_3 
REMARK    2  A    between atoms: C2_3  and  C3_4 
REMARK    3  A    between atoms: C4_5  and  C5_6 
REMARK       I    between atoms: C5_6  and  N1_8 
REMARK    4  A    between atoms: N1_8  and  C6_9 
REMARK    5  A    between atoms: C7_10  and  C8_11 
REMARK    6  A    between atoms: C11_14  and  N2_15 
REMARK    7  A    between atoms: N2_15  and  C12_16 
ROOT
HETATM    1  C8  UNL     1      26.685   6.126  48.643  1.00  0.00     0.029 C 
HETATM    2  C9  UNL     1      26.217   5.096  49.361  1.00  0.00     0.043 A 
HETATM    3  C10 UNL     1      24.875   5.211  49.943  1.00  0.00     0.137 A 
HETATM    4  C11 UNL     1      24.567   3.943  50.689  1.00  0.00     0.111 A 
HETATM    5  N3  UNL     1      25.384   2.935  50.782  1.00  0.00    -0.228 NA
HETATM    6  C18 UNL     1      26.663   2.927  50.182  1.00  0.00     0.235 A 
HETATM    7  N4  UNL     1      27.051   3.957  49.509  1.00  0.00    -0.246 NA
ENDROOT
BRANCH   1   8
HETATM    8  C7  UNL     1      28.020   6.084  48.029  1.00  0.00     0.019 C 
HETATM    9  C6  UNL     1      28.977   6.955  48.336  1.00  0.00     0.091 C 
BRANCH   9  10
HETATM   10  N1  UNL     1      30.241   6.862  47.709  1.00  0.00    -0.334 N 
HETATM   11  C5  UNL     1      31.244   6.078  48.272  1.00  0.00     0.244 C 
HETATM   12  O2  UNL     1      31.272   5.375  49.304  1.00  0.00    -0.268 OA
HETATM   13  H8  UNL     1      30.534   7.330  46.834  1.00  0.00     0.168 HD
BRANCH  11  14
HETATM   14  C4  UNL     1      32.580   5.914  47.707  1.00  0.00     0.072 C 
HETATM   15  C3  UNL     1      33.482   5.209  48.361  1.00  0.00     0.005 C 
BRANCH  15  16
HETATM   16  C2  UNL     1      34.857   4.707  48.359  1.00  0.00     0.194 C 
BRANCH  16  17
HETATM   17  O1  UNL     1      34.953   3.424  47.855  1.00  0.00    -0.392 OA
HETATM   18  C1  UNL     1      34.975   3.373  46.474  1.00  0.00     0.201 C 
ENDBRANCH  16  17
ENDBRANCH  15  16
ENDBRANCH  11  14
ENDBRANCH   9  10
ENDBRANCH   1   8
BRANCH   4  19
HETATM   19  N2  UNL     1      23.283   3.841  51.340  1.00  0.00    -0.344 N 
HETATM   20  H14 UNL     1      22.923   4.669  51.864  1.00  0.00     0.167 HD
BRANCH  19  21
HETATM   21  C12 UNL     1      22.581   2.586  51.219  1.00  0.00     0.034 A 
HETATM   22  C13 UNL     1      22.138   1.965  50.070  1.00  0.00     0.029 A 
HETATM   23  C14 UNL     1      21.480   0.758  50.181  1.00  0.00     0.004 A 
HETATM   24  C15 UNL     1      21.253   0.153  51.400  1.00  0.00     0.019 A 
HETATM   25  C16 UNL     1      21.683   0.750  52.556  1.00  0.00     0.013 A 
HETATM   26 BR1  UNL     1      21.380  -0.066  54.256  1.00  0.00    -0.051 Br
HETATM   27  C17 UNL     1      22.340   1.957  52.442  1.00  0.00     0.048 A 
ENDBRANCH  19  21
ENDBRANCH   4  19
TORSDOF 7
ENDMDL
MODEL 5
REMARK VINA RESULT:      -7.0      1.705      2.343
REMARK  7 active torsions:
REMARK  status: ('A' for Active; 'I' for Inactive)
REMARK    1  A    between atoms: O1_2  and  C2_3 
REMARK    2  A    between atoms: C2_3  and  C3_4 
REMARK    3  A    between atoms: C4_5  and  C5_6 
REMARK       I    between atoms: C5_6  and  N1_8 
REMARK    4  A    between atoms: N1_8  and  C6_9 
REMARK    5  A    between atoms: C7_10  and  C8_11 
REMARK    6  A    between atoms: C11_14  and  N2_15 
REMARK    7  A    between atoms: N2_15  and  C12_16 
ROOT
HETATM    1  C8  UNL     1      26.948   4.351  48.942  1.00  0.00     0.029 C 
HETATM    2  C9  UNL     1      25.826   4.414  49.674  1.00  0.00     0.043 A 
HETATM    3  C10 UNL     1      25.093   3.168  49.925  1.00  0.00     0.137 A 
HETATM    4  C11 UNL     1      23.888   3.483  50.765  1.00  0.00     0.111 A 
HETATM    5  N3  UNL     1      23.579   4.677  51.179  1.00  0.00    -0.228 NA
HETATM    6  C18 UNL     1      24.357   5.817  50.877  1.00  0.00     0.235 A 
HETATM    7  N4  UNL     1      25.423   5.684  50.162  1.00  0.00    -0.246 NA
ENDROOT
BRANCH   1   8
HETATM    8  C7  UNL     1      27.735   5.557  48.649  1.00  0.00     0.019 C 
HETATM    9  C6  UNL     1      29.019   5.507  48.304  1.00  0.00     0.091 C 
BRANCH   9  10
HETATM   10  N1  UNL     1      29.723   6.704  48.035  1.00  0.00    -0.334 N 
HETATM   11  C5  UNL     1      30.915   6.978  48.700  1.00  0.00     0.244 C 
HETATM   12  O2  UNL     1      31.555   6.338  49.561  1.00  0.00    -0.268 OA
HETATM   13  H8  UNL     1      29.450   7.446  47.367  1.00  0.00     0.168 HD
BRANCH  11  14
HETATM   14  C4  UNL     1      31.717   8.180  48.497  1.00  0.00     0.072 C 
HETATM   15  C3  UNL     1      31.117   9.330  48.257  1.00  0.00     0.005 C 
BRANCH  15  16
HETATM   16  C2  UNL     1      31.303  10.758  47.992  1.00  0.00     0.194 C 
BRANCH  16  17
HETATM   17  O1  UNL     1      30.208  11.514  48.361  1.00  0.00    -0.392 OA
HETATM   18  C1  UNL     1      30.526  12.597  49.158  1.00  0.00     0.201 C 
ENDBRANCH  16  17
ENDBRANCH  15  16
ENDBRANCH  11  14
ENDBRANCH   9  10
ENDBRANCH   1   8
BRANCH   4  19
HETATM   19  N2  UNL     1      23.022   2.390  51.136  1.00  0.00    -0.344 N 
HETATM   20  H14 UNL     1      22.073   2.337  50.705  1.00  0.00     0.167 HD
BRANCH  19  21
HETATM   21  C12 UNL     1      23.537   1.436  52.089  1.00  0.00     0.034 A 
HETATM   22  C13 UNL     1      24.841   1.265  52.504  1.00  0.00     0.029 A 
HETATM   23  C14 UNL     1      25.118   0.283  53.432  1.00  0.00     0.004 A 
HETATM   24  C15 UNL     1      24.136  -0.531  53.956  1.00  0.00     0.019 A 
HETATM   25  C16 UNL     1      22.832  -0.382  53.560  1.00  0.00     0.013 A 
HETATM   26 BR1  UNL     1      21.453  -1.497  54.271  1.00  0.00    -0.051 Br
HETATM   27  C17 UNL     1      22.559   0.601  52.632  1.00  0.00     0.048 A 
ENDBRANCH  19  21
ENDBRANCH   4  19
TORSDOF 7
ENDMDL
MODEL 6
REMARK VINA RESULT:      -7.0      4.302     10.057
REMARK  7 active torsions:
REMARK  status: ('A' for Active; 'I' for Inactive)
REMARK    1  A    between atoms: O1_2  and  C2_3 
REMARK    2  A    between atoms: C2_3  and  C3_4 
REMARK    3  A    between atoms: C4_5  and  C5_6 
REMARK       I    between atoms: C5_6  and  N1_8 
REMARK    4  A    between atoms: N1_8  and  C6_9 
REMARK    5  A    between atoms: C7_10  and  C8_11 
REMARK    6  A    between atoms: C11_14  and  N2_15 
REMARK    7  A    between atoms: N2_15  and  C12_16 
ROOT
HETATM    1  C8  UNL     1      26.570   3.266  49.641  1.00  0.00     0.029 C 
HETATM    2  C9  UNL     1      26.598   4.588  49.418  1.00  0.00     0.043 A 
HETATM    3  C10 UNL     1      27.610   5.113  48.494  1.00  0.00     0.137 A 
HETATM    4  C11 UNL     1      27.443   6.603  48.398  1.00  0.00     0.111 A 
HETATM    5  N3  UNL     1      26.540   7.279  49.046  1.00  0.00    -0.228 NA
HETATM    6  C18 UNL     1      25.609   6.673  49.919  1.00  0.00     0.235 A 
HETATM    7  N4  UNL     1      25.643   5.394  50.090  1.00  0.00    -0.246 NA
ENDROOT
BRANCH   1   8
HETATM    8  C7  UNL     1      25.585   2.668  50.553  1.00  0.00     0.019 C 
HETATM    9  C6  UNL     1      25.936   1.889  51.573  1.00  0.00     0.091 C 
BRANCH   9  10
HETATM   10  N1  UNL     1      24.940   1.341  52.415  1.00  0.00    -0.334 N 
HETATM   11  C5  UNL     1      25.187   0.163  53.114  1.00  0.00     0.244 C 
HETATM   12  O2  UNL     1      26.187  -0.584  53.162  1.00  0.00    -0.268 OA
HETATM   13  H8  UNL     1      23.996   1.727  52.590  1.00  0.00     0.168 HD
BRANCH  11  14
HETATM   14  C4  UNL     1      24.230  -0.484  54.007  1.00  0.00     0.072 C 
HETATM   15  C3  UNL     1      23.053  -0.854  53.542  1.00  0.00     0.005 C 
BRANCH  15  16
HETATM   16  C2  UNL     1      21.771  -1.484  53.862  1.00  0.00     0.194 C 
BRANCH  16  17
HETATM   17  O1  UNL     1      20.690  -0.713  53.479  1.00  0.00    -0.392 OA
HETATM   18  C1  UNL     1      20.598   0.488  54.156  1.00  0.00     0.201 C 
ENDBRANCH  16  17
ENDBRANCH  15  16
ENDBRANCH  11  14
ENDBRANCH   9  10
ENDBRANCH   1   8
BRANCH   4  19
HETATM   19  N2  UNL     1      28.341   7.326  47.530  1.00  0.00    -0.344 N 
HETATM   20  H14 UNL     1      27.994   7.627  46.593  1.00  0.00     0.167 HD
BRANCH  19  21
HETATM   21  C12 UNL     1      29.672   7.584  48.027  1.00  0.00     0.034 A 
HETATM   22  C13 UNL     1      30.051   8.430  49.049  1.00  0.00     0.029 A 
HETATM   23  C14 UNL     1      31.389   8.530  49.364  1.00  0.00     0.004 A 
HETATM   24  C15 UNL     1      32.358   7.814  48.692  1.00  0.00     0.019 A 
HETATM   25  C16 UNL     1      32.008   6.967  47.673  1.00  0.00     0.013 A 
HETATM   26 BR1  UNL     1      33.330   5.965  46.727  1.00  0.00    -0.051 Br
HETATM   27  C17 UNL     1      30.668   6.870  47.360  1.00  0.00     0.048 A 
ENDBRANCH  19  21
ENDBRANCH   4  19
TORSDOF 7
ENDMDL
MODEL 7
REMARK VINA RESULT:      -6.9      4.739     10.318
REMARK  7 active torsions:
REMARK  status: ('A' for Active; 'I' for Inactive)
REMARK    1  A    between atoms: O1_2  and  C2_3 
REMARK    2  A    between atoms: C2_3  and  C3_4 
REMARK    3  A    between atoms: C4_5  and  C5_6 
REMARK       I    between atoms: C5_6  and  N1_8 
REMARK    4  A    between atoms: N1_8  and  C6_9 
REMARK    5  A    between atoms: C7_10  and  C8_11 
REMARK    6  A    between atoms: C11_14  and  N2_15 
REMARK    7  A    between atoms: N2_15  and  C12_16 
ROOT
HETATM    1  C8  UNL     1      25.528   5.557  48.898  1.00  0.00     0.029 C 
HETATM    2  C9  UNL     1      26.701   6.026  48.450  1.00  0.00     0.043 A 
HETATM    3  C10 UNL     1      26.729   7.367  47.855  1.00  0.00     0.137 A 
HETATM    4  C11 UNL     1      28.140   7.675  47.437  1.00  0.00     0.111 A 
HETATM    5  N3  UNL     1      29.141   6.859  47.592  1.00  0.00    -0.228 NA
HETATM    6  C18 UNL     1      29.004   5.581  48.178  1.00  0.00     0.235 A 
HETATM    7  N4  UNL     1      27.842   5.193  48.583  1.00  0.00    -0.246 NA
ENDROOT
BRANCH   1   8
HETATM    8  C7  UNL     1      25.421   4.223  49.506  1.00  0.00     0.019 C 
HETATM    9  C6  UNL     1      25.006   4.037  50.756  1.00  0.00     0.091 C 
BRANCH   9  10
HETATM   10  N1  UNL     1      24.926   2.728  51.284  1.00  0.00    -0.334 N 
HETATM   11  C5  UNL     1      26.083   2.060  51.675  1.00  0.00     0.244 C 
HETATM   12  O2  UNL     1      27.286   2.397  51.658  1.00  0.00    -0.268 OA
HETATM   13  H8  UNL     1      24.067   2.169  51.426  1.00  0.00     0.168 HD
BRANCH  11  14
HETATM   14  C4  UNL     1      26.111   0.710  52.230  1.00  0.00     0.072 C 
HETATM   15  C3  UNL     1      27.265   0.165  52.559  1.00  0.00     0.005 C 
BRANCH  15  16
HETATM   16  C2  UNL     1      27.930  -1.019  53.107  1.00  0.00     0.194 C 
BRANCH  16  17
HETATM   17  O1  UNL     1      29.008  -0.699  53.910  1.00  0.00    -0.392 OA
HETATM   18  C1  UNL     1      28.707   0.216  54.901  1.00  0.00     0.201 C 
ENDBRANCH  16  17
ENDBRANCH  15  16
ENDBRANCH  11  14
ENDBRANCH   9  10
ENDBRANCH   1   8
BRANCH   4  19
HETATM   19  N2  UNL     1      28.395   8.958  46.828  1.00  0.00    -0.344 N 
HETATM   20  H14 UNL     1      27.849   9.224  45.980  1.00  0.00     0.167 HD
BRANCH  19  21
HETATM   21  C12 UNL     1      29.400   9.791  47.444  1.00  0.00     0.034 A 
HETATM   22  C13 UNL     1      29.449  10.248  48.745  1.00  0.00     0.029 A 
HETATM   23  C14 UNL     1      30.508  11.042  49.129  1.00  0.00     0.004 A 
HETATM   24  C15 UNL     1      31.519  11.392  48.258  1.00  0.00     0.019 A 
HETATM   25  C16 UNL     1      31.494  10.951  46.960  1.00  0.00     0.013 A 
HETATM   26 BR1  UNL     1      32.880  11.423  45.734  1.00  0.00    -0.051 Br
HETATM   27  C17 UNL     1      30.433  10.158  46.579  1.00  0.00     0.048 A 
ENDBRANCH  19  21
ENDBRANCH   4  19
TORSDOF 7
ENDMDL
MODEL 8
REMARK VINA RESULT:      -6.8      7.012     10.681
REMARK  7 active torsions:
REMARK  status: ('A' for Active; 'I' for Inactive)
REMARK    1  A    between atoms: O1_2  and  C2_3 
REMARK    2  A    between atoms: C2_3  and  C3_4 
REMARK    3  A    between atoms: C4_5  and  C5_6 
REMARK       I    between atoms: C5_6  and  N1_8 
REMARK    4  A    between atoms: N1_8  and  C6_9 
REMARK    5  A    between atoms: C7_10  and  C8_11 
REMARK    6  A    between atoms: C11_14  and  N2_15 
REMARK    7  A    between atoms: N2_15  and  C12_16 
ROOT
HETATM    1  C8  UNL     1      19.844   0.775  51.225  1.00  0.00     0.029 C 
HETATM    2  C9  UNL     1      20.622   0.436  52.263  1.00  0.00     0.043 A 
HETATM    3  C10 UNL     1      21.955  -0.108  51.979  1.00  0.00     0.137 A 
HETATM    4  C11 UNL     1      22.638  -0.404  53.285  1.00  0.00     0.111 A 
HETATM    5  N3  UNL     1      22.101  -0.200  54.451  1.00  0.00    -0.228 NA
HETATM    6  C18 UNL     1      20.801   0.328  54.615  1.00  0.00     0.235 A 
HETATM    7  N4  UNL     1      20.105   0.628  53.570  1.00  0.00    -0.246 NA
ENDROOT
BRANCH   1   8
HETATM    8  C7  UNL     1      18.497   1.326  51.430  1.00  0.00     0.019 C 
HETATM    9  C6  UNL     1      17.404   0.746  50.942  1.00  0.00     0.091 C 
BRANCH   9  10
HETATM   10  N1  UNL     1      16.135   1.326  51.173  1.00  0.00    -0.334 N 
HETATM   11  C5  UNL     1      15.375   0.930  52.270  1.00  0.00     0.244 C 
HETATM   12  O2  UNL     1      15.589   0.097  53.175  1.00  0.00    -0.268 OA
HETATM   13  H8  UNL     1      15.672   2.052  50.599  1.00  0.00     0.168 HD
BRANCH  11  14
HETATM   14  C4  UNL     1      14.057   1.465  52.598  1.00  0.00     0.072 C 
HETATM   15  C3  UNL     1      13.803   2.742  52.393  1.00  0.00     0.005 C 
BRANCH  15  16
HETATM   16  C2  UNL     1      12.802   3.806  52.491  1.00  0.00     0.194 C 
BRANCH  16  17
HETATM   17  O1  UNL     1      12.883   4.504  53.681  1.00  0.00    -0.392 OA
HETATM   18  C1  UNL     1      12.029   4.032  54.659  1.00  0.00     0.201 C 
ENDBRANCH  16  17
ENDBRANCH  15  16
ENDBRANCH  11  14
ENDBRANCH   9  10
ENDBRANCH   1   8
BRANCH   4  19
HETATM   19  N2  UNL     1      23.974  -0.947  53.236  1.00  0.00    -0.344 N 
HETATM   20  H14 UNL     1      24.090  -1.979  53.137  1.00  0.00     0.167 HD
BRANCH  19  21
HETATM   21  C12 UNL     1      25.069  -0.010  53.330  1.00  0.00     0.034 A 
HETATM   22  C13 UNL     1      25.013   1.368  53.346  1.00  0.00     0.029 A 
HETATM   23  C14 UNL     1      26.192   2.077  53.441  1.00  0.00     0.004 A 
HETATM   24  C15 UNL     1      27.420   1.455  53.521  1.00  0.00     0.019 A 
HETATM   25  C16 UNL     1      27.503   0.087  53.507  1.00  0.00     0.013 A 
HETATM   26 BR1  UNL     1      29.192  -0.798  53.615  1.00  0.00    -0.051 Br
HETATM   27  C17 UNL     1      26.323  -0.619  53.411  1.00  0.00     0.048 A 
ENDBRANCH  19  21
ENDBRANCH   4  19
TORSDOF 7
ENDMDL
MODEL 9
REMARK VINA RESULT:      -6.7      4.806     10.761
REMARK  7 active torsions:
REMARK  status: ('A' for Active; 'I' for Inactive)
REMARK    1  A    between atoms: O1_2  and  C2_3 
REMARK    2  A    between atoms: C2_3  and  C3_4 
REMARK    3  A    between atoms: C4_5  and  C5_6 
REMARK       I    between atoms: C5_6  and  N1_8 
REMARK    4  A    between atoms: N1_8  and  C6_9 
REMARK    5  A    between atoms: C7_10  and  C8_11 
REMARK    6  A    between atoms: C11_14  and  N2_15 
REMARK    7  A    between atoms: N2_15  and  C12_16 
ROOT
HETATM    1  C8  UNL     1      27.019   4.848  48.908  1.00  0.00     0.029 C 
HETATM    2  C9  UNL     1      26.984   6.184  48.810  1.00  0.00     0.043 A 
HETATM    3  C10 UNL     1      27.947   6.839  47.917  1.00  0.00     0.137 A 
HETATM    4  C11 UNL     1      27.713   8.322  47.966  1.00  0.00     0.111 A 
HETATM    5  N3  UNL     1      26.799   8.893  48.695  1.00  0.00    -0.228 NA
HETATM    6  C18 UNL     1      25.919   8.166  49.528  1.00  0.00     0.235 A 
HETATM    7  N4  UNL     1      26.014   6.880  49.577  1.00  0.00    -0.246 NA
ENDROOT
BRANCH   1   8
HETATM    8  C7  UNL     1      26.087   4.122  49.782  1.00  0.00     0.019 C 
HETATM    9  C6  UNL     1      26.473   3.118  50.564  1.00  0.00     0.091 C 
BRANCH   9  10
HETATM   10  N1  UNL     1      25.526   2.459  51.382  1.00  0.00    -0.334 N 
HETATM   11  C5  UNL     1      25.826   1.218  51.938  1.00  0.00     0.244 C 
HETATM   12  O2  UNL     1      26.842   0.495  51.863  1.00  0.00    -0.268 OA
HETATM   13  H8  UNL     1      24.583   2.800  51.637  1.00  0.00     0.168 HD
BRANCH  11  14
HETATM   14  C4  UNL     1      24.922   0.456  52.794  1.00  0.00     0.072 C 
HETATM   15  C3  UNL     1      23.638   0.754  52.814  1.00  0.00     0.005 C 
BRANCH  15  16
HETATM   16  C2  UNL     1      22.330   0.424  53.382  1.00  0.00     0.194 C 
BRANCH  16  17
HETATM   17  O1  UNL     1      22.037  -0.924  53.293  1.00  0.00    -0.392 OA
HETATM   18  C1  UNL     1      21.714  -1.501  54.507  1.00  0.00     0.201 C 
ENDBRANCH  16  17
ENDBRANCH  15  16
ENDBRANCH  11  14
ENDBRANCH   9  10
ENDBRANCH   1   8
BRANCH   4  19
HETATM   19  N2  UNL     1      28.556   9.163  47.150  1.00  0.00    -0.344 N 
HETATM   20  H14 UNL     1      28.643   8.944  46.133  1.00  0.00     0.167 HD
BRANCH  19  21
HETATM   21  C12 UNL     1      29.226  10.260  47.807  1.00  0.00     0.034 A 
HETATM   22  C13 UNL     1      30.219  10.202  48.763  1.00  0.00     0.029 A 
HETATM   23  C14 UNL     1      30.724  11.383  49.265  1.00  0.00     0.004 A 
HETATM   24  C15 UNL     1      30.271  12.616  48.843  1.00  0.00     0.019 A 
HETATM   25  C16 UNL     1      29.285  12.700  47.894  1.00  0.00     0.013 A 
HETATM   26 BR1  UNL     1      28.639  14.394  47.294  1.00  0.00    -0.051 Br
HETATM   27  C17 UNL     1      28.781  11.518  47.395  1.00  0.00     0.048 A 
ENDBRANCH  19  21
ENDBRANCH   4  19
TORSDOF 7
ENDMDL
