MODEL 1
REMARK VINA RESULT:      -8.2      0.000      0.000
REMARK  3 active torsions:
REMARK  status: ('A' for Active; 'I' for Inactive)
REMARK    1  A    between atoms: O1_1  and  C1_2 
REMARK    2  A    between atoms: C3_5  and  N1_6 
REMARK    3  A    between atoms: C4_8  and  C5_9 
ROOT
HETATM    1  N1  UNL     1      23.417   1.781  52.614  1.00  0.00    -0.227 N 
HETATM    2  N2  UNL     1      24.549   1.353  53.276  1.00  0.00    -0.177 NA
HETATM    3  C4  UNL     1      24.619   0.083  53.408  1.00  0.00     0.048 C 
HETATM    4  C10 UNL     1      23.393  -0.498  52.769  1.00  0.00     0.101 C 
HETATM    5  C11 UNL     1      22.482   0.710  52.631  1.00  0.00     0.111 C 
HETATM    6  C12 UNL     1      21.593   0.722  53.817  1.00  0.00     0.015 C 
HETATM    7  C13 UNL     1      20.313   0.371  53.887  1.00  0.00     0.042 C 
HETATM    8  C14 UNL     1      19.559  -0.108  52.717  1.00  0.00     0.128 C 
HETATM    9  F2  UNL     1      18.688  -1.148  52.933  1.00  0.00    -0.205 F 
HETATM   10  C15 UNL     1      19.776   0.494  51.574  1.00  0.00     0.029 C 
HETATM   11  P2  UNL     1      21.365   0.577  51.169  1.00  0.00    -0.007 P 
ENDROOT
BRANCH   3  12
HETATM   12  C5  UNL     1      25.647  -0.784  54.046  1.00  0.00     0.088 A 
HETATM   13  C6  UNL     1      26.506  -1.411  52.996  1.00  0.00    -0.008 A 
HETATM   14  C7  UNL     1      27.785  -1.392  52.719  1.00  0.00     0.039 A 
HETATM   15  C8  UNL     1      28.824  -0.669  53.445  1.00  0.00     0.116 A 
HETATM   16  F1  UNL     1      30.129  -0.711  53.079  1.00  0.00    -0.206 F 
HETATM   17  C9  UNL     1      28.457   0.048  54.496  1.00  0.00     0.047 A 
HETATM   18  P1  UNL     1      26.754   0.235  55.153  1.00  0.00    -0.089 P 
HETATM   19  H7  UNL     1      26.338   1.612  55.222  1.00  0.00     0.062 HD
ENDBRANCH   3  12
BRANCH   1  20
HETATM   20  C3  UNL     1      23.282   3.133  52.020  1.00  0.00     0.193 A 
HETATM   21  S1  UNL     1      24.393   3.343  50.620  1.00  0.00    -0.058 SA
HETATM   22  C2  UNL     1      23.792   5.118  50.334  1.00  0.00     0.111 A 
HETATM   23  C1  UNL     1      22.795   5.212  51.436  1.00  0.00     0.171 A 
HETATM   24  N3  UNL     1      22.639   4.151  52.201  1.00  0.00    -0.198 NA
BRANCH  23  25
HETATM   25  O1  UNL     1      21.940   6.255  51.846  1.00  0.00    -0.344 OA
HETATM   26  H1  UNL     1      21.101   6.067  52.370  1.00  0.00     0.219 HD
ENDBRANCH  23  25
ENDBRANCH   1  20
TORSDOF 3
ENDMDL
MODEL 2
REMARK VINA RESULT:      -8.2      3.743      7.039
REMARK  3 active torsions:
REMARK  status: ('A' for Active; 'I' for Inactive)
REMARK    1  A    between atoms: O1_1  and  C1_2 
REMARK    2  A    between atoms: C3_5  and  N1_6 
REMARK    3  A    between atoms: C4_8  and  C5_9 
ROOT
HETATM    1  N1  UNL     1      24.102   1.131  52.597  1.00  0.00    -0.227 N 
HETATM    2  N2  UNL     1      23.492   2.162  51.911  1.00  0.00    -0.177 NA
HETATM    3  C4  UNL     1      24.231   2.689  51.011  1.00  0.00     0.048 C 
HETATM    4  C10 UNL     1      25.544   1.965  51.034  1.00  0.00     0.101 C 
HETATM    5  C11 UNL     1      25.501   1.234  52.365  1.00  0.00     0.111 C 
HETATM    6  C12 UNL     1      26.203   2.088  53.353  1.00  0.00     0.015 C 
HETATM    7  C13 UNL     1      27.422   1.930  53.856  1.00  0.00     0.042 C 
HETATM    8  C14 UNL     1      28.297   0.809  53.472  1.00  0.00     0.128 C 
HETATM    9  F2  UNL     1      29.629   1.101  53.305  1.00  0.00    -0.205 F 
HETATM   10  C15 UNL     1      27.738  -0.366  53.325  1.00  0.00     0.029 C 
HETATM   11  P2  UNL     1      26.440  -0.353  52.319  1.00  0.00    -0.007 P 
ENDROOT
BRANCH   3  12
HETATM   12  C5  UNL     1      23.976   3.803  50.058  1.00  0.00     0.088 A 
HETATM   13  C6  UNL     1      22.969   4.746  50.633  1.00  0.00    -0.008 A 
HETATM   14  C7  UNL     1      22.968   6.017  50.943  1.00  0.00     0.039 A 
HETATM   15  C8  UNL     1      24.077   6.953  50.791  1.00  0.00     0.116 A 
HETATM   16  F1  UNL     1      23.979   8.259  51.143  1.00  0.00    -0.206 F 
HETATM   17  C9  UNL     1      25.212   6.488  50.290  1.00  0.00     0.047 A 
HETATM   18  P1  UNL     1      25.549   4.766  49.755  1.00  0.00    -0.089 P 
HETATM   19  H7  UNL     1      26.680   4.189  50.433  1.00  0.00     0.062 HD
ENDBRANCH   3  12
BRANCH   1  20
HETATM   20  C3  UNL     1      23.357   0.140  53.409  1.00  0.00     0.193 A 
HETATM   21  S1  UNL     1      21.708  -0.139  52.744  1.00  0.00    -0.058 SA
HETATM   22  C2  UNL     1      21.305  -1.393  54.107  1.00  0.00     0.111 A 
HETATM   23  C1  UNL     1      22.593  -1.352  54.855  1.00  0.00     0.171 A 
HETATM   24  N3  UNL     1      23.531  -0.547  54.400  1.00  0.00    -0.198 NA
BRANCH  23  25
HETATM   25  O1  UNL     1      23.036  -2.035  56.006  1.00  0.00    -0.344 OA
HETATM   26  H1  UNL     1      22.481  -2.761  56.429  1.00  0.00     0.219 HD
ENDBRANCH  23  25
ENDBRANCH   1  20
TORSDOF 3
ENDMDL
MODEL 3
REMARK VINA RESULT:      -7.9      4.040      6.509
REMARK  3 active torsions:
REMARK  status: ('A' for Active; 'I' for Inactive)
REMARK    1  A    between atoms: O1_1  and  C1_2 
REMARK    2  A    between atoms: C3_5  and  N1_6 
REMARK    3  A    between atoms: C4_8  and  C5_9 
ROOT
HETATM    1  N1  UNL     1      26.084   0.345  52.761  1.00  0.00    -0.227 N 
HETATM    2  N2  UNL     1      26.115   1.360  51.827  1.00  0.00    -0.177 NA
HETATM    3  C4  UNL     1      25.207   2.244  51.998  1.00  0.00     0.048 C 
HETATM    4  C10 UNL     1      24.410   1.834  53.200  1.00  0.00     0.101 C 
HETATM    5  C11 UNL     1      24.809   0.381  53.389  1.00  0.00     0.111 C 
HETATM    6  C12 UNL     1      23.788  -0.444  52.700  1.00  0.00     0.015 C 
HETATM    7  C13 UNL     1      22.802  -1.149  53.242  1.00  0.00     0.042 C 
HETATM    8  C14 UNL     1      22.577  -1.209  54.696  1.00  0.00     0.128 C 
HETATM    9  F2  UNL     1      21.269  -1.174  55.116  1.00  0.00    -0.205 F 
HETATM   10  C15 UNL     1      23.634  -1.290  55.465  1.00  0.00     0.029 C 
HETATM   11  P2  UNL     1      24.757  -0.132  55.160  1.00  0.00    -0.007 P 
ENDROOT
BRANCH   3  12
HETATM   12  C5  UNL     1      24.885   3.483  51.238  1.00  0.00     0.088 A 
HETATM   13  C6  UNL     1      24.533   3.138  49.827  1.00  0.00    -0.008 A 
HETATM   14  C7  UNL     1      23.476   3.306  49.073  1.00  0.00     0.039 A 
HETATM   15  C8  UNL     1      22.223   3.946  49.459  1.00  0.00     0.116 A 
HETATM   16  F1  UNL     1      21.179   4.073  48.602  1.00  0.00    -0.206 F 
HETATM   17  C9  UNL     1      22.122   4.412  50.694  1.00  0.00     0.047 A 
HETATM   18  P1  UNL     1      23.410   4.340  51.999  1.00  0.00    -0.089 P 
HETATM   19  H7  UNL     1      22.950   3.679  53.192  1.00  0.00     0.062 HD
ENDBRANCH   3  12
BRANCH   1  20
HETATM   20  C3  UNL     1      27.222  -0.575  53.001  1.00  0.00     0.193 A 
HETATM   21  S1  UNL     1      28.721   0.334  53.404  1.00  0.00    -0.058 SA
HETATM   22  C2  UNL     1      29.718  -1.269  53.581  1.00  0.00     0.111 A 
HETATM   23  C1  UNL     1      28.641  -2.252  53.277  1.00  0.00     0.171 A 
HETATM   24  N3  UNL     1      27.444  -1.773  53.006  1.00  0.00    -0.198 NA
BRANCH  23  25
HETATM   25  O1  UNL     1      28.641  -3.660  53.219  1.00  0.00    -0.344 OA
HETATM   26  H1  UNL     1      27.791  -4.188  53.335  1.00  0.00     0.219 HD
ENDBRANCH  23  25
ENDBRANCH   1  20
TORSDOF 3
ENDMDL
MODEL 4
REMARK VINA RESULT:      -7.6      1.501      1.633
REMARK  3 active torsions:
REMARK  status: ('A' for Active; 'I' for Inactive)
REMARK    1  A    between atoms: O1_1  and  C1_2 
REMARK    2  A    between atoms: C3_5  and  N1_6 
REMARK    3  A    between atoms: C4_8  and  C5_9 
ROOT
HETATM    1  N1  UNL     1      23.937   2.932  51.981  1.00  0.00    -0.227 N 
HETATM    2  N2  UNL     1      24.797   2.343  52.886  1.00  0.00    -0.177 NA
HETATM    3  C4  UNL     1      24.658   1.075  52.977  1.00  0.00     0.048 C 
HETATM    4  C10 UNL     1      23.565   0.679  52.030  1.00  0.00     0.101 C 
HETATM    5  C11 UNL     1      22.891   2.004  51.721  1.00  0.00     0.111 C 
HETATM    6  C12 UNL     1      21.742   2.135  52.648  1.00  0.00     0.015 C 
HETATM    7  C13 UNL     1      20.451   1.969  52.383  1.00  0.00     0.042 C 
HETATM    8  C14 UNL     1      19.958   1.610  51.043  1.00  0.00     0.128 C 
HETATM    9  F2  UNL     1      18.928   0.702  50.991  1.00  0.00    -0.205 F 
HETATM   10  C15 UNL     1      20.536   2.182  50.016  1.00  0.00     0.029 C 
HETATM   11  P2  UNL     1      22.171   2.040  50.022  1.00  0.00    -0.007 P 
ENDROOT
BRANCH   3  12
HETATM   12  C5  UNL     1      25.365   0.067  53.813  1.00  0.00     0.088 A 
HETATM   13  C6  UNL     1      25.887  -1.035  52.949  1.00  0.00    -0.008 A 
HETATM   14  C7  UNL     1      27.075  -1.524  52.697  1.00  0.00     0.039 A 
HETATM   15  C8  UNL     1      28.343  -1.067  53.256  1.00  0.00     0.116 A 
HETATM   16  F1  UNL     1      29.529  -1.641  52.932  1.00  0.00    -0.206 F 
HETATM   17  C9  UNL     1      28.312  -0.055  54.110  1.00  0.00     0.047 A 
HETATM   18  P1  UNL     1      26.822   0.853  54.677  1.00  0.00    -0.089 P 
HETATM   19  H7  UNL     1      26.909   2.268  54.423  1.00  0.00     0.062 HD
ENDBRANCH   3  12
BRANCH   1  20
HETATM   20  C3  UNL     1      24.141   4.293  51.430  1.00  0.00     0.193 A 
HETATM   21  S1  UNL     1      25.461   4.309  50.207  1.00  0.00    -0.058 SA
HETATM   22  C2  UNL     1      25.246   6.170  49.912  1.00  0.00     0.111 A 
HETATM   23  C1  UNL     1      24.136   6.434  50.869  1.00  0.00     0.171 A 
HETATM   24  N3  UNL     1      23.678   5.412  51.562  1.00  0.00    -0.198 NA
BRANCH  23  25
HETATM   25  O1  UNL     1      23.438   7.614  51.199  1.00  0.00    -0.344 OA
HETATM   26  H1  UNL     1      22.433   7.630  51.249  1.00  0.00     0.219 HD
ENDBRANCH  23  25
ENDBRANCH   1  20
TORSDOF 3
ENDMDL
MODEL 5
REMARK VINA RESULT:      -7.5      3.278      4.580
REMARK  3 active torsions:
REMARK  status: ('A' for Active; 'I' for Inactive)
REMARK    1  A    between atoms: O1_1  and  C1_2 
REMARK    2  A    between atoms: C3_5  and  N1_6 
REMARK    3  A    between atoms: C4_8  and  C5_9 
ROOT
HETATM    1  N1  UNL     1      23.079   1.767  51.343  1.00  0.00    -0.227 N 
HETATM    2  N2  UNL     1      23.643   0.716  52.037  1.00  0.00    -0.177 NA
HETATM    3  C4  UNL     1      24.546   1.074  52.868  1.00  0.00     0.048 C 
HETATM    4  C10 UNL     1      24.666   2.566  52.778  1.00  0.00     0.101 C 
HETATM    5  C11 UNL     1      23.951   2.882  51.476  1.00  0.00     0.111 C 
HETATM    6  C12 UNL     1      24.986   2.952  50.416  1.00  0.00     0.015 C 
HETATM    7  C13 UNL     1      25.494   4.034  49.836  1.00  0.00     0.042 C 
HETATM    8  C14 UNL     1      25.069   5.398  50.194  1.00  0.00     0.128 C 
HETATM    9  F2  UNL     1      26.057   6.350  50.261  1.00  0.00    -0.205 F 
HETATM   10  C15 UNL     1      23.793   5.591  50.415  1.00  0.00     0.029 C 
HETATM   11  P2  UNL     1      23.151   4.545  51.506  1.00  0.00    -0.007 P 
ENDROOT
BRANCH   3  12
HETATM   12  C5  UNL     1      25.393   0.283  53.802  1.00  0.00     0.088 A 
HETATM   13  C6  UNL     1      25.925  -0.927  53.106  1.00  0.00    -0.008 A 
HETATM   14  C7  UNL     1      27.122  -1.383  52.836  1.00  0.00     0.039 A 
HETATM   15  C8  UNL     1      28.394  -0.756  53.184  1.00  0.00     0.116 A 
HETATM   16  F1  UNL     1      29.589  -1.308  52.859  1.00  0.00    -0.206 F 
HETATM   17  C9  UNL     1      28.355   0.393  53.840  1.00  0.00     0.047 A 
HETATM   18  P1  UNL     1      26.852   1.302  54.371  1.00  0.00    -0.089 P 
HETATM   19  H7  UNL     1      26.811   2.647  53.859  1.00  0.00     0.062 HD
ENDBRANCH   3  12
BRANCH   1  20
HETATM   20  C3  UNL     1      21.792   1.665  50.615  1.00  0.00     0.193 A 
HETATM   21  S1  UNL     1      20.545   0.831  51.609  1.00  0.00    -0.058 SA
HETATM   22  C2  UNL     1      19.249   1.003  50.237  1.00  0.00     0.111 A 
HETATM   23  C1  UNL     1      20.074   1.710  49.219  1.00  0.00     0.171 A 
HETATM   24  N3  UNL     1      21.324   1.980  49.535  1.00  0.00    -0.198 NA
BRANCH  23  25
HETATM   25  O1  UNL     1      19.776   2.174  47.922  1.00  0.00    -0.344 OA
HETATM   26  H1  UNL     1      19.644   1.535  47.155  1.00  0.00     0.219 HD
ENDBRANCH  23  25
ENDBRANCH   1  20
TORSDOF 3
ENDMDL
MODEL 6
REMARK VINA RESULT:      -7.4      2.400      2.773
REMARK  3 active torsions:
REMARK  status: ('A' for Active; 'I' for Inactive)
REMARK    1  A    between atoms: O1_1  and  C1_2 
REMARK    2  A    between atoms: C3_5  and  N1_6 
REMARK    3  A    between atoms: C4_8  and  C5_9 
ROOT
HETATM    1  N1  UNL     1      24.782   3.235  51.226  1.00  0.00    -0.227 N 
HETATM    2  N2  UNL     1      25.535   2.495  52.115  1.00  0.00    -0.177 NA
HETATM    3  C4  UNL     1      25.002   1.379  52.437  1.00  0.00     0.048 C 
HETATM    4  C10 UNL     1      23.700   1.280  51.700  1.00  0.00     0.101 C 
HETATM    5  C11 UNL     1      23.461   2.710  51.248  1.00  0.00     0.111 C 
HETATM    6  C12 UNL     1      22.589   3.348  52.263  1.00  0.00     0.015 C 
HETATM    7  C13 UNL     1      21.290   3.616  52.177  1.00  0.00     0.042 C 
HETATM    8  C14 UNL     1      20.493   3.294  50.982  1.00  0.00     0.128 C 
HETATM    9  F2  UNL     1      19.227   2.808  51.203  1.00  0.00    -0.205 F 
HETATM   10  C15 UNL     1      21.050   3.497  49.814  1.00  0.00     0.029 C 
HETATM   11  P2  UNL     1      22.524   2.791  49.660  1.00  0.00    -0.007 P 
ENDROOT
BRANCH   3  12
HETATM   12  C5  UNL     1      25.463   0.295  53.348  1.00  0.00     0.088 A 
HETATM   13  C6  UNL     1      26.075  -0.812  52.553  1.00  0.00    -0.008 A 
HETATM   14  C7  UNL     1      27.256  -1.377  52.516  1.00  0.00     0.039 A 
HETATM   15  C8  UNL     1      28.414  -1.031  53.333  1.00  0.00     0.116 A 
HETATM   16  F1  UNL     1      29.601  -1.677  53.222  1.00  0.00    -0.206 F 
HETATM   17  C9  UNL     1      28.279  -0.048  54.210  1.00  0.00     0.047 A 
HETATM   18  P1  UNL     1      26.767   0.946  54.516  1.00  0.00    -0.089 P 
HETATM   19  H7  UNL     1      26.993   2.358  54.350  1.00  0.00     0.062 HD
ENDBRANCH   3  12
BRANCH   1  20
HETATM   20  C3  UNL     1      25.331   4.359  50.432  1.00  0.00     0.193 A 
HETATM   21  S1  UNL     1      26.727   3.827  49.428  1.00  0.00    -0.058 SA
HETATM   22  C2  UNL     1      26.957   5.569  48.716  1.00  0.00     0.111 A 
HETATM   23  C1  UNL     1      25.851   6.265  49.432  1.00  0.00     0.171 A 
HETATM   24  N3  UNL     1      25.117   5.545  50.256  1.00  0.00    -0.198 NA
BRANCH  23  25
HETATM   25  O1  UNL     1      25.405   7.602  49.403  1.00  0.00    -0.344 OA
HETATM   26  H1  UNL     1      24.428   7.826  49.310  1.00  0.00     0.219 HD
ENDBRANCH  23  25
ENDBRANCH   1  20
TORSDOF 3
ENDMDL
MODEL 7
REMARK VINA RESULT:      -7.2      3.259      4.643
REMARK  3 active torsions:
REMARK  status: ('A' for Active; 'I' for Inactive)
REMARK    1  A    between atoms: O1_1  and  C1_2 
REMARK    2  A    between atoms: C3_5  and  N1_6 
REMARK    3  A    between atoms: C4_8  and  C5_9 
ROOT
HETATM    1  N1  UNL     1      23.134   1.275  51.890  1.00  0.00    -0.227 N 
HETATM    2  N2  UNL     1      24.310   0.556  51.958  1.00  0.00    -0.177 NA
HETATM    3  C4  UNL     1      25.360   1.286  51.948  1.00  0.00     0.048 C 
HETATM    4  C10 UNL     1      24.908   2.713  51.861  1.00  0.00     0.101 C 
HETATM    5  C11 UNL     1      23.458   2.580  51.429  1.00  0.00     0.111 C 
HETATM    6  C12 UNL     1      23.430   2.708  49.952  1.00  0.00     0.015 C 
HETATM    7  C13 UNL     1      23.045   3.752  49.226  1.00  0.00     0.042 C 
HETATM    8  C14 UNL     1      22.563   5.004  49.834  1.00  0.00     0.128 C 
HETATM    9  F2  UNL     1      22.974   6.172  49.239  1.00  0.00    -0.205 F 
HETATM   10  C15 UNL     1      21.787   4.902  50.884  1.00  0.00     0.029 C 
HETATM   11  P2  UNL     1      22.410   3.956  52.071  1.00  0.00    -0.007 P 
ENDROOT
BRANCH   3  12
HETATM   12  C5  UNL     1      26.805   0.931  52.005  1.00  0.00     0.088 A 
HETATM   13  C6  UNL     1      27.611   2.134  52.374  1.00  0.00    -0.008 A 
HETATM   14  C7  UNL     1      28.422   2.434  53.356  1.00  0.00     0.039 A 
HETATM   15  C8  UNL     1      28.793   1.573  54.475  1.00  0.00     0.116 A 
HETATM   16  F1  UNL     1      29.646   1.976  55.449  1.00  0.00    -0.206 F 
HETATM   17  C9  UNL     1      28.265   0.360  54.521  1.00  0.00     0.047 A 
HETATM   18  P1  UNL     1      27.097  -0.373  53.310  1.00  0.00    -0.089 P 
HETATM   19  H7  UNL     1      25.872  -0.816  53.924  1.00  0.00     0.062 HD
ENDBRANCH   3  12
BRANCH   1  20
HETATM   20  C3  UNL     1      21.812   0.709  52.250  1.00  0.00     0.193 A 
HETATM   21  S1  UNL     1      21.818   0.053  53.925  1.00  0.00    -0.058 SA
HETATM   22  C2  UNL     1      20.003  -0.477  53.789  1.00  0.00     0.111 A 
HETATM   23  C1  UNL     1      19.727  -0.022  52.399  1.00  0.00     0.171 A 
HETATM   24  N3  UNL     1      20.715   0.554  51.744  1.00  0.00    -0.198 NA
BRANCH  23  25
HETATM   25  O1  UNL     1      18.566  -0.081  51.601  1.00  0.00    -0.344 OA
HETATM   26  H1  UNL     1      17.867   0.642  51.640  1.00  0.00     0.219 HD
ENDBRANCH  23  25
ENDBRANCH   1  20
TORSDOF 3
ENDMDL
MODEL 8
REMARK VINA RESULT:      -7.1      3.800      6.378
REMARK  3 active torsions:
REMARK  status: ('A' for Active; 'I' for Inactive)
REMARK    1  A    between atoms: O1_1  and  C1_2 
REMARK    2  A    between atoms: C3_5  and  N1_6 
REMARK    3  A    between atoms: C4_8  and  C5_9 
ROOT
HETATM    1  N1  UNL     1      24.552   2.017  51.957  1.00  0.00    -0.227 N 
HETATM    2  N2  UNL     1      24.974   3.256  51.516  1.00  0.00    -0.177 NA
HETATM    3  C4  UNL     1      24.043   4.130  51.472  1.00  0.00     0.048 C 
HETATM    4  C10 UNL     1      22.782   3.461  51.933  1.00  0.00     0.101 C 
HETATM    5  C11 UNL     1      23.135   1.987  51.848  1.00  0.00     0.111 C 
HETATM    6  C12 UNL     1      22.654   1.500  50.533  1.00  0.00     0.015 C 
HETATM    7  C13 UNL     1      21.581   0.761  50.273  1.00  0.00     0.042 C 
HETATM    8  C14 UNL     1      20.665   0.298  51.329  1.00  0.00     0.128 C 
HETATM    9  F2  UNL     1      19.323   0.329  51.034  1.00  0.00    -0.205 F 
HETATM   10  C15 UNL     1      21.200  -0.104  52.455  1.00  0.00     0.029 C 
HETATM   11  P2  UNL     1      22.240   0.982  53.111  1.00  0.00    -0.007 P 
ENDROOT
BRANCH   3  12
HETATM   12  C5  UNL     1      24.058   5.562  51.065  1.00  0.00     0.088 A 
HETATM   13  C6  UNL     1      25.113   5.788  50.032  1.00  0.00    -0.008 A 
HETATM   14  C7  UNL     1      25.117   6.220  48.796  1.00  0.00     0.039 A 
HETATM   15  C8  UNL     1      23.958   6.642  48.016  1.00  0.00     0.116 A 
HETATM   16  F1  UNL     1      24.063   7.077  46.736  1.00  0.00    -0.206 F 
HETATM   17  C9  UNL     1      22.770   6.589  48.599  1.00  0.00     0.047 A 
HETATM   18  P1  UNL     1      22.414   6.035  50.312  1.00  0.00    -0.089 P 
HETATM   19  H7  UNL     1      21.463   4.956  50.356  1.00  0.00     0.062 HD
ENDBRANCH   3  12
BRANCH   1  20
HETATM   20  C3  UNL     1      25.478   0.966  52.439  1.00  0.00     0.193 A 
HETATM   21  S1  UNL     1      26.455   1.548  53.834  1.00  0.00    -0.058 SA
HETATM   22  C2  UNL     1      27.360  -0.113  53.972  1.00  0.00     0.111 A 
HETATM   23  C1  UNL     1      26.697  -0.836  52.851  1.00  0.00     0.171 A 
HETATM   24  N3  UNL     1      25.778  -0.184  52.170  1.00  0.00    -0.198 NA
BRANCH  23  25
HETATM   25  O1  UNL     1      26.859  -2.143  52.348  1.00  0.00    -0.344 OA
HETATM   26  H1  UNL     1      26.304  -2.909  52.693  1.00  0.00     0.219 HD
ENDBRANCH  23  25
ENDBRANCH   1  20
TORSDOF 3
ENDMDL
MODEL 9
REMARK VINA RESULT:      -7.0      3.715      5.110
REMARK  3 active torsions:
REMARK  status: ('A' for Active; 'I' for Inactive)
REMARK    1  A    between atoms: O1_1  and  C1_2 
REMARK    2  A    between atoms: C3_5  and  N1_6 
REMARK    3  A    between atoms: C4_8  and  C5_9 
ROOT
HETATM    1  N1  UNL     1      20.495   1.768  51.412  1.00  0.00    -0.227 N 
HETATM    2  N2  UNL     1      20.728   0.493  51.888  1.00  0.00    -0.177 NA
HETATM    3  C4  UNL     1      21.945   0.281  52.216  1.00  0.00     0.048 C 
HETATM    4  C10 UNL     1      22.704   1.548  51.952  1.00  0.00     0.101 C 
HETATM    5  C11 UNL     1      21.754   2.328  51.060  1.00  0.00     0.111 C 
HETATM    6  C12 UNL     1      22.150   2.055  49.658  1.00  0.00     0.015 C 
HETATM    7  C13 UNL     1      22.813   2.847  48.823  1.00  0.00     0.042 C 
HETATM    8  C14 UNL     1      23.274   4.192  49.207  1.00  0.00     0.128 C 
HETATM    9  F2  UNL     1      24.518   4.565  48.760  1.00  0.00    -0.205 F 
HETATM   10  C15 UNL     1      22.464   4.919  49.936  1.00  0.00     0.029 C 
HETATM   11  P2  UNL     1      21.927   4.151  51.284  1.00  0.00    -0.007 P 
ENDROOT
BRANCH   3  12
HETATM   12  C5  UNL     1      22.620  -0.928  52.763  1.00  0.00     0.088 A 
HETATM   13  C6  UNL     1      24.042  -0.612  53.096  1.00  0.00    -0.008 A 
HETATM   14  C7  UNL     1      24.762  -0.644  54.188  1.00  0.00     0.039 A 
HETATM   15  C8  UNL     1      24.312  -1.040  55.518  1.00  0.00     0.116 A 
HETATM   16  F1  UNL     1      25.138  -1.040  56.594  1.00  0.00    -0.206 F 
HETATM   17  C9  UNL     1      23.049  -1.410  55.657  1.00  0.00     0.047 A 
HETATM   18  P1  UNL     1      21.776  -1.480  54.336  1.00  0.00    -0.089 P 
HETATM   19  H7  UNL     1      20.618  -0.683  54.644  1.00  0.00     0.062 HD
ENDBRANCH   3  12
BRANCH   1  20
HETATM   20  C3  UNL     1      19.143   2.367  51.318  1.00  0.00     0.193 A 
HETATM   21  S1  UNL     1      18.282   1.804  49.841  1.00  0.00    -0.058 SA
HETATM   22  C2  UNL     1      16.751   2.839  50.266  1.00  0.00     0.111 A 
HETATM   23  C1  UNL     1      17.227   3.455  51.536  1.00  0.00     0.171 A 
HETATM   24  N3  UNL     1      18.437   3.135  51.947  1.00  0.00    -0.198 NA
BRANCH  23  25
HETATM   25  O1  UNL     1      16.615   4.353  52.434  1.00  0.00    -0.344 OA
HETATM   26  H1  UNL     1      16.444   4.099  53.393  1.00  0.00     0.219 HD
ENDBRANCH  23  25
ENDBRANCH   1  20
TORSDOF 3
ENDMDL
