MODEL 1
REMARK VINA RESULT:      -7.8      0.000      0.000
REMARK  6 active torsions:
REMARK  status: ('A' for Active; 'I' for Inactive)
REMARK    1  A    between atoms: C2_3  and  C3_4 
REMARK    2  A    between atoms: C4_6  and  C5_7 
REMARK    3  A    between atoms: C5_7  and  P1_10 
REMARK    4  A    between atoms: N2_11  and  C9_14 
REMARK    5  A    between atoms: N4_15  and  C10_16 
REMARK    6  A    between atoms: C11_17  and  C12_18 
ROOT
HETATM    1  N1  UNL     1      28.606  -2.350  53.438  1.00  0.00    -0.197 NA
HETATM    2  C1  UNL     1      29.210  -1.384  53.407  1.00  0.00     0.066 C 
HETATM    3  C2  UNL     1      29.978  -0.116  53.381  1.00  0.00     0.193 C 
ENDROOT
BRANCH   3   4
HETATM    4  C3  UNL     1      29.176   0.948  54.024  1.00  0.00     0.103 C 
HETATM    5  F1  UNL     1      29.505   1.433  55.227  1.00  0.00    -0.210 F 
HETATM    6  C4  UNL     1      28.116   1.514  53.545  1.00  0.00     0.022 C 
BRANCH   6   7
HETATM    7  C5  UNL     1      27.276   1.454  52.364  1.00  0.00     0.051 A 
HETATM    8  C6  UNL     1      26.099   1.239  51.708  1.00  0.00     0.022 A 
HETATM    9  C7  UNL     1      25.803   1.132  51.932  1.00  0.00     0.013 A 
HETATM   10  C9  UNL     1      25.193   0.773  53.063  1.00  0.00     0.180 A 
HETATM   11  P1  UNL     1      25.302   0.959  52.326  1.00  0.00    -0.117 P 
HETATM   12  N2  UNL     1      24.762   0.758  52.764  1.00  0.00     0.000 N 
HETATM   13  C8  UNL     1      24.454  -0.622  53.985  1.00  0.00     0.126 A 
HETATM   14  N4  UNL     1      23.622   0.431  53.617  1.00  0.00     0.000 N 
HETATM   15  N3  UNL     1      25.852  -0.428  53.625  1.00  0.00    -0.405 N 
HETATM   16  H6  UNL     1      26.600  -1.164  53.898  1.00  0.00     0.154 HD
BRANCH  14  17
HETATM   17  C10 UNL     1      22.147   0.518  53.242  1.00  0.00     0.003 C 
HETATM   18  C11 UNL     1      21.262  -0.475  52.931  1.00  0.00     0.039 C 
BRANCH  18  19
HETATM   19  C12 UNL     1      19.937  -0.172  52.605  1.00  0.00     0.090 C 
HETATM   20  C13 UNL     1      19.363   0.570  51.681  1.00  0.00     0.171 C 
HETATM   21  O1  UNL     1      18.029   0.824  51.415  1.00  0.00    -0.358 OA
HETATM   22  C14 UNL     1      17.035   0.106  52.083  1.00  0.00     0.201 C 
HETATM   23  C15 UNL     1      17.653  -1.059  52.817  1.00  0.00     0.202 C 
HETATM   24  O2  UNL     1      18.924  -0.735  53.370  1.00  0.00    -0.347 OA
ENDBRANCH  18  19
ENDBRANCH  14  17
ENDBRANCH   6   7
ENDBRANCH   3   4
TORSDOF 6
ENDMDL
MODEL 2
REMARK VINA RESULT:      -7.6      1.509      2.360
REMARK  6 active torsions:
REMARK  status: ('A' for Active; 'I' for Inactive)
REMARK    1  A    between atoms: C2_3  and  C3_4 
REMARK    2  A    between atoms: C4_6  and  C5_7 
REMARK    3  A    between atoms: C5_7  and  P1_10 
REMARK    4  A    between atoms: N2_11  and  C9_14 
REMARK    5  A    between atoms: N4_15  and  C10_16 
REMARK    6  A    between atoms: C11_17  and  C12_18 
ROOT
HETATM    1  N1  UNL     1      27.110   2.489  51.172  1.00  0.00    -0.197 NA
HETATM    2  C1  UNL     1      27.299   2.438  52.295  1.00  0.00     0.066 C 
HETATM    3  C2  UNL     1      27.565   2.358  53.751  1.00  0.00     0.193 C 
ENDROOT
BRANCH   3   4
HETATM    4  C3  UNL     1      28.679   1.413  53.987  1.00  0.00     0.103 C 
HETATM    5  F1  UNL     1      29.771   1.785  54.666  1.00  0.00    -0.210 F 
HETATM    6  C4  UNL     1      28.747   0.183  53.592  1.00  0.00     0.022 C 
BRANCH   6   7
HETATM    7  C5  UNL     1      27.953  -0.780  52.852  1.00  0.00     0.051 A 
HETATM    8  C6  UNL     1      26.787  -1.405  52.516  1.00  0.00     0.022 A 
HETATM    9  C7  UNL     1      26.475  -1.281  52.704  1.00  0.00     0.013 A 
HETATM   10  C9  UNL     1      25.788  -0.570  53.601  1.00  0.00     0.180 A 
HETATM   11  P1  UNL     1      25.944  -1.055  53.026  1.00  0.00    -0.117 P 
HETATM   12  N2  UNL     1      25.370  -0.808  53.392  1.00  0.00     0.000 N 
HETATM   13  C8  UNL     1      24.882  -0.641  55.188  1.00  0.00     0.126 A 
HETATM   14  N4  UNL     1      24.170  -0.289  54.045  1.00  0.00     0.000 N 
HETATM   15  N3  UNL     1      26.305  -0.850  54.960  1.00  0.00    -0.405 N 
HETATM   16  H6  UNL     1      26.967  -1.087  55.786  1.00  0.00     0.154 HD
BRANCH  14  17
HETATM   17  C10 UNL     1      22.727  -0.501  53.603  1.00  0.00     0.003 C 
HETATM   18  C11 UNL     1      21.835   0.386  53.071  1.00  0.00     0.039 C 
BRANCH  18  19
HETATM   19  C12 UNL     1      20.540  -0.020  52.737  1.00  0.00     0.090 C 
HETATM   20  C13 UNL     1      19.543  -0.561  53.406  1.00  0.00     0.171 C 
HETATM   21  O1  UNL     1      18.274  -0.938  53.005  1.00  0.00    -0.358 OA
HETATM   22  C14 UNL     1      17.814  -0.596  51.732  1.00  0.00     0.201 C 
HETATM   23  C15 UNL     1      18.751   0.406  51.104  1.00  0.00     0.202 C 
HETATM   24  O2  UNL     1      20.113   0.146  51.426  1.00  0.00    -0.347 OA
ENDBRANCH  18  19
ENDBRANCH  14  17
ENDBRANCH   6   7
ENDBRANCH   3   4
TORSDOF 6
ENDMDL
MODEL 3
REMARK VINA RESULT:      -7.4      4.620      8.760
REMARK  6 active torsions:
REMARK  status: ('A' for Active; 'I' for Inactive)
REMARK    1  A    between atoms: C2_3  and  C3_4 
REMARK    2  A    between atoms: C4_6  and  C5_7 
REMARK    3  A    between atoms: C5_7  and  P1_10 
REMARK    4  A    between atoms: N2_11  and  C9_14 
REMARK    5  A    between atoms: N4_15  and  C10_16 
REMARK    6  A    between atoms: C11_17  and  C12_18 
ROOT
HETATM    1  N1  UNL     1      15.030  -0.972  50.260  1.00  0.00    -0.197 NA
HETATM    2  C1  UNL     1      16.074  -0.562  50.459  1.00  0.00     0.066 C 
HETATM    3  C2  UNL     1      17.436  -0.046  50.737  1.00  0.00     0.193 C 
ENDROOT
BRANCH   3   4
HETATM    4  C3  UNL     1      17.960  -0.696  51.958  1.00  0.00     0.103 C 
HETATM    5  F1  UNL     1      17.383  -1.795  52.459  1.00  0.00    -0.210 F 
HETATM    6  C4  UNL     1      18.976  -0.315  52.662  1.00  0.00     0.022 C 
BRANCH   6   7
HETATM    7  C5  UNL     1      19.976   0.736  52.671  1.00  0.00     0.051 A 
HETATM    8  C6  UNL     1      21.218   1.242  52.923  1.00  0.00     0.022 A 
HETATM    9  C7  UNL     1      21.467   0.993  53.081  1.00  0.00     0.013 A 
HETATM   10  C9  UNL     1      21.871  -0.160  53.617  1.00  0.00     0.180 A 
HETATM   11  P1  UNL     1      21.889   0.557  53.343  1.00  0.00    -0.117 P 
HETATM   12  N2  UNL     1      22.339   0.075  53.640  1.00  0.00     0.000 N 
HETATM   13  C8  UNL     1      22.354  -0.999  55.169  1.00  0.00     0.126 A 
HETATM   14  N4  UNL     1      23.310  -0.882  54.165  1.00  0.00     0.000 N 
HETATM   15  N3  UNL     1      21.044  -0.474  54.805  1.00  0.00    -0.405 N 
HETATM   16  H6  UNL     1      20.210  -0.548  55.493  1.00  0.00     0.154 HD
BRANCH  14  17
HETATM   17  C10 UNL     1      24.827  -0.731  54.177  1.00  0.00     0.003 C 
HETATM   18  C11 UNL     1      25.668  -0.265  53.206  1.00  0.00     0.039 C 
BRANCH  18  19
HETATM   19  C12 UNL     1      27.048  -0.216  53.422  1.00  0.00     0.090 C 
HETATM   20  C13 UNL     1      27.847   0.590  54.091  1.00  0.00     0.171 C 
HETATM   21  O1  UNL     1      29.219   0.575  54.263  1.00  0.00    -0.358 OA
HETATM   22  C14 UNL     1      29.967  -0.517  53.820  1.00  0.00     0.201 C 
HETATM   23  C15 UNL     1      29.043  -1.653  53.455  1.00  0.00     0.202 C 
HETATM   24  O2  UNL     1      27.842  -1.196  52.842  1.00  0.00    -0.347 OA
ENDBRANCH  18  19
ENDBRANCH  14  17
ENDBRANCH   6   7
ENDBRANCH   3   4
TORSDOF 6
ENDMDL
MODEL 4
REMARK VINA RESULT:      -7.2      4.546      8.697
REMARK  6 active torsions:
REMARK  status: ('A' for Active; 'I' for Inactive)
REMARK    1  A    between atoms: C2_3  and  C3_4 
REMARK    2  A    between atoms: C4_6  and  C5_7 
REMARK    3  A    between atoms: C5_7  and  P1_10 
REMARK    4  A    between atoms: N2_11  and  C9_14 
REMARK    5  A    between atoms: N4_15  and  C10_16 
REMARK    6  A    between atoms: C11_17  and  C12_18 
ROOT
HETATM    1  N1  UNL     1      16.593   2.991  50.662  1.00  0.00    -0.197 NA
HETATM    2  C1  UNL     1      16.938   1.943  50.377  1.00  0.00     0.066 C 
HETATM    3  C2  UNL     1      17.389   0.573  50.031  1.00  0.00     0.193 C 
ENDROOT
BRANCH   3   4
HETATM    4  C3  UNL     1      17.731  -0.151  51.275  1.00  0.00     0.103 C 
HETATM    5  F1  UNL     1      17.054  -1.243  51.649  1.00  0.00    -0.210 F 
HETATM    6  C4  UNL     1      18.667   0.153  52.114  1.00  0.00     0.022 C 
BRANCH   6   7
HETATM    7  C5  UNL     1      19.699   1.156  52.295  1.00  0.00     0.051 A 
HETATM    8  C6  UNL     1      20.929   1.588  52.698  1.00  0.00     0.022 A 
HETATM    9  C7  UNL     1      21.153   1.318  52.859  1.00  0.00     0.013 A 
HETATM   10  C9  UNL     1      21.462   0.113  53.342  1.00  0.00     0.180 A 
HETATM   11  P1  UNL     1      21.532   0.846  53.125  1.00  0.00    -0.117 P 
HETATM   12  N2  UNL     1      21.934   0.325  53.425  1.00  0.00     0.000 N 
HETATM   13  C8  UNL     1      21.764  -0.856  54.863  1.00  0.00     0.126 A 
HETATM   14  N4  UNL     1      22.815  -0.709  53.963  1.00  0.00     0.000 N 
HETATM   15  N3  UNL     1      20.515  -0.250  54.421  1.00  0.00    -0.405 N 
HETATM   16  H6  UNL     1      19.616  -0.337  55.022  1.00  0.00     0.154 HD
BRANCH  14  17
HETATM   17  C10 UNL     1      24.329  -0.624  54.126  1.00  0.00     0.003 C 
HETATM   18  C11 UNL     1      25.277  -0.154  53.263  1.00  0.00     0.039 C 
BRANCH  18  19
HETATM   19  C12 UNL     1      26.630  -0.175  53.611  1.00  0.00     0.090 C 
HETATM   20  C13 UNL     1      27.318   0.230  54.659  1.00  0.00     0.171 C 
HETATM   21  O1  UNL     1      28.672   0.175  54.938  1.00  0.00    -0.358 OA
HETATM   22  C14 UNL     1      29.528  -0.545  54.101  1.00  0.00     0.201 C 
HETATM   23  C15 UNL     1      28.718  -1.390  53.148  1.00  0.00     0.202 C 
HETATM   24  O2  UNL     1      27.535  -0.728  52.714  1.00  0.00    -0.347 OA
ENDBRANCH  18  19
ENDBRANCH  14  17
ENDBRANCH   6   7
ENDBRANCH   3   4
TORSDOF 6
ENDMDL
MODEL 5
REMARK VINA RESULT:      -7.0      2.333      3.577
REMARK  6 active torsions:
REMARK  status: ('A' for Active; 'I' for Inactive)
REMARK    1  A    between atoms: C2_3  and  C3_4 
REMARK    2  A    between atoms: C4_6  and  C5_7 
REMARK    3  A    between atoms: C5_7  and  P1_10 
REMARK    4  A    between atoms: N2_11  and  C9_14 
REMARK    5  A    between atoms: N4_15  and  C10_16 
REMARK    6  A    between atoms: C11_17  and  C12_18 
ROOT
HETATM    1  N1  UNL     1      28.450   0.612  55.105  1.00  0.00    -0.197 NA
HETATM    2  C1  UNL     1      28.049   0.016  54.219  1.00  0.00     0.066 C 
HETATM    3  C2  UNL     1      27.515  -0.738  53.060  1.00  0.00     0.193 C 
ENDROOT
BRANCH   3   4
HETATM    4  C3  UNL     1      26.507   0.093  52.366  1.00  0.00     0.103 C 
HETATM    5  F1  UNL     1      26.853   0.905  51.359  1.00  0.00    -0.210 F 
HETATM    6  C4  UNL     1      25.240   0.147  52.622  1.00  0.00     0.022 C 
BRANCH   6   7
HETATM    7  C5  UNL     1      24.276  -0.439  53.534  1.00  0.00     0.051 A 
HETATM    8  C6  UNL     1      23.012  -0.720  53.965  1.00  0.00     0.022 A 
HETATM    9  C7  UNL     1      22.729  -0.578  53.745  1.00  0.00     0.013 A 
HETATM   10  C9  UNL     1      22.190   0.120  52.744  1.00  0.00     0.180 A 
HETATM   11  P1  UNL     1      22.251  -0.340  53.355  1.00  0.00    -0.117 P 
HETATM   12  N2  UNL     1      21.735  -0.065  52.929  1.00  0.00     0.000 N 
HETATM   13  C8  UNL     1      21.257   1.631  52.307  1.00  0.00     0.126 A 
HETATM   14  N4  UNL     1      20.659   0.400  52.057  1.00  0.00     0.000 N 
HETATM   15  N3  UNL     1      22.609   1.537  52.841  1.00  0.00    -0.405 N 
HETATM   16  H6  UNL     1      23.190   2.432  53.036  1.00  0.00     0.154 HD
BRANCH  14  17
HETATM   17  C10 UNL     1      19.212  -0.081  52.057  1.00  0.00     0.003 C 
HETATM   18  C11 UNL     1      18.235   0.084  51.117  1.00  0.00     0.039 C 
BRANCH  18  19
HETATM   19  C12 UNL     1      16.955  -0.438  51.321  1.00  0.00     0.090 C 
HETATM   20  C13 UNL     1      16.249  -0.758  52.386  1.00  0.00     0.171 C 
HETATM   21  O1  UNL     1      14.973  -1.275  52.513  1.00  0.00    -0.358 OA
HETATM   22  C14 UNL     1      14.147  -1.376  51.392  1.00  0.00     0.201 C 
HETATM   23  C15 UNL     1      14.752  -0.609  50.241  1.00  0.00     0.202 C 
HETATM   24  O2  UNL     1      16.171  -0.718  50.210  1.00  0.00    -0.347 OA
ENDBRANCH  18  19
ENDBRANCH  14  17
ENDBRANCH   6   7
ENDBRANCH   3   4
TORSDOF 6
ENDMDL
MODEL 6
REMARK VINA RESULT:      -7.0      3.353      3.856
REMARK  6 active torsions:
REMARK  status: ('A' for Active; 'I' for Inactive)
REMARK    1  A    between atoms: C2_3  and  C3_4 
REMARK    2  A    between atoms: C4_6  and  C5_7 
REMARK    3  A    between atoms: C5_7  and  P1_10 
REMARK    4  A    between atoms: N2_11  and  C9_14 
REMARK    5  A    between atoms: N4_15  and  C10_16 
REMARK    6  A    between atoms: C11_17  and  C12_18 
ROOT
HETATM    1  N1  UNL     1      29.320   2.472  54.358  1.00  0.00    -0.197 NA
HETATM    2  C1  UNL     1      29.027   1.397  54.598  1.00  0.00     0.066 C 
HETATM    3  C2  UNL     1      28.644  -0.006  54.885  1.00  0.00     0.193 C 
ENDROOT
BRANCH   3   4
HETATM    4  C3  UNL     1      28.293  -0.681  53.616  1.00  0.00     0.103 C 
HETATM    5  F1  UNL     1      29.240  -1.142  52.791  1.00  0.00    -0.210 F 
HETATM    6  C4  UNL     1      27.102  -0.898  53.160  1.00  0.00     0.022 C 
BRANCH   6   7
HETATM    7  C5  UNL     1      25.720  -0.665  53.536  1.00  0.00     0.051 A 
HETATM    8  C6  UNL     1      24.505  -0.055  53.416  1.00  0.00     0.022 A 
HETATM    9  C7  UNL     1      24.481   0.208  53.136  1.00  0.00     0.013 A 
HETATM   10  C9  UNL     1      24.924   0.985  52.146  1.00  0.00     0.180 A 
HETATM   11  P1  UNL     1      24.448   0.651  52.646  1.00  0.00    -0.117 P 
HETATM   12  N2  UNL     1      24.425   1.143  52.116  1.00  0.00     0.000 N 
HETATM   13  C8  UNL     1      25.363   2.695  51.668  1.00  0.00     0.126 A 
HETATM   14  N4  UNL     1      24.304   2.084  51.005  1.00  0.00     0.000 N 
HETATM   15  N3  UNL     1      26.032   1.837  52.637  1.00  0.00    -0.405 N 
HETATM   16  H6  UNL     1      26.898   2.192  53.185  1.00  0.00     0.154 HD
BRANCH  14  17
HETATM   17  C10 UNL     1      23.012   2.608  50.389  1.00  0.00     0.003 C 
HETATM   18  C11 UNL     1      22.467   2.366  49.160  1.00  0.00     0.039 C 
BRANCH  18  19
HETATM   19  C12 UNL     1      21.259   2.962  48.787  1.00  0.00     0.090 C 
HETATM   20  C13 UNL     1      20.337   2.690  47.887  1.00  0.00     0.171 C 
HETATM   21  O1  UNL     1      19.153   3.332  47.572  1.00  0.00    -0.358 OA
HETATM   22  C14 UNL     1      18.684   4.369  48.381  1.00  0.00     0.201 C 
HETATM   23  C15 UNL     1      19.476   4.411  49.665  1.00  0.00     0.202 C 
HETATM   24  O2  UNL     1      20.851   4.107  49.460  1.00  0.00    -0.347 OA
ENDBRANCH  18  19
ENDBRANCH  14  17
ENDBRANCH   6   7
ENDBRANCH   3   4
TORSDOF 6
ENDMDL
MODEL 7
REMARK VINA RESULT:      -6.9      3.878      4.991
REMARK  6 active torsions:
REMARK  status: ('A' for Active; 'I' for Inactive)
REMARK    1  A    between atoms: C2_3  and  C3_4 
REMARK    2  A    between atoms: C4_6  and  C5_7 
REMARK    3  A    between atoms: C5_7  and  P1_10 
REMARK    4  A    between atoms: N2_11  and  C9_14 
REMARK    5  A    between atoms: N4_15  and  C10_16 
REMARK    6  A    between atoms: C11_17  and  C12_18 
ROOT
HETATM    1  N1  UNL     1      27.161   2.380  51.611  1.00  0.00    -0.197 NA
HETATM    2  C1  UNL     1      27.029   1.317  52.001  1.00  0.00     0.066 C 
HETATM    3  C2  UNL     1      26.846  -0.056  52.528  1.00  0.00     0.193 C 
ENDROOT
BRANCH   3   4
HETATM    4  C3  UNL     1      26.279   0.021  53.892  1.00  0.00     0.103 C 
HETATM    5  F1  UNL     1      27.066   0.190  54.962  1.00  0.00    -0.210 F 
HETATM    6  C4  UNL     1      25.029  -0.060  54.215  1.00  0.00     0.022 C 
BRANCH   6   7
HETATM    7  C5  UNL     1      23.737  -0.237  53.578  1.00  0.00     0.051 A 
HETATM    8  C6  UNL     1      22.765   0.077  52.673  1.00  0.00     0.022 A 
HETATM    9  C7  UNL     1      22.847   0.375  52.442  1.00  0.00     0.013 A 
HETATM   10  C9  UNL     1      23.556   1.405  51.978  1.00  0.00     0.180 A 
HETATM   11  P1  UNL     1      23.001   0.880  52.044  1.00  0.00    -0.117 P 
HETATM   12  N2  UNL     1      23.173   1.441  51.622  1.00  0.00     0.000 N 
HETATM   13  C8  UNL     1      23.655   3.228  51.877  1.00  0.00     0.126 A 
HETATM   14  N4  UNL     1      23.508   2.516  50.691  1.00  0.00     0.000 N 
HETATM   15  N3  UNL     1      23.775   2.389  53.062  1.00  0.00    -0.405 N 
HETATM   16  H6  UNL     1      23.935   2.832  54.039  1.00  0.00     0.154 HD
BRANCH  14  17
HETATM   17  C10 UNL     1      22.822   2.822  49.364  1.00  0.00     0.003 C 
HETATM   18  C11 UNL     1      21.550   2.542  48.952  1.00  0.00     0.039 C 
BRANCH  18  19
HETATM   19  C12 UNL     1      21.119   2.910  47.674  1.00  0.00     0.090 C 
HETATM   20  C13 UNL     1      19.943   3.151  47.133  1.00  0.00     0.171 C 
HETATM   21  O1  UNL     1      19.589   3.516  45.846  1.00  0.00    -0.358 OA
HETATM   22  C14 UNL     1      20.577   3.858  44.921  1.00  0.00     0.201 C 
HETATM   23  C15 UNL     1      21.900   4.028  45.628  1.00  0.00     0.202 C 
HETATM   24  O2  UNL     1      22.073   3.086  46.681  1.00  0.00    -0.347 OA
ENDBRANCH  18  19
ENDBRANCH  14  17
ENDBRANCH   6   7
ENDBRANCH   3   4
TORSDOF 6
ENDMDL
MODEL 8
REMARK VINA RESULT:      -6.9      5.002      8.112
REMARK  6 active torsions:
REMARK  status: ('A' for Active; 'I' for Inactive)
REMARK    1  A    between atoms: C2_3  and  C3_4 
REMARK    2  A    between atoms: C4_6  and  C5_7 
REMARK    3  A    between atoms: C5_7  and  P1_10 
REMARK    4  A    between atoms: N2_11  and  C9_14 
REMARK    5  A    between atoms: N4_15  and  C10_16 
REMARK    6  A    between atoms: C11_17  and  C12_18 
ROOT
HETATM    1  N1  UNL     1      21.425   0.980  48.949  1.00  0.00    -0.197 NA
HETATM    2  C1  UNL     1      21.199   2.024  48.550  1.00  0.00     0.066 C 
HETATM    3  C2  UNL     1      20.889   3.384  48.051  1.00  0.00     0.193 C 
ENDROOT
BRANCH   3   4
HETATM    4  C3  UNL     1      19.751   3.934  48.821  1.00  0.00     0.103 C 
HETATM    5  F1  UNL     1      18.490   3.777  48.401  1.00  0.00    -0.210 F 
HETATM    6  C4  UNL     1      19.816   4.599  49.928  1.00  0.00     0.022 C 
BRANCH   6   7
HETATM    7  C5  UNL     1      20.814   5.089  50.860  1.00  0.00     0.051 A 
HETATM    8  C6  UNL     1      21.817   4.936  51.773  1.00  0.00     0.022 A 
HETATM    9  C7  UNL     1      21.914   4.571  51.850  1.00  0.00     0.013 A 
HETATM   10  C9  UNL     1      21.823   3.241  51.785  1.00  0.00     0.180 A 
HETATM   11  P1  UNL     1      22.079   3.941  51.967  1.00  0.00    -0.117 P 
HETATM   12  N2  UNL     1      22.245   3.249  52.098  1.00  0.00     0.000 N 
HETATM   13  C8  UNL     1      21.333   1.730  52.691  1.00  0.00     0.126 A 
HETATM   14  N4  UNL     1      22.670   1.872  52.334  1.00  0.00     0.000 N 
HETATM   15  N3  UNL     1      20.476   2.811  52.224  1.00  0.00    -0.405 N 
HETATM   16  H6  UNL     1      19.407   2.788  52.407  1.00  0.00     0.154 HD
BRANCH  14  17
HETATM   17  C10 UNL     1      23.979   1.418  52.972  1.00  0.00     0.003 C 
HETATM   18  C11 UNL     1      25.100   2.136  53.274  1.00  0.00     0.039 C 
BRANCH  18  19
HETATM   19  C12 UNL     1      26.208   1.514  53.858  1.00  0.00     0.090 C 
HETATM   20  C13 UNL     1      26.430   0.323  54.373  1.00  0.00     0.171 C 
HETATM   21  O1  UNL     1      27.566  -0.229  54.938  1.00  0.00    -0.358 OA
HETATM   22  C14 UNL     1      28.782   0.454  54.868  1.00  0.00     0.201 C 
HETATM   23  C15 UNL     1      28.665   1.606  53.900  1.00  0.00     0.202 C 
HETATM   24  O2  UNL     1      27.390   2.235  53.964  1.00  0.00    -0.347 OA
ENDBRANCH  18  19
ENDBRANCH  14  17
ENDBRANCH   6   7
ENDBRANCH   3   4
TORSDOF 6
ENDMDL
MODEL 9
REMARK VINA RESULT:      -6.8      5.063      5.974
REMARK  6 active torsions:
REMARK  status: ('A' for Active; 'I' for Inactive)
REMARK    1  A    between atoms: C2_3  and  C3_4 
REMARK    2  A    between atoms: C4_6  and  C5_7 
REMARK    3  A    between atoms: C5_7  and  P1_10 
REMARK    4  A    between atoms: N2_11  and  C9_14 
REMARK    5  A    between atoms: N4_15  and  C10_16 
REMARK    6  A    between atoms: C11_17  and  C12_18 
ROOT
HETATM    1  N1  UNL     1      28.466   2.068  53.938  1.00  0.00    -0.197 NA
HETATM    2  C1  UNL     1      28.172   0.970  53.855  1.00  0.00     0.066 C 
HETATM    3  C2  UNL     1      27.774  -0.452  53.727  1.00  0.00     0.193 C 
ENDROOT
BRANCH   3   4
HETATM    4  C3  UNL     1      26.709  -0.566  52.706  1.00  0.00     0.103 C 
HETATM    5  F1  UNL     1      26.766  -1.498  51.747  1.00  0.00    -0.210 F 
HETATM    6  C4  UNL     1      25.651   0.172  52.607  1.00  0.00     0.022 C 
BRANCH   6   7
HETATM    7  C5  UNL     1      25.024   1.292  53.282  1.00  0.00     0.051 A 
HETATM    8  C6  UNL     1      24.491   2.548  53.334  1.00  0.00     0.022 A 
HETATM    9  C7  UNL     1      24.493   2.740  53.000  1.00  0.00     0.013 A 
HETATM   10  C9  UNL     1      24.769   2.954  51.713  1.00  0.00     0.180 A 
HETATM   11  P1  UNL     1      24.492   3.058  52.420  1.00  0.00    -0.117 P 
HETATM   12  N2  UNL     1      24.506   3.403  51.784  1.00  0.00     0.000 N 
HETATM   13  C8  UNL     1      25.813   3.898  50.544  1.00  0.00     0.126 A 
HETATM   14  N4  UNL     1      24.438   4.107  50.506  1.00  0.00     0.000 N 
HETATM   15  N3  UNL     1      26.233   2.879  51.497  1.00  0.00    -0.405 N 
HETATM   16  H6  UNL     1      27.277   2.602  51.585  1.00  0.00     0.154 HD
BRANCH  14  17
HETATM   17  C10 UNL     1      23.571   5.317  50.176  1.00  0.00     0.003 C 
HETATM   18  C11 UNL     1      23.659   6.604  50.624  1.00  0.00     0.039 C 
BRANCH  18  19
HETATM   19  C12 UNL     1      22.745   7.571  50.195  1.00  0.00     0.090 C 
HETATM   20  C13 UNL     1      22.815   8.614  49.393  1.00  0.00     0.171 C 
HETATM   21  O1  UNL     1      21.858   9.536  49.010  1.00  0.00    -0.358 OA
HETATM   22  C14 UNL     1      20.520   9.336  49.356  1.00  0.00     0.201 C 
HETATM   23  C15 UNL     1      20.333   7.935  49.884  1.00  0.00     0.202 C 
HETATM   24  O2  UNL     1      21.440   7.502  50.666  1.00  0.00    -0.347 OA
ENDBRANCH  18  19
ENDBRANCH  14  17
ENDBRANCH   6   7
ENDBRANCH   3   4
TORSDOF 6
ENDMDL
