MODEL 1
REMARK VINA RESULT:      -7.9      0.000      0.000
REMARK  3 active torsions:
REMARK  status: ('A' for Active; 'I' for Inactive)
REMARK    1  A    between atoms: N3_13  and  C9_14 
REMARK    2  A    between atoms: C9_14  and  C11_16 
REMARK    3  A    between atoms: C12_17  and  C13_18 
ROOT
HETATM    1  C1  UNL     1      25.416  -0.189  53.410  1.00  0.00     0.061 C 
HETATM    2  C2  UNL     1      26.118   0.905  53.739  1.00  0.00     0.025 C 
HETATM    3  N1  UNL     1      26.798   0.804  54.961  1.00  0.00    -0.260 NA
HETATM    4  C3  UNL     1      27.928   0.149  55.027  1.00  0.00     0.290 A 
HETATM    5  N2  UNL     1      28.975  -0.616  54.446  1.00  0.00    -0.274 NA
HETATM    6  C4  UNL     1      29.669  -0.157  53.476  1.00  0.00     0.205 A 
HETATM    7  S1  UNL     1      28.701   1.319  53.547  1.00  0.00    -0.090 SA
HETATM    8  O1  UNL     1      27.147   1.121  52.747  1.00  0.00     0.000 OA
HETATM    9  C5  UNL     1      26.826   1.980  51.719  1.00  0.00    -0.041 A 
HETATM   10  C6  UNL     1      25.862   1.812  52.600  1.00  0.00     0.044 A 
HETATM   11  C7  UNL     1      24.489   2.370  52.652  1.00  0.00     0.041 C 
HETATM   12  C8  UNL     1      24.241   3.165  51.409  1.00  0.00     0.119 C 
HETATM   13  N3  UNL     1      25.411   3.765  50.909  1.00  0.00    -0.402 N 
HETATM   14  C14 UNL     1      26.504   2.890  50.617  1.00  0.00     0.153 C 
ENDROOT
BRANCH  13  15
HETATM   15  C9  UNL     1      25.217   4.756  49.883  1.00  0.00     0.098 C 
HETATM   16  C10 UNL     1      24.106   4.545  48.935  1.00  0.00     0.036 C 
BRANCH  15  17
HETATM   17  C11 UNL     1      26.522   4.749  49.113  1.00  0.00    -0.001 C 
HETATM   18  C12 UNL     1      27.178   5.788  48.560  1.00  0.00     0.016 C 
BRANCH  18  19
HETATM   19  C13 UNL     1      26.926   7.269  48.473  1.00  0.00     0.107 C 
HETATM   20  N4  UNL     1      27.355   7.608  49.662  1.00  0.00    -0.312 NA
HETATM   21  H16 UNL     1      27.313   8.629  49.931  1.00  0.00     0.186 HD
ENDBRANCH  18  19
ENDBRANCH  15  17
ENDBRANCH  13  15
TORSDOF 3
ENDMDL
MODEL 2
REMARK VINA RESULT:      -7.3      4.651      6.975
REMARK  3 active torsions:
REMARK  status: ('A' for Active; 'I' for Inactive)
REMARK    1  A    between atoms: N3_13  and  C9_14 
REMARK    2  A    between atoms: C9_14  and  C11_16 
REMARK    3  A    between atoms: C12_17  and  C13_18 
ROOT
HETATM    1  C1  UNL     1      20.757   0.517  54.713  1.00  0.00     0.061 C 
HETATM    2  C2  UNL     1      21.030  -0.094  53.551  1.00  0.00     0.025 C 
HETATM    3  N1  UNL     1      19.894  -0.505  52.839  1.00  0.00    -0.260 NA
HETATM    4  C3  UNL     1      19.213   0.363  52.139  1.00  0.00     0.290 A 
HETATM    5  N2  UNL     1      18.975   1.676  51.647  1.00  0.00    -0.274 NA
HETATM    6  C4  UNL     1      19.855   2.290  50.954  1.00  0.00     0.205 A 
HETATM    7  S1  UNL     1      20.900   0.876  51.117  1.00  0.00    -0.090 SA
HETATM    8  O1  UNL     1      21.710   0.837  52.678  1.00  0.00     0.000 OA
HETATM    9  C5  UNL     1      23.086   0.793  52.701  1.00  0.00    -0.041 A 
HETATM   10  C6  UNL     1      22.507  -0.071  53.509  1.00  0.00     0.044 A 
HETATM   11  C7  UNL     1      23.089  -1.056  54.453  1.00  0.00     0.041 C 
HETATM   12  C8  UNL     1      24.577  -0.892  54.469  1.00  0.00     0.119 C 
HETATM   13  N3  UNL     1      25.086  -0.459  53.231  1.00  0.00    -0.402 N 
HETATM   14  C14 UNL     1      24.551   0.761  52.711  1.00  0.00     0.153 C 
ENDROOT
BRANCH  13  15
HETATM   15  C9  UNL     1      26.515  -0.535  53.081  1.00  0.00     0.098 C 
HETATM   16  C10 UNL     1      27.091  -1.841  52.706  1.00  0.00     0.036 C 
BRANCH  15  17
HETATM   17  C11 UNL     1      27.051  -0.140  54.442  1.00  0.00    -0.001 C 
HETATM   18  C12 UNL     1      28.188   0.520  54.739  1.00  0.00     0.016 C 
BRANCH  18  19
HETATM   19  C13 UNL     1      29.316   1.097  53.927  1.00  0.00     0.107 C 
HETATM   20  N4  UNL     1      29.467   2.221  54.580  1.00  0.00    -0.312 NA
HETATM   21  H16 UNL     1      30.216   2.888  54.249  1.00  0.00     0.186 HD
ENDBRANCH  18  19
ENDBRANCH  15  17
ENDBRANCH  13  15
TORSDOF 3
ENDMDL
MODEL 3
REMARK VINA RESULT:      -7.2      2.849      3.879
REMARK  3 active torsions:
REMARK  status: ('A' for Active; 'I' for Inactive)
REMARK    1  A    between atoms: N3_13  and  C9_14 
REMARK    2  A    between atoms: C9_14  and  C11_16 
REMARK    3  A    between atoms: C12_17  and  C13_18 
ROOT
HETATM    1  C1  UNL     1      25.020  -0.083  54.225  1.00  0.00     0.061 C 
HETATM    2  C2  UNL     1      24.196  -0.055  53.167  1.00  0.00     0.025 C 
HETATM    3  N1  UNL     1      23.328  -1.153  53.087  1.00  0.00    -0.260 NA
HETATM    4  C3  UNL     1      22.253  -1.190  53.831  1.00  0.00     0.290 A 
HETATM    5  N2  UNL     1      21.377  -0.641  54.806  1.00  0.00    -0.274 NA
HETATM    6  C4  UNL     1      20.826   0.499  54.630  1.00  0.00     0.205 A 
HETATM    7  S1  UNL     1      21.660   0.609  53.078  1.00  0.00    -0.090 SA
HETATM    8  O1  UNL     1      23.338   1.104  53.270  1.00  0.00     0.000 OA
HETATM    9  C5  UNL     1      23.766   2.235  52.611  1.00  0.00    -0.041 A 
HETATM   10  C6  UNL     1      24.576   1.203  52.491  1.00  0.00     0.044 A 
HETATM   11  C7  UNL     1      25.878   1.069  51.793  1.00  0.00     0.041 C 
HETATM   12  C8  UNL     1      26.276   2.405  51.247  1.00  0.00     0.119 C 
HETATM   13  N3  UNL     1      25.168   3.194  50.890  1.00  0.00    -0.402 N 
HETATM   14  C14 UNL     1      24.205   3.448  51.917  1.00  0.00     0.153 C 
ENDROOT
BRANCH  13  15
HETATM   15  C9  UNL     1      25.461   4.371  50.116  1.00  0.00     0.098 C 
HETATM   16  C10 UNL     1      24.431   4.834  49.165  1.00  0.00     0.036 C 
BRANCH  15  17
HETATM   17  C11 UNL     1      26.708   4.001  49.339  1.00  0.00    -0.001 C 
HETATM   18  C12 UNL     1      27.569   4.812  48.693  1.00  0.00     0.016 C 
BRANCH  18  19
HETATM   19  C13 UNL     1      27.659   6.299  48.480  1.00  0.00     0.107 C 
HETATM   20  N4  UNL     1      28.929   6.456  48.756  1.00  0.00    -0.312 NA
HETATM   21  H16 UNL     1      29.331   7.431  48.696  1.00  0.00     0.186 HD
ENDBRANCH  18  19
ENDBRANCH  15  17
ENDBRANCH  13  15
TORSDOF 3
ENDMDL
MODEL 4
REMARK VINA RESULT:      -7.1      2.573      6.673
REMARK  3 active torsions:
REMARK  status: ('A' for Active; 'I' for Inactive)
REMARK    1  A    between atoms: N3_13  and  C9_14 
REMARK    2  A    between atoms: C9_14  and  C11_16 
REMARK    3  A    between atoms: C12_17  and  C13_18 
ROOT
HETATM    1  C1  UNL     1      24.791   3.647  49.339  1.00  0.00     0.061 C 
HETATM    2  C2  UNL     1      24.890   4.083  50.603  1.00  0.00     0.025 C 
HETATM    3  N1  UNL     1      24.722   5.468  50.746  1.00  0.00    -0.260 NA
HETATM    4  C3  UNL     1      23.520   5.983  50.739  1.00  0.00     0.290 A 
HETATM    5  N2  UNL     1      22.105   5.877  50.653  1.00  0.00    -0.274 NA
HETATM    6  C4  UNL     1      21.445   5.163  51.481  1.00  0.00     0.205 A 
HETATM    7  S1  UNL     1      22.972   4.747  52.265  1.00  0.00    -0.090 SA
HETATM    8  O1  UNL     1      23.834   3.487  51.390  1.00  0.00     0.000 OA
HETATM    9  C5  UNL     1      24.159   2.329  52.062  1.00  0.00    -0.041 A 
HETATM   10  C6  UNL     1      25.149   2.839  51.358  1.00  0.00     0.044 A 
HETATM   11  C7  UNL     1      26.537   2.360  51.149  1.00  0.00     0.041 C 
HETATM   12  C8  UNL     1      26.699   1.033  51.822  1.00  0.00     0.119 C 
HETATM   13  N3  UNL     1      25.892   0.905  52.967  1.00  0.00    -0.402 N 
HETATM   14  C14 UNL     1      24.486   1.097  52.783  1.00  0.00     0.153 C 
ENDROOT
BRANCH  13  15
HETATM   15  C9  UNL     1      26.182  -0.219  53.816  1.00  0.00     0.098 C 
HETATM   16  C10 UNL     1      25.064  -0.795  54.588  1.00  0.00     0.036 C 
BRANCH  15  17
HETATM   17  C11 UNL     1      27.222   0.307  54.784  1.00  0.00    -0.001 C 
HETATM   18  C12 UNL     1      28.554   0.108  54.778  1.00  0.00     0.016 C 
BRANCH  18  19
HETATM   19  C13 UNL     1      29.503  -0.654  53.892  1.00  0.00     0.107 C 
HETATM   20  N4  UNL     1      30.182   0.360  53.421  1.00  0.00    -0.312 NA
HETATM   21  H16 UNL     1      30.962   0.158  52.737  1.00  0.00     0.186 HD
ENDBRANCH  18  19
ENDBRANCH  15  17
ENDBRANCH  13  15
TORSDOF 3
ENDMDL
MODEL 5
REMARK VINA RESULT:      -6.8      3.695      5.561
REMARK  3 active torsions:
REMARK  status: ('A' for Active; 'I' for Inactive)
REMARK    1  A    between atoms: N3_13  and  C9_14 
REMARK    2  A    between atoms: C9_14  and  C11_16 
REMARK    3  A    between atoms: C12_17  and  C13_18 
ROOT
HETATM    1  C1  UNL     1      26.171  -1.444  53.022  1.00  0.00     0.061 C 
HETATM    2  C2  UNL     1      25.781  -0.437  53.817  1.00  0.00     0.025 C 
HETATM    3  N1  UNL     1      26.641  -0.193  54.897  1.00  0.00    -0.260 NA
HETATM    4  C3  UNL     1      27.747   0.479  54.711  1.00  0.00     0.290 A 
HETATM    5  N2  UNL     1      28.667   1.188  53.892  1.00  0.00    -0.274 NA
HETATM    6  C4  UNL     1      28.305   2.227  53.242  1.00  0.00     0.205 A 
HETATM    7  S1  UNL     1      26.684   2.024  53.912  1.00  0.00    -0.090 SA
HETATM    8  O1  UNL     1      25.772   0.790  53.052  1.00  0.00     0.000 OA
HETATM    9  C5  UNL     1      24.566   1.142  52.487  1.00  0.00    -0.041 A 
HETATM   10  C6  UNL     1      24.530   0.019  53.175  1.00  0.00     0.044 A 
HETATM   11  C7  UNL     1      23.420  -0.934  53.416  1.00  0.00     0.041 C 
HETATM   12  C8  UNL     1      22.223  -0.494  52.632  1.00  0.00     0.119 C 
HETATM   13  N3  UNL     1      22.159   0.903  52.482  1.00  0.00    -0.402 N 
HETATM   14  C14 UNL     1      23.293   1.534  51.878  1.00  0.00     0.153 C 
ENDROOT
BRANCH  13  15
HETATM   15  C9  UNL     1      20.915   1.423  51.981  1.00  0.00     0.098 C 
HETATM   16  C10 UNL     1      20.425   2.689  52.559  1.00  0.00     0.036 C 
BRANCH  15  17
HETATM   17  C11 UNL     1      19.910   0.330  52.282  1.00  0.00    -0.001 C 
HETATM   18  C12 UNL     1      18.787   0.011  51.610  1.00  0.00     0.016 C 
BRANCH  18  19
HETATM   19  C13 UNL     1      18.102   0.551  50.384  1.00  0.00     0.107 C 
HETATM   20  N4  UNL     1      17.353   1.455  50.963  1.00  0.00    -0.312 NA
HETATM   21  H16 UNL     1      16.721   2.040  50.351  1.00  0.00     0.186 HD
ENDBRANCH  18  19
ENDBRANCH  15  17
ENDBRANCH  13  15
TORSDOF 3
ENDMDL
MODEL 6
REMARK VINA RESULT:      -6.8      4.666      6.795
REMARK  3 active torsions:
REMARK  status: ('A' for Active; 'I' for Inactive)
REMARK    1  A    between atoms: N3_13  and  C9_14 
REMARK    2  A    between atoms: C9_14  and  C11_16 
REMARK    3  A    between atoms: C12_17  and  C13_18 
ROOT
HETATM    1  C1  UNL     1      25.188   2.677  52.110  1.00  0.00     0.061 C 
HETATM    2  C2  UNL     1      25.027   1.353  51.974  1.00  0.00     0.025 C 
HETATM    3  N1  UNL     1      26.228   0.637  51.867  1.00  0.00    -0.260 NA
HETATM    4  C3  UNL     1      26.924   0.368  52.941  1.00  0.00     0.290 A 
HETATM    5  N2  UNL     1      27.146   0.420  54.344  1.00  0.00    -0.274 NA
HETATM    6  C4  UNL     1      26.296  -0.067  55.164  1.00  0.00     0.205 A 
HETATM    7  S1  UNL     1      25.299  -0.528  53.782  1.00  0.00    -0.090 SA
HETATM    8  O1  UNL     1      24.377   0.834  53.157  1.00  0.00     0.000 OA
HETATM    9  C5  UNL     1      23.006   0.723  53.095  1.00  0.00    -0.041 A 
HETATM   10  C6  UNL     1      23.557   1.199  51.998  1.00  0.00     0.044 A 
HETATM   11  C7  UNL     1      22.946   1.658  50.727  1.00  0.00     0.041 C 
HETATM   12  C8  UNL     1      21.455   1.609  50.859  1.00  0.00     0.119 C 
HETATM   13  N3  UNL     1      21.023   0.582  51.718  1.00  0.00    -0.402 N 
HETATM   14  C14 UNL     1      21.547   0.598  53.049  1.00  0.00     0.153 C 
ENDROOT
BRANCH  13  15
HETATM   15  C9  UNL     1      19.613   0.295  51.691  1.00  0.00     0.098 C 
HETATM   16  C10 UNL     1      18.688   1.440  51.591  1.00  0.00     0.036 C 
BRANCH  15  17
HETATM   17  C11 UNL     1      19.357  -0.424  53.000  1.00  0.00    -0.001 C 
HETATM   18  C12 UNL     1      18.283  -1.150  53.365  1.00  0.00     0.016 C 
BRANCH  18  19
HETATM   19  C13 UNL     1      16.989  -1.529  52.697  1.00  0.00     0.107 C 
HETATM   20  N4  UNL     1      16.196  -0.702  53.330  1.00  0.00    -0.312 NA
HETATM   21  H16 UNL     1      15.169  -0.714  53.082  1.00  0.00     0.186 HD
ENDBRANCH  18  19
ENDBRANCH  15  17
ENDBRANCH  13  15
TORSDOF 3
ENDMDL
MODEL 7
REMARK VINA RESULT:      -6.7      2.167      2.936
REMARK  3 active torsions:
REMARK  status: ('A' for Active; 'I' for Inactive)
REMARK    1  A    between atoms: N3_13  and  C9_14 
REMARK    2  A    between atoms: C9_14  and  C11_16 
REMARK    3  A    between atoms: C12_17  and  C13_18 
ROOT
HETATM    1  C1  UNL     1      27.625   1.909  52.717  1.00  0.00     0.061 C 
HETATM    2  C2  UNL     1      26.747   1.164  52.030  1.00  0.00     0.025 C 
HETATM    3  N1  UNL     1      26.973  -0.217  52.120  1.00  0.00    -0.260 NA
HETATM    4  C3  UNL     1      26.588  -0.873  53.183  1.00  0.00     0.290 A 
HETATM    5  N2  UNL     1      25.982  -0.947  54.467  1.00  0.00    -0.274 NA
HETATM    6  C4  UNL     1      24.771  -0.584  54.646  1.00  0.00     0.205 A 
HETATM    7  S1  UNL     1      24.686  -0.188  52.928  1.00  0.00    -0.090 SA
HETATM    8  O1  UNL     1      25.425   1.370  52.578  1.00  0.00     0.000 OA
HETATM    9  C5  UNL     1      24.658   2.335  51.963  1.00  0.00    -0.041 A 
HETATM   10  C6  UNL     1      25.854   2.180  51.433  1.00  0.00     0.044 A 
HETATM   11  C7  UNL     1      26.515   2.886  50.310  1.00  0.00     0.041 C 
HETATM   12  C8  UNL     1      25.622   3.990  49.837  1.00  0.00     0.119 C 
HETATM   13  N3  UNL     1      24.257   3.687  49.999  1.00  0.00    -0.402 N 
HETATM   14  C14 UNL     1      23.828   3.358  51.323  1.00  0.00     0.153 C 
ENDROOT
BRANCH  13  15
HETATM   15  C9  UNL     1      23.337   4.568  49.330  1.00  0.00     0.098 C 
HETATM   16  C10 UNL     1      22.729   4.090  48.073  1.00  0.00     0.036 C 
BRANCH  15  17
HETATM   17  C11 UNL     1      24.159   5.805  49.034  1.00  0.00    -0.001 C 
HETATM   18  C12 UNL     1      24.223   6.959  49.726  1.00  0.00     0.016 C 
BRANCH  18  19
HETATM   19  C13 UNL     1      23.568   7.475  50.979  1.00  0.00     0.107 C 
HETATM   20  N4  UNL     1      24.445   7.041  51.848  1.00  0.00    -0.312 NA
HETATM   21  H16 UNL     1      24.273   7.247  52.870  1.00  0.00     0.186 HD
ENDBRANCH  18  19
ENDBRANCH  15  17
ENDBRANCH  13  15
TORSDOF 3
ENDMDL
MODEL 8
REMARK VINA RESULT:      -6.5      3.043      7.267
REMARK  3 active torsions:
REMARK  status: ('A' for Active; 'I' for Inactive)
REMARK    1  A    between atoms: N3_13  and  C9_14 
REMARK    2  A    between atoms: C9_14  and  C11_16 
REMARK    3  A    between atoms: C12_17  and  C13_18 
ROOT
HETATM    1  C1  UNL     1      26.589   3.974  49.033  1.00  0.00     0.061 C 
HETATM    2  C2  UNL     1      25.875   4.440  50.067  1.00  0.00     0.025 C 
HETATM    3  N1  UNL     1      25.667   5.827  50.042  1.00  0.00    -0.260 NA
HETATM    4  C3  UNL     1      24.743   6.334  49.269  1.00  0.00     0.290 A 
HETATM    5  N2  UNL     1      23.696   6.217  48.315  1.00  0.00    -0.274 NA
HETATM    6  C4  UNL     1      22.655   5.518  48.560  1.00  0.00     0.205 A 
HETATM    7  S1  UNL     1      23.345   5.130  50.138  1.00  0.00    -0.090 SA
HETATM    8  O1  UNL     1      24.553   3.856  50.029  1.00  0.00     0.000 OA
HETATM    9  C5  UNL     1      24.373   2.717  50.782  1.00  0.00    -0.041 A 
HETATM   10  C6  UNL     1      25.590   3.216  50.845  1.00  0.00     0.044 A 
HETATM   11  C7  UNL     1      26.795   2.742  51.567  1.00  0.00     0.041 C 
HETATM   12  C8  UNL     1      26.485   1.432  52.221  1.00  0.00     0.119 C 
HETATM   13  N3  UNL     1      25.137   1.326  52.606  1.00  0.00    -0.402 N 
HETATM   14  C14 UNL     1      24.161   1.504  51.575  1.00  0.00     0.153 C 
ENDROOT
BRANCH  13  15
HETATM   15  C9  UNL     1      24.818   0.223  53.474  1.00  0.00     0.098 C 
HETATM   16  C10 UNL     1      25.782  -0.893  53.538  1.00  0.00     0.036 C 
BRANCH  15  17
HETATM   17  C11 UNL     1      23.502  -0.301  52.936  1.00  0.00    -0.001 C 
HETATM   18  C12 UNL     1      22.508  -0.921  53.602  1.00  0.00     0.016 C 
BRANCH  18  19
HETATM   19  C13 UNL     1      22.291  -1.326  55.035  1.00  0.00     0.107 C 
HETATM   20  N4  UNL     1      21.021  -1.635  54.957  1.00  0.00    -0.312 NA
HETATM   21  H16 UNL     1      20.540  -1.974  55.834  1.00  0.00     0.186 HD
ENDBRANCH  18  19
ENDBRANCH  15  17
ENDBRANCH  13  15
TORSDOF 3
ENDMDL
MODEL 9
REMARK VINA RESULT:      -6.5      2.439      4.040
REMARK  3 active torsions:
REMARK  status: ('A' for Active; 'I' for Inactive)
REMARK    1  A    between atoms: N3_13  and  C9_14 
REMARK    2  A    between atoms: C9_14  and  C11_16 
REMARK    3  A    between atoms: C12_17  and  C13_18 
ROOT
HETATM    1  C1  UNL     1      27.546   1.971  52.656  1.00  0.00     0.061 C 
HETATM    2  C2  UNL     1      26.667   1.184  52.019  1.00  0.00     0.025 C 
HETATM    3  N1  UNL     1      26.967  -0.184  52.089  1.00  0.00    -0.260 NA
HETATM    4  C3  UNL     1      26.679  -0.861  53.170  1.00  0.00     0.290 A 
HETATM    5  N2  UNL     1      26.155  -0.966  54.487  1.00  0.00    -0.274 NA
HETATM    6  C4  UNL     1      24.939  -0.665  54.740  1.00  0.00     0.205 A 
HETATM    7  S1  UNL     1      24.733  -0.271  53.031  1.00  0.00    -0.090 SA
HETATM    8  O1  UNL     1      25.371   1.323  52.646  1.00  0.00     0.000 OA
HETATM    9  C5  UNL     1      24.522   2.249  52.081  1.00  0.00    -0.041 A 
HETATM   10  C6  UNL     1      25.691   2.154  51.481  1.00  0.00     0.044 A 
HETATM   11  C7  UNL     1      26.248   2.895  50.323  1.00  0.00     0.041 C 
HETATM   12  C8  UNL     1      25.274   3.953  49.909  1.00  0.00     0.119 C 
HETATM   13  N3  UNL     1      23.939   3.582  50.150  1.00  0.00    -0.402 N 
HETATM   14  C14 UNL     1      23.605   3.230  51.496  1.00  0.00     0.153 C 
ENDROOT
BRANCH  13  15
HETATM   15  C9  UNL     1      22.937   4.417  49.541  1.00  0.00     0.098 C 
HETATM   16  C10 UNL     1      21.641   4.541  50.237  1.00  0.00     0.036 C 
BRANCH  15  17
HETATM   17  C11 UNL     1      22.702   3.783  48.185  1.00  0.00    -0.001 C 
HETATM   18  C12 UNL     1      22.206   2.563  47.901  1.00  0.00     0.016 C 
BRANCH  18  19
HETATM   19  C13 UNL     1      21.715   1.405  48.728  1.00  0.00     0.107 C 
HETATM   20  N4  UNL     1      20.429   1.580  48.559  1.00  0.00    -0.312 NA
HETATM   21  H16 UNL     1      19.772   0.900  49.031  1.00  0.00     0.186 HD
ENDBRANCH  18  19
ENDBRANCH  15  17
ENDBRANCH  13  15
TORSDOF 3
ENDMDL
