MODEL 1
REMARK VINA RESULT:      -6.8      0.000      0.000
REMARK  9 active torsions:
REMARK  status: ('A' for Active; 'I' for Inactive)
REMARK    1  A    between atoms: O1_2  and  C2_3 
REMARK    2  A    between atoms: C2_3  and  C3_4 
REMARK    3  A    between atoms: C4_5  and  C5_6 
REMARK    4  A    between atoms: C5_6  and  C6_7 
REMARK    5  A    between atoms: C5_6  and  C7_9 
REMARK    6  A    between atoms: C6_7  and  N1_8 
REMARK    7  A    between atoms: C7_9  and  N2_10 
REMARK    8  A    between atoms: C7_9  and  C8_11 
REMARK    9  A    between atoms: C7_9  and  C13_18 
ROOT
HETATM    1  C7  UNL     1      25.788   0.521  53.581  1.00  0.00     0.216 C 
ENDROOT
BRANCH   1   2
HETATM    2  C5  UNL     1      25.253   1.127  52.277  1.00  0.00     0.034 C 
BRANCH   2   3
HETATM    3  C4  UNL     1      24.717   1.740  50.965  1.00  0.00    -0.018 C 
HETATM    4  C3  UNL     1      23.712   2.584  51.091  1.00  0.00    -0.004 C 
BRANCH   4   5
HETATM    5  C2  UNL     1      22.774   3.284  51.994  1.00  0.00     0.194 C 
BRANCH   5   6
HETATM    6  O1  UNL     1      23.497   4.287  52.691  1.00  0.00    -0.392 OA
HETATM    7  C1  UNL     1      23.574   5.374  51.794  1.00  0.00     0.201 C 
ENDBRANCH   5   6
ENDBRANCH   4   5
ENDBRANCH   2   3
BRANCH   2   8
HETATM    8  C6  UNL     1      26.377   1.994  52.293  1.00  0.00     0.152 C 
BRANCH   8   9
HETATM    9  N1  UNL     1      27.433   2.912  51.957  1.00  0.00    -0.423 N 
HETATM   10  H9  UNL     1      26.763   3.517  51.432  1.00  0.00     0.150 HD
HETATM   11  H10 UNL     1      28.267   2.458  52.425  1.00  0.00     0.150 HD
ENDBRANCH   8   9
ENDBRANCH   2   8
ENDBRANCH   1   2
BRANCH   1  12
HETATM   12  N2  UNL     1      26.181   1.623  54.423  1.00  0.00     0.097 N 
HETATM   13  H11 UNL     1      26.286   2.525  53.972  1.00  0.00     0.314 HD
HETATM   14  H12 UNL     1      26.972   1.335  55.002  1.00  0.00     0.314 HD
ENDBRANCH   1  12
BRANCH   1  15
HETATM   15  C8  UNL     1      26.874  -0.445  53.323  1.00  0.00    -0.014 C 
HETATM   16  C9  UNL     1      28.137  -0.407  53.742  1.00  0.00     0.052 C 
HETATM   17  C10 UNL     1      29.180  -1.412  53.449  1.00  0.00     0.147 C 
HETATM   18  F1  UNL     1      30.479  -1.078  53.616  1.00  0.00    -0.204 F 
HETATM   19  C11 UNL     1      28.653  -2.552  53.045  1.00  0.00     0.121 C 
HETATM   20  N3  UNL     1      27.582  -2.582  52.389  1.00  0.00    -0.280 NA
HETATM   21  C12 UNL     1      26.526  -1.578  52.461  1.00  0.00     0.187 C 
ENDBRANCH   1  15
BRANCH   1  22
HETATM   22  C13 UNL     1      24.698  -0.268  54.269  1.00  0.00    -0.012 A 
HETATM   23  C14 UNL     1      24.769  -0.999  55.422  1.00  0.00     0.029 A 
HETATM   24  C15 UNL     1      23.679  -1.660  55.918  1.00  0.00     0.117 A 
HETATM   25  N4  UNL     1      22.484  -1.636  55.312  1.00  0.00    -0.273 NA
HETATM   26  C16 UNL     1      22.333  -0.933  54.163  1.00  0.00     0.117 A 
HETATM   27  C17 UNL     1      23.437  -0.271  53.674  1.00  0.00     0.029 A 
ENDBRANCH   1  22
TORSDOF 9
ENDMDL
MODEL 2
REMARK VINA RESULT:      -6.5      3.611      5.509
REMARK  9 active torsions:
REMARK  status: ('A' for Active; 'I' for Inactive)
REMARK    1  A    between atoms: O1_2  and  C2_3 
REMARK    2  A    between atoms: C2_3  and  C3_4 
REMARK    3  A    between atoms: C4_5  and  C5_6 
REMARK    4  A    between atoms: C5_6  and  C6_7 
REMARK    5  A    between atoms: C5_6  and  C7_9 
REMARK    6  A    between atoms: C6_7  and  N1_8 
REMARK    7  A    between atoms: C7_9  and  N2_10 
REMARK    8  A    between atoms: C7_9  and  C8_11 
REMARK    9  A    between atoms: C7_9  and  C13_18 
ROOT
HETATM    1  C7  UNL     1      23.623   3.792  50.866  1.00  0.00     0.216 C 
ENDROOT
BRANCH   1   2
HETATM    2  C5  UNL     1      24.377   4.780  49.966  1.00  0.00     0.034 C 
BRANCH   2   3
HETATM    3  C4  UNL     1      25.134   5.777  49.063  1.00  0.00    -0.018 C 
HETATM    4  C3  UNL     1      26.377   5.453  48.764  1.00  0.00    -0.004 C 
BRANCH   4   5
HETATM    5  C2  UNL     1      27.485   4.484  48.904  1.00  0.00     0.194 C 
BRANCH   5   6
HETATM    6  O1  UNL     1      28.648   5.055  48.323  1.00  0.00    -0.392 OA
HETATM    7  C1  UNL     1      28.349   6.426  48.174  1.00  0.00     0.201 C 
ENDBRANCH   5   6
ENDBRANCH   4   5
ENDBRANCH   2   3
BRANCH   2   8
HETATM    8  C6  UNL     1      24.294   5.714  51.031  1.00  0.00     0.152 C 
BRANCH   8   9
HETATM    9  N1  UNL     1      24.447   6.848  51.905  1.00  0.00    -0.423 N 
HETATM   10  H9  UNL     1      25.046   7.332  51.201  1.00  0.00     0.150 HD
HETATM   11  H10 UNL     1      23.876   6.548  52.745  1.00  0.00     0.150 HD
ENDBRANCH   8   9
ENDBRANCH   2   8
ENDBRANCH   1   2
BRANCH   1  12
HETATM   12  N2  UNL     1      22.681   4.564  51.637  1.00  0.00     0.097 N 
HETATM   13  H11 UNL     1      21.786   4.755  51.201  1.00  0.00     0.314 HD
HETATM   14  H12 UNL     1      23.157   5.382  52.024  1.00  0.00     0.314 HD
ENDBRANCH   1  12
BRANCH   1  15
HETATM   15  C8  UNL     1      24.552   2.994  51.692  1.00  0.00    -0.014 C 
HETATM   16  C9  UNL     1      25.540   2.196  51.295  1.00  0.00     0.052 C 
HETATM   17  C10 UNL     1      26.439   1.422  52.176  1.00  0.00     0.147 C 
HETATM   18  F1  UNL     1      27.141   0.390  51.656  1.00  0.00    -0.204 F 
HETATM   19  C11 UNL     1      26.420   1.885  53.412  1.00  0.00     0.121 C 
HETATM   20  N3  UNL     1      25.384   2.397  53.903  1.00  0.00    -0.280 NA
HETATM   21  C12 UNL     1      24.333   3.060  53.139  1.00  0.00     0.187 C 
ENDBRANCH   1  15
BRANCH   1  22
HETATM   22  C13 UNL     1      22.872   2.790  50.019  1.00  0.00    -0.012 A 
HETATM   23  C14 UNL     1      22.048   1.778  50.422  1.00  0.00     0.029 A 
HETATM   24  C15 UNL     1      21.436   0.952  49.518  1.00  0.00     0.117 A 
HETATM   25  N4  UNL     1      21.604   1.080  48.195  1.00  0.00    -0.273 NA
HETATM   26  C16 UNL     1      22.407   2.061  47.717  1.00  0.00     0.117 A 
HETATM   27  C17 UNL     1      23.017   2.887  48.635  1.00  0.00     0.029 A 
ENDBRANCH   1  22
TORSDOF 9
ENDMDL
MODEL 3
REMARK VINA RESULT:      -6.3      3.497      6.816
REMARK  9 active torsions:
REMARK  status: ('A' for Active; 'I' for Inactive)
REMARK    1  A    between atoms: O1_2  and  C2_3 
REMARK    2  A    between atoms: C2_3  and  C3_4 
REMARK    3  A    between atoms: C4_5  and  C5_6 
REMARK    4  A    between atoms: C5_6  and  C6_7 
REMARK    5  A    between atoms: C5_6  and  C7_9 
REMARK    6  A    between atoms: C6_7  and  N1_8 
REMARK    7  A    between atoms: C7_9  and  N2_10 
REMARK    8  A    between atoms: C7_9  and  C8_11 
REMARK    9  A    between atoms: C7_9  and  C13_18 
ROOT
HETATM    1  C7  UNL     1      24.581   2.488  51.943  1.00  0.00     0.216 C 
ENDROOT
BRANCH   1   2
HETATM    2  C5  UNL     1      25.478   1.244  51.943  1.00  0.00     0.034 C 
BRANCH   2   3
HETATM    3  C4  UNL     1      26.380  -0.009  51.946  1.00  0.00    -0.018 C 
HETATM    4  C3  UNL     1      27.321  -0.040  52.869  1.00  0.00    -0.004 C 
BRANCH   4   5
HETATM    5  C2  UNL     1      27.972   0.634  54.013  1.00  0.00     0.194 C 
BRANCH   5   6
HETATM    6  O1  UNL     1      28.699  -0.342  54.745  1.00  0.00    -0.392 OA
HETATM    7  C1  UNL     1      29.644  -0.857  53.833  1.00  0.00     0.201 C 
ENDBRANCH   5   6
ENDBRANCH   4   5
ENDBRANCH   2   3
BRANCH   2   8
HETATM    8  C6  UNL     1      24.617   0.701  52.932  1.00  0.00     0.152 C 
BRANCH   8   9
HETATM    9  N1  UNL     1      23.877  -0.165  53.812  1.00  0.00    -0.423 N 
HETATM   10  H9  UNL     1      24.171   0.397  54.641  1.00  0.00     0.150 HD
HETATM   11  H10 UNL     1      23.467  -0.862  53.128  1.00  0.00     0.150 HD
ENDBRANCH   8   9
ENDBRANCH   2   8
ENDBRANCH   1   2
BRANCH   1  12
HETATM   12  N2  UNL     1      24.613   3.027  53.279  1.00  0.00     0.097 N 
HETATM   13  H11 UNL     1      25.113   2.485  53.976  1.00  0.00     0.314 HD
HETATM   14  H12 UNL     1      23.668   3.310  53.549  1.00  0.00     0.314 HD
ENDBRANCH   1  12
BRANCH   1  15
HETATM   15  C8  UNL     1      23.220   2.175  51.462  1.00  0.00    -0.014 C 
HETATM   16  C9  UNL     1      22.858   1.520  50.362  1.00  0.00     0.052 C 
HETATM   17  C10 UNL     1      21.471   1.237  49.937  1.00  0.00     0.147 C 
HETATM   18  F1  UNL     1      21.235   0.899  48.649  1.00  0.00    -0.204 F 
HETATM   19  C11 UNL     1      20.623   1.362  50.939  1.00  0.00     0.121 C 
HETATM   20  N3  UNL     1      20.816   2.195  51.859  1.00  0.00    -0.280 NA
HETATM   21  C12 UNL     1      22.121   2.685  52.287  1.00  0.00     0.187 C 
ENDBRANCH   1  15
BRANCH   1  22
HETATM   22  C13 UNL     1      25.124   3.517  50.977  1.00  0.00    -0.012 A 
HETATM   23  C14 UNL     1      24.668   4.781  50.730  1.00  0.00     0.029 A 
HETATM   24  C15 UNL     1      25.280   5.596  49.816  1.00  0.00     0.117 A 
HETATM   25  N4  UNL     1      26.355   5.211  49.113  1.00  0.00    -0.273 NA
HETATM   26  C16 UNL     1      26.866   3.971  49.303  1.00  0.00     0.117 A 
HETATM   27  C17 UNL     1      26.242   3.160  50.224  1.00  0.00     0.029 A 
ENDBRANCH   1  22
TORSDOF 9
ENDMDL
MODEL 4
REMARK VINA RESULT:      -6.3      2.639      3.650
REMARK  9 active torsions:
REMARK  status: ('A' for Active; 'I' for Inactive)
REMARK    1  A    between atoms: O1_2  and  C2_3 
REMARK    2  A    between atoms: C2_3  and  C3_4 
REMARK    3  A    between atoms: C4_5  and  C5_6 
REMARK    4  A    between atoms: C5_6  and  C6_7 
REMARK    5  A    between atoms: C5_6  and  C7_9 
REMARK    6  A    between atoms: C6_7  and  N1_8 
REMARK    7  A    between atoms: C7_9  and  N2_10 
REMARK    8  A    between atoms: C7_9  and  C8_11 
REMARK    9  A    between atoms: C7_9  and  C13_18 
ROOT
HETATM    1  C7  UNL     1      23.968   2.699  52.178  1.00  0.00     0.216 C 
ENDROOT
BRANCH   1   2
HETATM    2  C5  UNL     1      23.874   2.883  50.658  1.00  0.00     0.034 C 
BRANCH   2   3
HETATM    3  C4  UNL     1      23.781   3.071  49.128  1.00  0.00    -0.018 C 
HETATM    4  C3  UNL     1      22.798   2.430  48.527  1.00  0.00    -0.004 C 
BRANCH   4   5
HETATM    5  C2  UNL     1      21.631   1.531  48.654  1.00  0.00     0.194 C 
BRANCH   5   6
HETATM    6  O1  UNL     1      20.523   2.154  48.021  1.00  0.00    -0.392 OA
HETATM    7  C1  UNL     1      19.995   3.036  48.988  1.00  0.00     0.201 C 
ENDBRANCH   5   6
ENDBRANCH   4   5
ENDBRANCH   2   3
BRANCH   2   8
HETATM    8  C6  UNL     1      24.812   3.939  50.792  1.00  0.00     0.152 C 
BRANCH   8   9
HETATM    9  N1  UNL     1      25.773   4.987  50.564  1.00  0.00    -0.423 N 
HETATM   10  H9  UNL     1      26.132   4.496  49.716  1.00  0.00     0.150 HD
HETATM   11  H10 UNL     1      25.568   5.642  51.370  1.00  0.00     0.150 HD
ENDBRANCH   8   9
ENDBRANCH   2   8
ENDBRANCH   1   2
BRANCH   1  12
HETATM   12  N2  UNL     1      23.944   4.017  52.760  1.00  0.00     0.097 N 
HETATM   13  H11 UNL     1      23.787   4.792  52.125  1.00  0.00     0.314 HD
HETATM   14  H12 UNL     1      24.750   4.123  53.380  1.00  0.00     0.314 HD
ENDBRANCH   1  12
BRANCH   1  15
HETATM   15  C8  UNL     1      25.155   1.905  52.555  1.00  0.00    -0.014 C 
HETATM   16  C9  UNL     1      25.647   0.816  51.970  1.00  0.00     0.052 C 
HETATM   17  C10 UNL     1      26.845   0.066  52.398  1.00  0.00     0.147 C 
HETATM   18  F1  UNL     1      27.021  -1.200  51.956  1.00  0.00    -0.204 F 
HETATM   19  C11 UNL     1      27.609   0.789  53.195  1.00  0.00     0.121 C 
HETATM   20  N3  UNL     1      27.119   1.643  53.974  1.00  0.00    -0.280 NA
HETATM   21  C12 UNL     1      25.864   2.354  53.757  1.00  0.00     0.187 C 
ENDBRANCH   1  15
BRANCH   1  22
HETATM   22  C13 UNL     1      22.778   1.911  52.678  1.00  0.00    -0.012 A 
HETATM   23  C14 UNL     1      22.764   0.757  53.410  1.00  0.00     0.029 A 
HETATM   24  C15 UNL     1      21.589   0.165  53.788  1.00  0.00     0.117 A 
HETATM   25  N4  UNL     1      20.391   0.672  53.468  1.00  0.00    -0.273 NA
HETATM   26  C16 UNL     1      20.323   1.815  52.743  1.00  0.00     0.117 A 
HETATM   27  C17 UNL     1      21.510   2.402  52.368  1.00  0.00     0.029 A 
ENDBRANCH   1  22
TORSDOF 9
ENDMDL
MODEL 5
REMARK VINA RESULT:      -6.3      1.844      2.358
REMARK  9 active torsions:
REMARK  status: ('A' for Active; 'I' for Inactive)
REMARK    1  A    between atoms: O1_2  and  C2_3 
REMARK    2  A    between atoms: C2_3  and  C3_4 
REMARK    3  A    between atoms: C4_5  and  C5_6 
REMARK    4  A    between atoms: C5_6  and  C6_7 
REMARK    5  A    between atoms: C5_6  and  C7_9 
REMARK    6  A    between atoms: C6_7  and  N1_8 
REMARK    7  A    between atoms: C7_9  and  N2_10 
REMARK    8  A    between atoms: C7_9  and  C8_11 
REMARK    9  A    between atoms: C7_9  and  C13_18 
ROOT
HETATM    1  C7  UNL     1      24.370   1.602  52.792  1.00  0.00     0.216 C 
ENDROOT
BRANCH   1   2
HETATM    2  C5  UNL     1      24.277   2.038  51.324  1.00  0.00     0.034 C 
BRANCH   2   3
HETATM    3  C4  UNL     1      24.186   2.479  49.847  1.00  0.00    -0.018 C 
HETATM    4  C3  UNL     1      23.418   3.523  49.604  1.00  0.00    -0.004 C 
BRANCH   4   5
HETATM    5  C2  UNL     1      22.521   4.567  50.143  1.00  0.00     0.194 C 
BRANCH   5   6
HETATM    6  O1  UNL     1      22.930   4.858  51.471  1.00  0.00    -0.392 OA
HETATM    7  C1  UNL     1      23.820   5.947  51.351  1.00  0.00     0.201 C 
ENDBRANCH   5   6
ENDBRANCH   4   5
ENDBRANCH   2   3
BRANCH   2   8
HETATM    8  C6  UNL     1      25.543   2.657  51.494  1.00  0.00     0.152 C 
BRANCH   8   9
HETATM    9  N1  UNL     1      26.841   3.250  51.303  1.00  0.00    -0.423 N 
HETATM   10  H9  UNL     1      27.297   2.313  51.364  1.00  0.00     0.150 HD
HETATM   11  H10 UNL     1      26.594   4.276  51.212  1.00  0.00     0.150 HD
ENDBRANCH   8   9
ENDBRANCH   2   8
ENDBRANCH   1   2
BRANCH   1  12
HETATM   12  N2  UNL     1      24.570   2.797  53.571  1.00  0.00     0.097 N 
HETATM   13  H11 UNL     1      24.527   3.679  53.071  1.00  0.00     0.314 HD
HETATM   14  H12 UNL     1      25.395   2.677  54.163  1.00  0.00     0.314 HD
ENDBRANCH   1  12
BRANCH   1  15
HETATM   15  C8  UNL     1      25.422   0.583  52.989  1.00  0.00    -0.014 C 
HETATM   16  C9  UNL     1      25.710  -0.471  52.230  1.00  0.00     0.052 C 
HETATM   17  C10 UNL     1      26.781  -1.457  52.482  1.00  0.00     0.147 C 
HETATM   18  F1  UNL     1      26.733  -2.654  51.856  1.00  0.00    -0.204 F 
HETATM   19  C11 UNL     1      27.677  -0.990  53.331  1.00  0.00     0.121 C 
HETATM   20  N3  UNL     1      27.358  -0.195  54.248  1.00  0.00    -0.280 NA
HETATM   21  C12 UNL     1      26.231   0.731  54.202  1.00  0.00     0.187 C 
ENDBRANCH   1  15
BRANCH   1  22
HETATM   22  C13 UNL     1      23.080   0.939  53.217  1.00  0.00    -0.012 A 
HETATM   23  C14 UNL     1      22.905  -0.172  53.993  1.00  0.00     0.029 A 
HETATM   24  C15 UNL     1      21.656  -0.647  54.291  1.00  0.00     0.117 A 
HETATM   25  N4  UNL     1      20.537  -0.060  53.845  1.00  0.00    -0.273 NA
HETATM   26  C16 UNL     1      20.628   1.047  53.069  1.00  0.00     0.117 A 
HETATM   27  C17 UNL     1      21.889   1.516  52.777  1.00  0.00     0.029 A 
ENDBRANCH   1  22
TORSDOF 9
ENDMDL
MODEL 6
REMARK VINA RESULT:      -6.3      3.373      6.603
REMARK  9 active torsions:
REMARK  status: ('A' for Active; 'I' for Inactive)
REMARK    1  A    between atoms: O1_2  and  C2_3 
REMARK    2  A    between atoms: C2_3  and  C3_4 
REMARK    3  A    between atoms: C4_5  and  C5_6 
REMARK    4  A    between atoms: C5_6  and  C6_7 
REMARK    5  A    between atoms: C5_6  and  C7_9 
REMARK    6  A    between atoms: C6_7  and  N1_8 
REMARK    7  A    between atoms: C7_9  and  N2_10 
REMARK    8  A    between atoms: C7_9  and  C8_11 
REMARK    9  A    between atoms: C7_9  and  C13_18 
ROOT
HETATM    1  C7  UNL     1      24.620   2.710  51.861  1.00  0.00     0.216 C 
ENDROOT
BRANCH   1   2
HETATM    2  C5  UNL     1      25.394   1.410  52.115  1.00  0.00     0.034 C 
BRANCH   2   3
HETATM    3  C4  UNL     1      26.176   0.104  52.372  1.00  0.00    -0.018 C 
HETATM    4  C3  UNL     1      25.751  -0.633  53.379  1.00  0.00    -0.004 C 
BRANCH   4   5
HETATM    5  C2  UNL     1      24.778  -0.805  54.478  1.00  0.00     0.194 C 
BRANCH   5   6
HETATM    6  O1  UNL     1      23.475  -0.838  53.914  1.00  0.00    -0.392 OA
HETATM    7  C1  UNL     1      22.624  -1.207  54.977  1.00  0.00     0.201 C 
ENDBRANCH   5   6
ENDBRANCH   4   5
ENDBRANCH   2   3
BRANCH   2   8
HETATM    8  C6  UNL     1      26.177   2.135  53.051  1.00  0.00     0.152 C 
BRANCH   8   9
HETATM    9  N1  UNL     1      27.230   2.633  53.897  1.00  0.00    -0.423 N 
HETATM   10  H9  UNL     1      27.712   1.708  53.872  1.00  0.00     0.150 HD
HETATM   11  H10 UNL     1      26.918   3.633  54.057  1.00  0.00     0.150 HD
ENDBRANCH   8   9
ENDBRANCH   2   8
ENDBRANCH   1   2
BRANCH   1  12
HETATM   12  N2  UNL     1      24.581   3.424  53.112  1.00  0.00     0.097 N 
HETATM   13  H11 UNL     1      23.866   4.137  53.207  1.00  0.00     0.314 HD
HETATM   14  H12 UNL     1      25.527   3.726  53.354  1.00  0.00     0.314 HD
ENDBRANCH   1  12
BRANCH   1  15
HETATM   15  C8  UNL     1      23.285   2.443  51.289  1.00  0.00    -0.014 C 
HETATM   16  C9  UNL     1      22.972   1.751  50.196  1.00  0.00     0.052 C 
HETATM   17  C10 UNL     1      21.609   1.518  49.676  1.00  0.00     0.147 C 
HETATM   18  F1  UNL     1      21.455   1.126  48.391  1.00  0.00    -0.204 F 
HETATM   19  C11 UNL     1      20.695   1.739  50.600  1.00  0.00     0.121 C 
HETATM   20  N3  UNL     1      20.862   2.608  51.492  1.00  0.00    -0.280 NA
HETATM   21  C12 UNL     1      22.156   3.051  51.998  1.00  0.00     0.187 C 
ENDBRANCH   1  15
BRANCH   1  22
HETATM   22  C13 UNL     1      25.341   3.549  50.830  1.00  0.00    -0.012 A 
HETATM   23  C14 UNL     1      26.391   3.200  50.028  1.00  0.00     0.029 A 
HETATM   24  C15 UNL     1      26.934   4.085  49.136  1.00  0.00     0.117 A 
HETATM   25  N4  UNL     1      26.477   5.337  48.994  1.00  0.00    -0.273 NA
HETATM   26  C16 UNL     1      25.438   5.758  49.756  1.00  0.00     0.117 A 
HETATM   27  C17 UNL     1      24.899   4.859  50.649  1.00  0.00     0.029 A 
ENDBRANCH   1  22
TORSDOF 9
ENDMDL
MODEL 7
REMARK VINA RESULT:      -6.2      3.013      5.804
REMARK  9 active torsions:
REMARK  status: ('A' for Active; 'I' for Inactive)
REMARK    1  A    between atoms: O1_2  and  C2_3 
REMARK    2  A    between atoms: C2_3  and  C3_4 
REMARK    3  A    between atoms: C4_5  and  C5_6 
REMARK    4  A    between atoms: C5_6  and  C6_7 
REMARK    5  A    between atoms: C5_6  and  C7_9 
REMARK    6  A    between atoms: C6_7  and  N1_8 
REMARK    7  A    between atoms: C7_9  and  N2_10 
REMARK    8  A    between atoms: C7_9  and  C8_11 
REMARK    9  A    between atoms: C7_9  and  C13_18 
ROOT
HETATM    1  C7  UNL     1      23.916   1.879  52.391  1.00  0.00     0.216 C 
ENDROOT
BRANCH   1   2
HETATM    2  C5  UNL     1      25.156   1.024  52.098  1.00  0.00     0.034 C 
BRANCH   2   3
HETATM    3  C4  UNL     1      26.405   0.167  51.802  1.00  0.00    -0.018 C 
HETATM    4  C3  UNL     1      27.158  -0.133  52.842  1.00  0.00    -0.004 C 
BRANCH   4   5
HETATM    5  C2  UNL     1      27.378  -0.020  54.299  1.00  0.00     0.194 C 
BRANCH   5   6
HETATM    6  O1  UNL     1      27.746   1.320  54.588  1.00  0.00    -0.392 OA
HETATM    7  C1  UNL     1      29.052   1.462  54.071  1.00  0.00     0.201 C 
ENDBRANCH   5   6
ENDBRANCH   4   5
ENDBRANCH   2   3
BRANCH   2   8
HETATM    8  C6  UNL     1      25.845   2.233  51.818  1.00  0.00     0.152 C 
BRANCH   8   9
HETATM    9  N1  UNL     1      26.794   3.231  51.400  1.00  0.00    -0.423 N 
HETATM   10  H9  UNL     1      27.585   2.568  51.556  1.00  0.00     0.150 HD
HETATM   11  H10 UNL     1      26.159   4.049  51.177  1.00  0.00     0.150 HD
ENDBRANCH   8   9
ENDBRANCH   2   8
ENDBRANCH   1   2
BRANCH   1  12
HETATM   12  N2  UNL     1      24.357   2.994  53.190  1.00  0.00     0.097 N 
HETATM   13  H11 UNL     1      24.157   2.949  54.183  1.00  0.00     0.314 HD
HETATM   14  H12 UNL     1      24.078   3.865  52.732  1.00  0.00     0.314 HD
ENDBRANCH   1  12
BRANCH   1  15
HETATM   15  C8  UNL     1      22.846   1.082  53.023  1.00  0.00    -0.014 C 
HETATM   16  C9  UNL     1      22.922  -0.132  53.562  1.00  0.00     0.052 C 
HETATM   17  C10 UNL     1      21.808  -0.878  54.184  1.00  0.00     0.147 C 
HETATM   18  F1  UNL     1      21.927  -2.214  54.354  1.00  0.00    -0.204 F 
HETATM   19  C11 UNL     1      20.807  -0.079  54.498  1.00  0.00     0.121 C 
HETATM   20  N3  UNL     1      20.545   0.942  53.815  1.00  0.00    -0.280 NA
HETATM   21  C12 UNL     1      21.514   1.694  53.025  1.00  0.00     0.187 C 
ENDBRANCH   1  15
BRANCH   1  22
HETATM   22  C13 UNL     1      23.326   2.395  51.097  1.00  0.00    -0.012 A 
HETATM   23  C14 UNL     1      22.823   1.684  50.044  1.00  0.00     0.029 A 
HETATM   24  C15 UNL     1      22.319   2.309  48.936  1.00  0.00     0.117 A 
HETATM   25  N4  UNL     1      22.287   3.643  48.812  1.00  0.00    -0.273 NA
HETATM   26  C16 UNL     1      22.768   4.416  49.815  1.00  0.00     0.117 A 
HETATM   27  C17 UNL     1      23.273   3.777  50.926  1.00  0.00     0.029 A 
ENDBRANCH   1  22
TORSDOF 9
ENDMDL
MODEL 8
REMARK VINA RESULT:      -6.2      2.536      4.595
REMARK  9 active torsions:
REMARK  status: ('A' for Active; 'I' for Inactive)
REMARK    1  A    between atoms: O1_2  and  C2_3 
REMARK    2  A    between atoms: C2_3  and  C3_4 
REMARK    3  A    between atoms: C4_5  and  C5_6 
REMARK    4  A    between atoms: C5_6  and  C6_7 
REMARK    5  A    between atoms: C5_6  and  C7_9 
REMARK    6  A    between atoms: C6_7  and  N1_8 
REMARK    7  A    between atoms: C7_9  and  N2_10 
REMARK    8  A    between atoms: C7_9  and  C8_11 
REMARK    9  A    between atoms: C7_9  and  C13_18 
ROOT
HETATM    1  C7  UNL     1      24.239   1.323  52.611  1.00  0.00     0.216 C 
ENDROOT
BRANCH   1   2
HETATM    2  C5  UNL     1      24.194   2.822  52.937  1.00  0.00     0.034 C 
BRANCH   2   3
HETATM    3  C4  UNL     1      24.150   4.330  53.264  1.00  0.00    -0.018 C 
HETATM    4  C3  UNL     1      23.176   5.015  52.697  1.00  0.00    -0.004 C 
BRANCH   4   5
HETATM    5  C2  UNL     1      21.992   5.004  51.813  1.00  0.00     0.194 C 
BRANCH   5   6
HETATM    6  O1  UNL     1      22.435   4.771  50.484  1.00  0.00    -0.392 OA
HETATM    7  C1  UNL     1      21.770   3.595  50.076  1.00  0.00     0.201 C 
ENDBRANCH   5   6
ENDBRANCH   4   5
ENDBRANCH   2   3
BRANCH   2   8
HETATM    8  C6  UNL     1      25.160   3.009  51.915  1.00  0.00     0.152 C 
BRANCH   8   9
HETATM    9  N1  UNL     1      26.199   3.512  51.055  1.00  0.00    -0.423 N 
HETATM   10  H9  UNL     1      26.581   4.097  51.830  1.00  0.00     0.150 HD
HETATM   11  H10 UNL     1      25.984   3.011  50.146  1.00  0.00     0.150 HD
ENDBRANCH   8   9
ENDBRANCH   2   8
ENDBRANCH   1   2
BRANCH   1  12
HETATM   12  N2  UNL     1      24.290   1.210  51.175  1.00  0.00     0.097 N 
HETATM   13  H11 UNL     1      25.116   0.771  50.782  1.00  0.00     0.314 HD
HETATM   14  H12 UNL     1      24.040   2.110  50.760  1.00  0.00     0.314 HD
ENDBRANCH   1  12
BRANCH   1  15
HETATM   15  C8  UNL     1      23.106   0.601  53.223  1.00  0.00    -0.014 C 
HETATM   16  C9  UNL     1      23.125  -0.523  53.936  1.00  0.00     0.052 C 
HETATM   17  C10 UNL     1      21.950  -1.197  54.525  1.00  0.00     0.147 C 
HETATM   18  F1  UNL     1      22.055  -2.493  54.899  1.00  0.00    -0.204 F 
HETATM   19  C11 UNL     1      20.914  -0.384  54.603  1.00  0.00     0.121 C 
HETATM   20  N3  UNL     1      20.729   0.523  53.754  1.00  0.00    -0.280 NA
HETATM   21  C12 UNL     1      21.780   1.176  52.982  1.00  0.00     0.187 C 
ENDBRANCH   1  15
BRANCH   1  22
HETATM   22  C13 UNL     1      25.484   0.703  53.204  1.00  0.00    -0.012 A 
HETATM   23  C14 UNL     1      26.075   0.959  54.409  1.00  0.00     0.029 A 
HETATM   24  C15 UNL     1      27.209   0.302  54.803  1.00  0.00     0.117 A 
HETATM   25  N4  UNL     1      27.808  -0.623  54.040  1.00  0.00    -0.273 NA
HETATM   26  C16 UNL     1      27.282  -0.931  52.830  1.00  0.00     0.117 A 
HETATM   27  C17 UNL     1      26.140  -0.265  52.445  1.00  0.00     0.029 A 
ENDBRANCH   1  22
TORSDOF 9
ENDMDL
MODEL 9
REMARK VINA RESULT:      -6.2      2.298      3.047
REMARK  9 active torsions:
REMARK  status: ('A' for Active; 'I' for Inactive)
REMARK    1  A    between atoms: O1_2  and  C2_3 
REMARK    2  A    between atoms: C2_3  and  C3_4 
REMARK    3  A    between atoms: C4_5  and  C5_6 
REMARK    4  A    between atoms: C5_6  and  C6_7 
REMARK    5  A    between atoms: C5_6  and  C7_9 
REMARK    6  A    between atoms: C6_7  and  N1_8 
REMARK    7  A    between atoms: C7_9  and  N2_10 
REMARK    8  A    between atoms: C7_9  and  C8_11 
REMARK    9  A    between atoms: C7_9  and  C13_18 
ROOT
HETATM    1  C7  UNL     1      25.121   1.825  52.419  1.00  0.00     0.216 C 
ENDROOT
BRANCH   1   2
HETATM    2  C5  UNL     1      25.794   2.474  51.202  1.00  0.00     0.034 C 
BRANCH   2   3
HETATM    3  C4  UNL     1      26.474   3.127  49.980  1.00  0.00    -0.018 C 
HETATM    4  C3  UNL     1      25.941   4.257  49.559  1.00  0.00    -0.004 C 
BRANCH   4   5
HETATM    5  C2  UNL     1      24.896   5.287  49.735  1.00  0.00     0.194 C 
BRANCH   5   6
HETATM    6  O1  UNL     1      25.481   6.405  50.387  1.00  0.00    -0.392 OA
HETATM    7  C1  UNL     1      24.391   7.193  50.814  1.00  0.00     0.201 C 
ENDBRANCH   5   6
ENDBRANCH   4   5
ENDBRANCH   2   3
BRANCH   2   8
HETATM    8  C6  UNL     1      26.971   2.577  51.989  1.00  0.00     0.152 C 
BRANCH   8   9
HETATM    9  N1  UNL     1      28.249   2.940  52.543  1.00  0.00    -0.423 N 
HETATM   10  H9  UNL     1      28.480   3.497  51.690  1.00  0.00     0.150 HD
HETATM   11  H10 UNL     1      28.224   2.445  53.479  1.00  0.00     0.150 HD
ENDBRANCH   8   9
ENDBRANCH   2   8
ENDBRANCH   1   2
BRANCH   1  12
HETATM   12  N2  UNL     1      25.008   2.848  53.428  1.00  0.00     0.097 N 
HETATM   13  H11 UNL     1      25.823   3.434  53.575  1.00  0.00     0.314 HD
HETATM   14  H12 UNL     1      24.611   2.439  54.276  1.00  0.00     0.314 HD
ENDBRANCH   1  12
BRANCH   1  15
HETATM   15  C8  UNL     1      25.856   0.626  52.870  1.00  0.00    -0.014 C 
HETATM   16  C9  UNL     1      26.202  -0.449  52.167  1.00  0.00     0.052 C 
HETATM   17  C10 UNL     1      26.942  -1.621  52.679  1.00  0.00     0.147 C 
HETATM   18  F1  UNL     1      26.908  -2.777  51.979  1.00  0.00    -0.204 F 
HETATM   19  C11 UNL     1      27.562  -1.344  53.810  1.00  0.00     0.121 C 
HETATM   20  N3  UNL     1      27.090  -0.520  54.631  1.00  0.00    -0.280 NA
HETATM   21  C12 UNL     1      26.218   0.599  54.289  1.00  0.00     0.187 C 
ENDBRANCH   1  15
BRANCH   1  22
HETATM   22  C13 UNL     1      23.739   1.338  52.046  1.00  0.00    -0.012 A 
HETATM   23  C14 UNL     1      22.883   0.559  52.772  1.00  0.00     0.029 A 
HETATM   24  C15 UNL     1      21.654   0.204  52.287  1.00  0.00     0.117 A 
HETATM   25  N4  UNL     1      21.214   0.592  51.082  1.00  0.00    -0.273 NA
HETATM   26  C16 UNL     1      22.007   1.366  50.302  1.00  0.00     0.117 A 
HETATM   27  C17 UNL     1      23.241   1.718  50.800  1.00  0.00     0.029 A 
ENDBRANCH   1  22
TORSDOF 9
ENDMDL
