MODEL 1
REMARK VINA RESULT:      -8.6      0.000      0.000
REMARK  4 active torsions:
REMARK  status: ('A' for Active; 'I' for Inactive)
REMARK    1  A    between atoms: C3_3  and  C4_4 
REMARK       I    between atoms: C4_4  and  N1_6 
REMARK    2  A    between atoms: C11_16  and  N4_17 
REMARK    3  A    between atoms: N4_17  and  C12_18 
REMARK    4  A    between atoms: C12_18  and  O2_19 
ROOT
HETATM    1  C1  UNL     1      31.955   0.159  46.700  1.00  0.00     0.112 C 
HETATM    2  C2  UNL     1      32.673   1.364  47.054  1.00  0.00    -0.101 C 
HETATM    3  C3  UNL     1      33.286   2.365  47.341  1.00  0.00    -0.006 C 
ENDROOT
BRANCH   3   4
HETATM    4  C4  UNL     1      34.005   3.565  47.687  1.00  0.00     0.298 C 
HETATM    5  O1  UNL     1      35.272   3.515  47.615  1.00  0.00    -0.258 OA
HETATM    6  N1  UNL     1      33.297   4.735  48.085  1.00  0.00    -0.336 N 
HETATM    7  C5  UNL     1      31.872   4.953  48.216  1.00  0.00     0.132 C 
HETATM    8  C19 UNL     1      34.116   5.914  48.420  1.00  0.00     0.173 C 
HETATM    9  C6  UNL     1      31.643   5.995  49.334  1.00  0.00     0.060 C 
HETATM   10  C7  UNL     1      31.913   7.308  48.737  1.00  0.00    -0.025 A 
HETATM   11  C8  UNL     1      33.311   7.168  48.261  1.00  0.00     0.010 A 
HETATM   12  C18 UNL     1      31.381   8.536  48.480  1.00  0.00     0.053 A 
HETATM   13  S1  UNL     1      33.674   8.750  47.534  1.00  0.00    -0.072 SA
HETATM   14  C9  UNL     1      32.127   9.499  47.840  1.00  0.00     0.114 A 
HETATM   15  N2  UNL     1      31.714  10.713  47.543  1.00  0.00    -0.234 NA
HETATM   16  C10 UNL     1      30.476  11.115  47.861  1.00  0.00     0.236 A 
HETATM   17  N3  UNL     1      29.758  10.197  48.473  1.00  0.00    -0.224 NA
HETATM   18  C11 UNL     1      30.118   8.953  48.801  1.00  0.00     0.141 A 
BRANCH  18  19
HETATM   19  N4  UNL     1      29.129   8.177  49.459  1.00  0.00    -0.339 N 
HETATM   20  H9  UNL     1      28.902   7.895  50.422  1.00  0.00     0.164 HD
BRANCH  19  21
HETATM   21  C12 UNL     1      28.077   7.548  48.673  1.00  0.00     0.155 A 
HETATM   22  C13 UNL     1      26.783   7.564  49.367  1.00  0.00     0.033 A 
HETATM   23  C14 UNL     1      25.856   6.669  49.666  1.00  0.00     0.000 A 
HETATM   24  C15 UNL     1      26.154   5.294  49.208  1.00  0.00    -0.004 A 
HETATM   25  C16 UNL     1      27.313   5.242  48.579  1.00  0.00    -0.022 A 
HETATM   26  C17 UNL     1      28.395   6.166  48.202  1.00  0.00     0.092 A 
BRANCH  21  27
HETATM   27  O2  UNL     1      27.931   8.322  47.481  1.00  0.00    -0.367 OA
HETATM   28  H10 UNL     1      28.309   7.839  46.722  1.00  0.00     0.213 HD
ENDBRANCH  21  27
ENDBRANCH  19  21
ENDBRANCH  18  19
ENDBRANCH   3   4
TORSDOF 4
ENDMDL
MODEL 2
REMARK VINA RESULT:      -8.2      7.348     10.757
REMARK  4 active torsions:
REMARK  status: ('A' for Active; 'I' for Inactive)
REMARK    1  A    between atoms: C3_3  and  C4_4 
REMARK       I    between atoms: C4_4  and  N1_6 
REMARK    2  A    between atoms: C11_16  and  N4_17 
REMARK    3  A    between atoms: N4_17  and  C12_18 
REMARK    4  A    between atoms: C12_18  and  O2_19 
ROOT
HETATM    1  C1  UNL     1      28.734   5.726  48.192  1.00  0.00     0.112 C 
HETATM    2  C2  UNL     1      27.353   5.556  48.588  1.00  0.00    -0.101 C 
HETATM    3  C3  UNL     1      26.196   5.413  48.903  1.00  0.00    -0.006 C 
ENDROOT
BRANCH   3   4
HETATM    4  C4  UNL     1      24.820   5.240  49.292  1.00  0.00     0.298 C 
HETATM    5  O1  UNL     1      23.958   5.949  48.685  1.00  0.00    -0.258 OA
HETATM    6  N1  UNL     1      24.474   4.308  50.313  1.00  0.00    -0.336 N 
HETATM    7  C5  UNL     1      25.325   3.435  51.093  1.00  0.00     0.132 C 
HETATM    8  C19 UNL     1      23.041   4.199  50.644  1.00  0.00     0.173 C 
HETATM    9  C6  UNL     1      24.673   3.235  52.479  1.00  0.00     0.060 C 
HETATM   10  C7  UNL     1      23.611   2.239  52.296  1.00  0.00    -0.025 A 
HETATM   11  C8  UNL     1      22.751   2.865  51.262  1.00  0.00     0.010 A 
HETATM   12  C18 UNL     1      23.152   1.023  52.709  1.00  0.00     0.053 A 
HETATM   13  S1  UNL     1      21.446   1.683  51.019  1.00  0.00    -0.072 SA
HETATM   14  C9  UNL     1      22.000   0.495  52.174  1.00  0.00     0.114 A 
HETATM   15  N2  UNL     1      21.469  -0.664  52.498  1.00  0.00    -0.234 NA
HETATM   16  C10 UNL     1      22.044  -1.451  53.418  1.00  0.00     0.236 A 
HETATM   17  N3  UNL     1      23.148  -0.950  53.932  1.00  0.00    -0.224 NA
HETATM   18  C11 UNL     1      23.735   0.216  53.647  1.00  0.00     0.141 A 
BRANCH  18  19
HETATM   19  N4  UNL     1      24.929   0.498  54.360  1.00  0.00    -0.339 N 
HETATM   20  H9  UNL     1      25.218   1.083  55.155  1.00  0.00     0.164 HD
BRANCH  19  21
HETATM   21  C12 UNL     1      26.166  -0.161  53.966  1.00  0.00     0.155 A 
HETATM   22  C13 UNL     1      27.252   0.083  54.925  1.00  0.00     0.033 A 
HETATM   23  C14 UNL     1      28.504   0.502  54.853  1.00  0.00     0.000 A 
HETATM   24  C15 UNL     1      28.972   0.817  53.485  1.00  0.00    -0.004 A 
HETATM   25  C16 UNL     1      28.020   0.609  52.595  1.00  0.00    -0.022 A 
HETATM   26  C17 UNL     1      26.621   0.151  52.578  1.00  0.00     0.092 A 
BRANCH  21  27
HETATM   27  O2  UNL     1      25.906  -1.565  53.965  1.00  0.00    -0.367 OA
HETATM   28  H10 UNL     1      24.955  -1.728  54.106  1.00  0.00     0.213 HD
ENDBRANCH  21  27
ENDBRANCH  19  21
ENDBRANCH  18  19
ENDBRANCH   3   4
TORSDOF 4
ENDMDL
MODEL 3
REMARK VINA RESULT:      -8.2      8.916     12.649
REMARK  4 active torsions:
REMARK  status: ('A' for Active; 'I' for Inactive)
REMARK    1  A    between atoms: C3_3  and  C4_4 
REMARK       I    between atoms: C4_4  and  N1_6 
REMARK    2  A    between atoms: C11_16  and  N4_17 
REMARK    3  A    between atoms: N4_17  and  C12_18 
REMARK    4  A    between atoms: C12_18  and  O2_19 
ROOT
HETATM    1  C1  UNL     1      16.206  -0.600  49.106  1.00  0.00     0.112 C 
HETATM    2  C2  UNL     1      16.895  -0.572  50.379  1.00  0.00    -0.101 C 
HETATM    3  C3  UNL     1      17.465  -0.564  51.444  1.00  0.00    -0.006 C 
ENDROOT
BRANCH   3   4
HETATM    4  C4  UNL     1      18.152  -0.543  52.709  1.00  0.00     0.298 C 
HETATM    5  O1  UNL     1      17.484  -0.893  53.731  1.00  0.00    -0.258 OA
HETATM    6  N1  UNL     1      19.519  -0.145  52.778  1.00  0.00    -0.336 N 
HETATM    7  C5  UNL     1      20.412   0.277  51.720  1.00  0.00     0.132 C 
HETATM    8  C19 UNL     1      20.138  -0.154  54.116  1.00  0.00     0.173 C 
HETATM    9  C6  UNL     1      21.428   1.279  52.314  1.00  0.00     0.060 C 
HETATM   10  C7  UNL     1      22.437   0.476  53.014  1.00  0.00    -0.025 A 
HETATM   11  C8  UNL     1      21.627  -0.283  53.998  1.00  0.00     0.010 A 
HETATM   12  C18 UNL     1      23.769   0.194  53.088  1.00  0.00     0.053 A 
HETATM   13  S1  UNL     1      22.824  -1.265  54.871  1.00  0.00    -0.072 SA
HETATM   14  C9  UNL     1      24.239  -0.714  54.008  1.00  0.00     0.114 A 
HETATM   15  N2  UNL     1      25.499  -1.059  54.165  1.00  0.00    -0.234 NA
HETATM   16  C10 UNL     1      26.460  -0.523  53.400  1.00  0.00     0.236 A 
HETATM   17  N3  UNL     1      26.014   0.346  52.517  1.00  0.00    -0.224 NA
HETATM   18  C11 UNL     1      24.754   0.738  52.309  1.00  0.00     0.141 A 
BRANCH  18  19
HETATM   19  N4  UNL     1      24.566   1.695  51.278  1.00  0.00    -0.339 N 
HETATM   20  H9  UNL     1      24.209   1.711  50.314  1.00  0.00     0.164 HD
BRANCH  19  21
HETATM   21  C12 UNL     1      24.935   3.082  51.519  1.00  0.00     0.155 A 
HETATM   22  C13 UNL     1      24.132   3.691  52.587  1.00  0.00     0.033 A 
HETATM   23  C14 UNL     1      23.418   4.796  52.723  1.00  0.00     0.000 A 
HETATM   24  C15 UNL     1      23.392   5.667  51.527  1.00  0.00    -0.004 A 
HETATM   25  C16 UNL     1      24.106   5.149  50.545  1.00  0.00    -0.022 A 
HETATM   26  C17 UNL     1      24.923   3.948  50.302  1.00  0.00     0.092 A 
BRANCH  21  27
HETATM   27  O2  UNL     1      26.295   3.079  51.957  1.00  0.00    -0.367 OA
HETATM   28  H10 UNL     1      26.891   2.965  51.194  1.00  0.00     0.213 HD
ENDBRANCH  21  27
ENDBRANCH  19  21
ENDBRANCH  18  19
ENDBRANCH   3   4
TORSDOF 4
ENDMDL
MODEL 4
REMARK VINA RESULT:      -8.1      6.156      8.990
REMARK  4 active torsions:
REMARK  status: ('A' for Active; 'I' for Inactive)
REMARK    1  A    between atoms: C3_3  and  C4_4 
REMARK       I    between atoms: C4_4  and  N1_6 
REMARK    2  A    between atoms: C11_16  and  N4_17 
REMARK    3  A    between atoms: N4_17  and  C12_18 
REMARK    4  A    between atoms: C12_18  and  O2_19 
ROOT
HETATM    1  C1  UNL     1      28.913  -0.093  54.527  1.00  0.00     0.112 C 
HETATM    2  C2  UNL     1      27.506   0.014  54.205  1.00  0.00    -0.101 C 
HETATM    3  C3  UNL     1      26.329   0.090  53.945  1.00  0.00    -0.006 C 
ENDROOT
BRANCH   3   4
HETATM    4  C4  UNL     1      24.927   0.194  53.631  1.00  0.00     0.298 C 
HETATM    5  O1  UNL     1      24.141  -0.587  54.251  1.00  0.00    -0.258 OA
HETATM    6  N1  UNL     1      24.476   1.140  52.666  1.00  0.00    -0.336 N 
HETATM    7  C5  UNL     1      25.234   2.091  51.880  1.00  0.00     0.132 C 
HETATM    8  C19 UNL     1      23.024   1.174  52.410  1.00  0.00     0.173 C 
HETATM    9  C6  UNL     1      24.501   2.301  50.536  1.00  0.00     0.060 C 
HETATM   10  C7  UNL     1      23.393   3.224  50.811  1.00  0.00    -0.025 A 
HETATM   11  C8  UNL     1      22.626   2.510  51.860  1.00  0.00     0.010 A 
HETATM   12  C18 UNL     1      22.844   4.424  50.469  1.00  0.00     0.053 A 
HETATM   13  S1  UNL     1      21.268   3.602  52.213  1.00  0.00    -0.072 SA
HETATM   14  C9  UNL     1      21.692   4.862  51.080  1.00  0.00     0.114 A 
HETATM   15  N2  UNL     1      21.079   5.999  50.829  1.00  0.00    -0.234 NA
HETATM   16  C10 UNL     1      21.559   6.851  49.913  1.00  0.00     0.236 A 
HETATM   17  N3  UNL     1      22.662   6.437  49.326  1.00  0.00    -0.224 NA
HETATM   18  C11 UNL     1      23.330   5.299  49.536  1.00  0.00     0.141 A 
BRANCH  18  19
HETATM   19  N4  UNL     1      24.500   5.116  48.754  1.00  0.00    -0.339 N 
HETATM   20  H9  UNL     1      24.751   4.685  47.855  1.00  0.00     0.164 HD
BRANCH  19  21
HETATM   21  C12 UNL     1      25.769   5.638  49.239  1.00  0.00     0.155 A 
HETATM   22  C13 UNL     1      26.191   6.837  48.505  1.00  0.00     0.033 A 
HETATM   23  C14 UNL     1      27.291   7.233  47.886  1.00  0.00     0.000 A 
HETATM   24  C15 UNL     1      28.400   6.254  47.913  1.00  0.00    -0.004 A 
HETATM   25  C16 UNL     1      28.056   5.160  48.566  1.00  0.00    -0.022 A 
HETATM   26  C17 UNL     1      26.878   4.637  49.278  1.00  0.00     0.092 A 
BRANCH  21  27
HETATM   27  O2  UNL     1      25.567   6.020  50.600  1.00  0.00    -0.367 OA
HETATM   28  H10 UNL     1      25.827   5.291  51.194  1.00  0.00     0.213 HD
ENDBRANCH  21  27
ENDBRANCH  19  21
ENDBRANCH  18  19
ENDBRANCH   3   4
TORSDOF 4
ENDMDL
MODEL 5
REMARK VINA RESULT:      -7.8      7.774     11.456
REMARK  4 active torsions:
REMARK  status: ('A' for Active; 'I' for Inactive)
REMARK    1  A    between atoms: C3_3  and  C4_4 
REMARK       I    between atoms: C4_4  and  N1_6 
REMARK    2  A    between atoms: C11_16  and  N4_17 
REMARK    3  A    between atoms: N4_17  and  C12_18 
REMARK    4  A    between atoms: C12_18  and  O2_19 
ROOT
HETATM    1  C1  UNL     1      16.729   0.311  49.385  1.00  0.00     0.112 C 
HETATM    2  C2  UNL     1      17.613   0.102  50.511  1.00  0.00    -0.101 C 
HETATM    3  C3  UNL     1      18.357  -0.057  51.450  1.00  0.00    -0.006 C 
ENDROOT
BRANCH   3   4
HETATM    4  C4  UNL     1      19.236  -0.260  52.573  1.00  0.00     0.298 C 
HETATM    5  O1  UNL     1      18.828  -1.042  53.486  1.00  0.00    -0.258 OA
HETATM    6  N1  UNL     1      20.497   0.400  52.625  1.00  0.00    -0.336 N 
HETATM    7  C5  UNL     1      21.103   1.312  51.678  1.00  0.00     0.132 C 
HETATM    8  C19 UNL     1      21.329   0.132  53.813  1.00  0.00     0.173 C 
HETATM    9  C6  UNL     1      22.005   2.294  52.459  1.00  0.00     0.060 C 
HETATM   10  C7  UNL     1      23.249   1.571  52.746  1.00  0.00    -0.025 A 
HETATM   11  C8  UNL     1      22.773   0.389  53.505  1.00  0.00     0.010 A 
HETATM   12  C18 UNL     1      24.603   1.592  52.584  1.00  0.00     0.053 A 
HETATM   13  S1  UNL     1      24.262  -0.510  53.874  1.00  0.00    -0.072 SA
HETATM   14  C9  UNL     1      25.382   0.583  53.099  1.00  0.00     0.114 A 
HETATM   15  N2  UNL     1      26.692   0.503  53.001  1.00  0.00    -0.234 NA
HETATM   16  C10 UNL     1      27.392   1.449  52.359  1.00  0.00     0.236 A 
HETATM   17  N3  UNL     1      26.650   2.417  51.863  1.00  0.00    -0.224 NA
HETATM   18  C11 UNL     1      25.323   2.554  51.929  1.00  0.00     0.141 A 
BRANCH  18  19
HETATM   19  N4  UNL     1      24.788   3.706  51.296  1.00  0.00    -0.339 N 
HETATM   20  H9  UNL     1      24.416   4.622  51.578  1.00  0.00     0.164 HD
BRANCH  19  21
HETATM   21  C12 UNL     1      24.683   3.737  49.845  1.00  0.00     0.155 A 
HETATM   22  C13 UNL     1      24.543   5.106  49.330  1.00  0.00     0.033 A 
HETATM   23  C14 UNL     1      23.716   5.728  48.506  1.00  0.00     0.000 A 
HETATM   24  C15 UNL     1      22.651   4.874  47.937  1.00  0.00    -0.004 A 
HETATM   25  C16 UNL     1      22.747   3.634  48.379  1.00  0.00    -0.022 A 
HETATM   26  C17 UNL     1      23.616   2.858  49.280  1.00  0.00     0.092 A 
BRANCH  21  27
HETATM   27  O2  UNL     1      25.907   3.212  49.329  1.00  0.00    -0.367 OA
HETATM   28  H10 UNL     1      26.122   3.639  48.479  1.00  0.00     0.213 HD
ENDBRANCH  21  27
ENDBRANCH  19  21
ENDBRANCH  18  19
ENDBRANCH   3   4
TORSDOF 4
ENDMDL
MODEL 6
REMARK VINA RESULT:      -7.8      8.010     10.384
REMARK  4 active torsions:
REMARK  status: ('A' for Active; 'I' for Inactive)
REMARK    1  A    between atoms: C3_3  and  C4_4 
REMARK       I    between atoms: C4_4  and  N1_6 
REMARK    2  A    between atoms: C11_16  and  N4_17 
REMARK    3  A    between atoms: N4_17  and  C12_18 
REMARK    4  A    between atoms: C12_18  and  O2_19 
ROOT
HETATM    1  C1  UNL     1      29.187  -2.225  53.502  1.00  0.00     0.112 C 
HETATM    2  C2  UNL     1      28.635  -0.920  53.207  1.00  0.00    -0.101 C 
HETATM    3  C3  UNL     1      28.189   0.177  52.968  1.00  0.00    -0.006 C 
ENDROOT
BRANCH   3   4
HETATM    4  C4  UNL     1      27.646   1.478  52.673  1.00  0.00     0.298 C 
HETATM    5  O1  UNL     1      28.413   2.474  52.854  1.00  0.00    -0.258 OA
HETATM    6  N1  UNL     1      26.308   1.607  52.199  1.00  0.00    -0.336 N 
HETATM    7  C5  UNL     1      25.317   0.585  51.942  1.00  0.00     0.132 C 
HETATM    8  C19 UNL     1      25.840   2.978  51.924  1.00  0.00     0.173 C 
HETATM    9  C6  UNL     1      23.918   1.191  52.198  1.00  0.00     0.060 C 
HETATM   10  C7  UNL     1      23.588   1.985  51.009  1.00  0.00    -0.025 A 
HETATM   11  C8  UNL     1      24.709   2.953  50.941  1.00  0.00     0.010 A 
HETATM   12  C18 UNL     1      22.678   2.148  50.007  1.00  0.00     0.053 A 
HETATM   13  S1  UNL     1      24.336   3.938  49.508  1.00  0.00    -0.072 SA
HETATM   14  C9  UNL     1      22.850   3.135  49.064  1.00  0.00     0.114 A 
HETATM   15  N2  UNL     1      22.037   3.380  48.059  1.00  0.00    -0.234 NA
HETATM   16  C10 UNL     1      20.930   2.649  47.875  1.00  0.00     0.236 A 
HETATM   17  N3  UNL     1      20.762   1.703  48.775  1.00  0.00    -0.224 NA
HETATM   18  C11 UNL     1      21.546   1.404  49.814  1.00  0.00     0.141 A 
BRANCH  18  19
HETATM   19  N4  UNL     1      21.115   0.321  50.624  1.00  0.00    -0.339 N 
HETATM   20  H9  UNL     1      21.334  -0.677  50.735  1.00  0.00     0.164 HD
BRANCH  19  21
HETATM   21  C12 UNL     1      20.080   0.547  51.622  1.00  0.00     0.155 A 
HETATM   22  C13 UNL     1      20.394  -0.103  52.901  1.00  0.00     0.033 A 
HETATM   23  C14 UNL     1      19.761  -0.914  53.733  1.00  0.00     0.000 A 
HETATM   24  C15 UNL     1      18.393  -1.287  53.311  1.00  0.00    -0.004 A 
HETATM   25  C16 UNL     1      18.076  -0.719  52.162  1.00  0.00    -0.022 A 
HETATM   26  C17 UNL     1      18.700   0.183  51.180  1.00  0.00     0.092 A 
BRANCH  21  27
HETATM   27  O2  UNL     1      20.033   1.955  51.860  1.00  0.00    -0.367 OA
HETATM   28  H10 UNL     1      20.359   2.436  51.077  1.00  0.00     0.213 HD
ENDBRANCH  21  27
ENDBRANCH  19  21
ENDBRANCH  18  19
ENDBRANCH   3   4
TORSDOF 4
ENDMDL
MODEL 7
REMARK VINA RESULT:      -7.6      7.518     11.273
REMARK  4 active torsions:
REMARK  status: ('A' for Active; 'I' for Inactive)
REMARK    1  A    between atoms: C3_3  and  C4_4 
REMARK       I    between atoms: C4_4  and  N1_6 
REMARK    2  A    between atoms: C11_16  and  N4_17 
REMARK    3  A    between atoms: N4_17  and  C12_18 
REMARK    4  A    between atoms: C12_18  and  O2_19 
ROOT
HETATM    1  C1  UNL     1      18.030  -1.899  53.487  1.00  0.00     0.112 C 
HETATM    2  C2  UNL     1      18.214  -0.894  52.463  1.00  0.00    -0.101 C 
HETATM    3  C3  UNL     1      18.355  -0.061  51.599  1.00  0.00    -0.006 C 
ENDROOT
BRANCH   3   4
HETATM    4  C4  UNL     1      18.532   0.940  50.579  1.00  0.00     0.298 C 
HETATM    5  O1  UNL     1      17.490   1.316  49.958  1.00  0.00    -0.258 OA
HETATM    6  N1  UNL     1      19.828   1.464  50.304  1.00  0.00    -0.336 N 
HETATM    7  C5  UNL     1      21.102   1.146  50.914  1.00  0.00     0.132 C 
HETATM    8  C19 UNL     1      19.911   2.485  49.243  1.00  0.00     0.173 C 
HETATM    9  C6  UNL     1      22.208   1.339  49.853  1.00  0.00     0.060 C 
HETATM   10  C7  UNL     1      22.464   2.782  49.782  1.00  0.00    -0.025 A 
HETATM   11  C8  UNL     1      21.132   3.333  49.433  1.00  0.00     0.010 A 
HETATM   12  C18 UNL     1      23.424   3.742  49.907  1.00  0.00     0.053 A 
HETATM   13  S1  UNL     1      21.409   5.087  49.333  1.00  0.00    -0.072 SA
HETATM   14  C9  UNL     1      23.112   5.068  49.715  1.00  0.00     0.114 A 
HETATM   15  N2  UNL     1      23.957   6.073  49.811  1.00  0.00    -0.234 NA
HETATM   16  C10 UNL     1      25.244   5.862  50.118  1.00  0.00     0.236 A 
HETATM   17  N3  UNL     1      25.547   4.594  50.304  1.00  0.00    -0.224 NA
HETATM   18  C11 UNL     1      24.739   3.533  50.222  1.00  0.00     0.141 A 
BRANCH  18  19
HETATM   19  N4  UNL     1      25.344   2.275  50.477  1.00  0.00    -0.339 N 
HETATM   20  H9  UNL     1      25.692   1.476  49.932  1.00  0.00     0.164 HD
BRANCH  19  21
HETATM   21  C12 UNL     1      25.605   1.877  51.853  1.00  0.00     0.155 A 
HETATM   22  C13 UNL     1      26.489   0.707  51.931  1.00  0.00     0.033 A 
HETATM   23  C14 UNL     1      26.458  -0.465  52.545  1.00  0.00     0.000 A 
HETATM   24  C15 UNL     1      25.251  -0.700  53.368  1.00  0.00    -0.004 A 
HETATM   25  C16 UNL     1      24.433   0.334  53.321  1.00  0.00    -0.022 A 
HETATM   26  C17 UNL     1      24.380   1.659  52.680  1.00  0.00     0.092 A 
BRANCH  21  27
HETATM   27  O2  UNL     1      26.285   2.967  52.477  1.00  0.00    -0.367 OA
HETATM   28  H10 UNL     1      25.699   3.745  52.520  1.00  0.00     0.213 HD
ENDBRANCH  21  27
ENDBRANCH  19  21
ENDBRANCH  18  19
ENDBRANCH   3   4
TORSDOF 4
ENDMDL
MODEL 8
REMARK VINA RESULT:      -7.4      7.986     11.513
REMARK  4 active torsions:
REMARK  status: ('A' for Active; 'I' for Inactive)
REMARK    1  A    between atoms: C3_3  and  C4_4 
REMARK       I    between atoms: C4_4  and  N1_6 
REMARK    2  A    between atoms: C11_16  and  N4_17 
REMARK    3  A    between atoms: N4_17  and  C12_18 
REMARK    4  A    between atoms: C12_18  and  O2_19 
ROOT
HETATM    1  C1  UNL     1      21.397   7.670  49.480  1.00  0.00     0.112 C 
HETATM    2  C2  UNL     1      22.558   6.840  49.724  1.00  0.00    -0.101 C 
HETATM    3  C3  UNL     1      23.535   6.158  49.919  1.00  0.00    -0.006 C 
ENDROOT
BRANCH   3   4
HETATM    4  C4  UNL     1      24.693   5.337  50.162  1.00  0.00     0.298 C 
HETATM    5  O1  UNL     1      25.823   5.839  49.871  1.00  0.00    -0.258 OA
HETATM    6  N1  UNL     1      24.545   4.029  50.707  1.00  0.00    -0.336 N 
HETATM    7  C5  UNL     1      23.343   3.319  51.089  1.00  0.00     0.132 C 
HETATM    8  C19 UNL     1      25.786   3.263  50.921  1.00  0.00     0.173 C 
HETATM    9  C6  UNL     1      23.586   1.807  50.879  1.00  0.00     0.060 C 
HETATM   10  C7  UNL     1      24.370   1.352  52.033  1.00  0.00    -0.025 A 
HETATM   11  C8  UNL     1      25.575   2.215  51.971  1.00  0.00     0.010 A 
HETATM   12  C18 UNL     1      24.395   0.474  53.076  1.00  0.00     0.053 A 
HETATM   13  S1  UNL     1      26.553   1.683  53.358  1.00  0.00    -0.072 SA
HETATM   14  C9  UNL     1      25.463   0.450  53.942  1.00  0.00     0.114 A 
HETATM   15  N2  UNL     1      25.589  -0.353  54.977  1.00  0.00    -0.234 NA
HETATM   16  C10 UNL     1      24.637  -1.248  55.273  1.00  0.00     0.236 A 
HETATM   17  N3  UNL     1      23.612  -1.227  54.448  1.00  0.00    -0.224 NA
HETATM   18  C11 UNL     1      23.425  -0.441  53.384  1.00  0.00     0.141 A 
BRANCH  18  19
HETATM   19  N4  UNL     1      22.213  -0.640  52.674  1.00  0.00    -0.339 N 
HETATM   20  H9  UNL     1      21.917  -1.055  51.781  1.00  0.00     0.164 HD
BRANCH  19  21
HETATM   21  C12 UNL     1      20.961  -0.181  53.258  1.00  0.00     0.155 A 
HETATM   22  C13 UNL     1      20.128  -1.295  53.728  1.00  0.00     0.033 A 
HETATM   23  C14 UNL     1      18.872  -1.675  53.563  1.00  0.00     0.000 A 
HETATM   24  C15 UNL     1      18.066  -0.786  52.697  1.00  0.00    -0.004 A 
HETATM   25  C16 UNL     1      18.785   0.229  52.256  1.00  0.00    -0.022 A 
HETATM   26  C17 UNL     1      20.164   0.729  52.382  1.00  0.00     0.092 A 
BRANCH  21  27
HETATM   27  O2  UNL     1      21.301   0.608  54.399  1.00  0.00    -0.367 OA
HETATM   28  H10 UNL     1      21.616   0.032  55.120  1.00  0.00     0.213 HD
ENDBRANCH  21  27
ENDBRANCH  19  21
ENDBRANCH  18  19
ENDBRANCH   3   4
TORSDOF 4
ENDMDL
MODEL 9
REMARK VINA RESULT:      -7.4      4.870      7.512
REMARK  4 active torsions:
REMARK  status: ('A' for Active; 'I' for Inactive)
REMARK    1  A    between atoms: C3_3  and  C4_4 
REMARK       I    between atoms: C4_4  and  N1_6 
REMARK    2  A    between atoms: C11_16  and  N4_17 
REMARK    3  A    between atoms: N4_17  and  C12_18 
REMARK    4  A    between atoms: C12_18  and  O2_19 
ROOT
HETATM    1  C1  UNL     1      32.280   3.679  47.187  1.00  0.00     0.112 C 
HETATM    2  C2  UNL     1      31.254   4.652  47.494  1.00  0.00    -0.101 C 
HETATM    3  C3  UNL     1      30.386   5.452  47.751  1.00  0.00    -0.006 C 
ENDROOT
BRANCH   3   4
HETATM    4  C4  UNL     1      29.362   6.416  48.061  1.00  0.00     0.298 C 
HETATM    5  O1  UNL     1      29.677   7.642  47.955  1.00  0.00    -0.258 OA
HETATM    6  N1  UNL     1      28.065   5.982  48.462  1.00  0.00    -0.336 N 
HETATM    7  C5  UNL     1      27.551   4.640  48.629  1.00  0.00     0.132 C 
HETATM    8  C19 UNL     1      27.082   7.041  48.759  1.00  0.00     0.173 C 
HETATM    9  C6  UNL     1      26.476   4.668  49.739  1.00  0.00     0.060 C 
HETATM   10  C7  UNL     1      25.254   5.190  49.116  1.00  0.00    -0.025 A 
HETATM   11  C8  UNL     1      25.688   6.513  48.604  1.00  0.00     0.010 A 
HETATM   12  C18 UNL     1      23.943   4.921  48.857  1.00  0.00     0.053 A 
HETATM   13  S1  UNL     1      24.224   7.179  47.846  1.00  0.00    -0.072 SA
HETATM   14  C9  UNL     1      23.164   5.833  48.183  1.00  0.00     0.114 A 
HETATM   15  N2  UNL     1      21.893   5.676  47.881  1.00  0.00    -0.234 NA
HETATM   16  C10 UNL     1      21.236   4.560  48.227  1.00  0.00     0.236 A 
HETATM   17  N3  UNL     1      21.978   3.684  48.871  1.00  0.00    -0.224 NA
HETATM   18  C11 UNL     1      23.268   3.783  49.206  1.00  0.00     0.141 A 
BRANCH  18  19
HETATM   19  N4  UNL     1      23.813   2.673  49.902  1.00  0.00    -0.339 N 
HETATM   20  H9  UNL     1      24.441   1.885  49.699  1.00  0.00     0.164 HD
BRANCH  19  21
HETATM   21  C12 UNL     1      23.474   2.475  51.304  1.00  0.00     0.155 A 
HETATM   22  C13 UNL     1      24.668   2.351  52.149  1.00  0.00     0.033 A 
HETATM   23  C14 UNL     1      25.100   1.495  53.062  1.00  0.00     0.000 A 
HETATM   24  C15 UNL     1      24.184   0.365  53.330  1.00  0.00    -0.004 A 
HETATM   25  C16 UNL     1      23.097   0.444  52.586  1.00  0.00    -0.022 A 
HETATM   26  C17 UNL     1      22.536   1.342  51.562  1.00  0.00     0.092 A 
BRANCH  21  27
HETATM   27  O2  UNL     1      22.771   3.643  51.729  1.00  0.00    -0.367 OA
HETATM   28  H10 UNL     1      21.830   3.430  51.877  1.00  0.00     0.213 HD
ENDBRANCH  21  27
ENDBRANCH  19  21
ENDBRANCH  18  19
ENDBRANCH   3   4
TORSDOF 4
ENDMDL
