MODEL 1
REMARK VINA RESULT:      -8.8      0.000      0.000
REMARK  7 active torsions:
REMARK  status: ('A' for Active; 'I' for Inactive)
REMARK    1  A    between atoms: C5_5  and  N1_6 
REMARK    2  A    between atoms: N1_6  and  C6_7 
REMARK    3  A    between atoms: N4_15  and  C12_16 
REMARK    4  A    between atoms: C12_16  and  C13_17 
REMARK    5  A    between atoms: C13_17  and  C14_18 
REMARK    6  A    between atoms: C14_18  and  N5_19 
REMARK    7  A    between atoms: C21_27  and  O2_28 
ROOT
HETATM    1  C6  UNL     1      23.087  -0.458  53.581  1.00  0.00     0.141 A 
HETATM    2  N2  UNL     1      22.534  -1.283  54.514  1.00  0.00    -0.224 NA
HETATM    3  C7  UNL     1      21.202  -1.494  54.563  1.00  0.00     0.236 A 
HETATM    4  N3  UNL     1      20.434  -0.873  53.672  1.00  0.00    -0.239 NA
HETATM    5  C8  UNL     1      20.913  -0.057  52.736  1.00  0.00     0.101 A 
HETATM    6  C9  UNL     1      22.266   0.162  52.687  1.00  0.00     0.039 A 
HETATM    7  C10 UNL     1      23.057   0.905  51.980  1.00  0.00     0.010 C 
HETATM    8  C11 UNL     1      23.131   1.852  50.887  1.00  0.00     0.145 C 
HETATM    9  N4  UNL     1      22.104   1.961  49.954  1.00  0.00    -0.409 N 
HETATM   10  C19 UNL     1      21.105   0.933  49.938  1.00  0.00     0.123 C 
HETATM   11  C20 UNL     1      19.913   1.285  50.800  1.00  0.00     0.086 C 
HETATM   12  C21 UNL     1      19.886   0.353  51.994  1.00  0.00     0.074 C 
ENDROOT
BRANCH   1  13
HETATM   13  N1  UNL     1      24.445  -0.417  53.712  1.00  0.00    -0.340 N 
HETATM   14  H6  UNL     1      24.556  -0.749  52.689  1.00  0.00     0.167 HD
BRANCH  13  15
HETATM   15  C5  UNL     1      25.828  -0.373  53.849  1.00  0.00     0.033 A 
HETATM   16  C4  UNL     1      26.562   0.280  54.816  1.00  0.00     0.030 A 
HETATM   17  C3  UNL     1      27.921   0.154  54.806  1.00  0.00     0.009 A 
HETATM   18  C2  UNL     1      28.524  -0.611  53.846  1.00  0.00    -0.062 A 
HETATM   19  C1  UNL     1      30.002  -0.808  53.758  1.00  0.00     0.048 C 
HETATM   20  C23 UNL     1      27.913  -1.306  52.836  1.00  0.00     0.009 A 
HETATM   21  C22 UNL     1      26.514  -1.149  52.884  1.00  0.00     0.030 A 
ENDBRANCH  13  15
ENDBRANCH   1  13
BRANCH  12  22
HETATM   22  O2  UNL     1      18.748  -0.233  52.507  1.00  0.00    -0.362 OA
HETATM   23  H29 UNL     1      18.320  -0.936  51.875  1.00  0.00     0.217 HD
ENDBRANCH  12  22
BRANCH   9  24
HETATM   24  C12 UNL     1      21.548   3.267  49.751  1.00  0.00     0.118 C 
BRANCH  24  25
HETATM   25  C13 UNL     1      22.461   4.401  50.165  1.00  0.00     0.039 C 
BRANCH  25  26
HETATM   26  C14 UNL     1      23.170   4.803  48.842  1.00  0.00     0.118 C 
BRANCH  26  27
HETATM   27  N5  UNL     1      24.551   4.901  49.014  1.00  0.00    -0.408 N 
HETATM   28  C15 UNL     1      25.104   6.141  48.721  1.00  0.00     0.143 C 
HETATM   29  C16 UNL     1      26.582   6.318  48.868  1.00  0.00     0.187 C 
HETATM   30  O1  UNL     1      27.218   5.136  48.501  1.00  0.00    -0.388 OA
HETATM   31  C17 UNL     1      26.820   4.191  49.454  1.00  0.00     0.187 C 
HETATM   32  C18 UNL     1      25.361   3.804  49.235  1.00  0.00     0.143 C 
ENDBRANCH  26  27
ENDBRANCH  25  26
ENDBRANCH  24  25
ENDBRANCH   9  24
TORSDOF 7
ENDMDL
MODEL 2
REMARK VINA RESULT:      -8.5      1.712      2.424
REMARK  7 active torsions:
REMARK  status: ('A' for Active; 'I' for Inactive)
REMARK    1  A    between atoms: C5_5  and  N1_6 
REMARK    2  A    between atoms: N1_6  and  C6_7 
REMARK    3  A    between atoms: N4_15  and  C12_16 
REMARK    4  A    between atoms: C12_16  and  C13_17 
REMARK    5  A    between atoms: C13_17  and  C14_18 
REMARK    6  A    between atoms: C14_18  and  N5_19 
REMARK    7  A    between atoms: C21_27  and  O2_28 
ROOT
HETATM    1  C6  UNL     1      23.174   0.954  53.104  1.00  0.00     0.141 A 
HETATM    2  N2  UNL     1      22.298   0.130  53.745  1.00  0.00    -0.224 NA
HETATM    3  C7  UNL     1      20.977   0.405  53.786  1.00  0.00     0.236 A 
HETATM    4  N3  UNL     1      20.545   1.508  53.179  1.00  0.00    -0.239 NA
HETATM    5  C8  UNL     1      21.349   2.350  52.534  1.00  0.00     0.101 A 
HETATM    6  C9  UNL     1      22.693   2.075  52.497  1.00  0.00     0.039 A 
HETATM    7  C10 UNL     1      23.745   2.669  52.031  1.00  0.00     0.010 C 
HETATM    8  C11 UNL     1      24.229   3.821  51.300  1.00  0.00     0.145 C 
HETATM    9  N4  UNL     1      23.379   4.580  50.500  1.00  0.00    -0.409 N 
HETATM   10  C19 UNL     1      22.086   4.038  50.200  1.00  0.00     0.123 C 
HETATM   11  C20 UNL     1      21.034   4.500  51.183  1.00  0.00     0.086 C 
HETATM   12  C21 UNL     1      20.591   3.312  52.013  1.00  0.00     0.074 C 
ENDROOT
BRANCH   1  13
HETATM   13  N1  UNL     1      24.445   0.463  53.178  1.00  0.00    -0.340 N 
HETATM   14  H6  UNL     1      24.348   0.052  52.184  1.00  0.00     0.167 HD
BRANCH  13  15
HETATM   15  C5  UNL     1      25.741  -0.034  53.257  1.00  0.00     0.033 A 
HETATM   16  C4  UNL     1      26.241  -1.190  52.697  1.00  0.00     0.030 A 
HETATM   17  C3  UNL     1      27.567  -1.474  52.849  1.00  0.00     0.009 A 
HETATM   18  C2  UNL     1      28.369  -0.614  53.547  1.00  0.00    -0.062 A 
HETATM   19  C1  UNL     1      29.830  -0.841  53.763  1.00  0.00     0.048 C 
HETATM   20  C23 UNL     1      27.999   0.559  54.150  1.00  0.00     0.009 A 
HETATM   21  C22 UNL     1      26.626   0.813  53.968  1.00  0.00     0.030 A 
ENDBRANCH  13  15
ENDBRANCH   1  13
BRANCH  12  22
HETATM   22  O2  UNL     1      19.285   3.040  52.362  1.00  0.00    -0.362 OA
HETATM   23  H29 UNL     1      18.947   3.592  53.173  1.00  0.00     0.217 HD
ENDBRANCH  12  22
BRANCH   9  24
HETATM   24  C12 UNL     1      23.335   5.991  50.755  1.00  0.00     0.118 C 
BRANCH  24  25
HETATM   25  C13 UNL     1      24.689   6.617  51.012  1.00  0.00     0.039 C 
BRANCH  25  26
HETATM   26  C14 UNL     1      25.059   7.264  49.648  1.00  0.00     0.118 C 
BRANCH  26  27
HETATM   27  N5  UNL     1      26.325   6.864  49.222  1.00  0.00    -0.408 N 
HETATM   28  C15 UNL     1      27.221   7.893  48.962  1.00  0.00     0.143 C 
HETATM   29  C16 UNL     1      28.596   7.540  48.486  1.00  0.00     0.187 C 
HETATM   30  O1  UNL     1      28.517   6.422  47.661  1.00  0.00    -0.388 OA
HETATM   31  C17 UNL     1      28.090   5.380  48.491  1.00  0.00     0.187 C 
HETATM   32  C18 UNL     1      26.620   5.565  48.856  1.00  0.00     0.143 C 
ENDBRANCH  26  27
ENDBRANCH  25  26
ENDBRANCH  24  25
ENDBRANCH   9  24
TORSDOF 7
ENDMDL
MODEL 3
REMARK VINA RESULT:      -8.3      1.966      2.437
REMARK  7 active torsions:
REMARK  status: ('A' for Active; 'I' for Inactive)
REMARK    1  A    between atoms: C5_5  and  N1_6 
REMARK    2  A    between atoms: N1_6  and  C6_7 
REMARK    3  A    between atoms: N4_15  and  C12_16 
REMARK    4  A    between atoms: C12_16  and  C13_17 
REMARK    5  A    between atoms: C13_17  and  C14_18 
REMARK    6  A    between atoms: C14_18  and  N5_19 
REMARK    7  A    between atoms: C21_27  and  O2_28 
ROOT
HETATM    1  C6  UNL     1      23.198  -0.466  53.615  1.00  0.00     0.141 A 
HETATM    2  N2  UNL     1      22.651  -1.290  54.553  1.00  0.00    -0.224 NA
HETATM    3  C7  UNL     1      21.319  -1.499  54.612  1.00  0.00     0.236 A 
HETATM    4  N3  UNL     1      20.545  -0.879  53.725  1.00  0.00    -0.239 NA
HETATM    5  C8  UNL     1      21.019  -0.066  52.784  1.00  0.00     0.101 A 
HETATM    6  C9  UNL     1      22.372   0.152  52.726  1.00  0.00     0.039 A 
HETATM    7  C10 UNL     1      23.159   0.893  52.012  1.00  0.00     0.010 C 
HETATM    8  C11 UNL     1      23.227   1.838  50.917  1.00  0.00     0.145 C 
HETATM    9  N4  UNL     1      22.194   1.947  49.991  1.00  0.00    -0.409 N 
HETATM   10  C19 UNL     1      21.194   0.920  49.983  1.00  0.00     0.123 C 
HETATM   11  C20 UNL     1      20.008   1.274  50.852  1.00  0.00     0.086 C 
HETATM   12  C21 UNL     1      19.987   0.344  52.048  1.00  0.00     0.074 C 
ENDROOT
BRANCH   1  13
HETATM   13  N1  UNL     1      24.557  -0.427  53.737  1.00  0.00    -0.340 N 
HETATM   14  H6  UNL     1      24.642  -1.295  53.099  1.00  0.00     0.167 HD
BRANCH  13  15
HETATM   15  C5  UNL     1      25.941  -0.382  53.862  1.00  0.00     0.033 A 
HETATM   16  C4  UNL     1      26.684   0.303  54.800  1.00  0.00     0.030 A 
HETATM   17  C3  UNL     1      28.043   0.173  54.784  1.00  0.00     0.009 A 
HETATM   18  C2  UNL     1      28.636  -0.628  53.848  1.00  0.00    -0.062 A 
HETATM   19  C1  UNL     1      30.113  -0.832  53.755  1.00  0.00     0.048 C 
HETATM   20  C23 UNL     1      28.016  -1.357  52.868  1.00  0.00     0.009 A 
HETATM   21  C22 UNL     1      26.618  -1.194  52.920  1.00  0.00     0.030 A 
ENDBRANCH  13  15
ENDBRANCH   1  13
BRANCH  12  22
HETATM   22  O2  UNL     1      18.853  -0.240  52.570  1.00  0.00    -0.362 OA
HETATM   23  H29 UNL     1      18.684  -1.204  52.224  1.00  0.00     0.217 HD
ENDBRANCH  12  22
BRANCH   9  24
HETATM   24  C12 UNL     1      21.637   3.253  49.789  1.00  0.00     0.118 C 
BRANCH  24  25
HETATM   25  C13 UNL     1      22.209   4.318  50.700  1.00  0.00     0.039 C 
BRANCH  25  26
HETATM   26  C14 UNL     1      21.057   5.354  50.823  1.00  0.00     0.118 C 
BRANCH  26  27
HETATM   27  N5  UNL     1      21.443   6.605  50.342  1.00  0.00    -0.408 N 
HETATM   28  C15 UNL     1      20.427   7.372  49.787  1.00  0.00     0.143 C 
HETATM   29  C16 UNL     1      20.770   8.720  49.236  1.00  0.00     0.187 C 
HETATM   30  O1  UNL     1      22.035   8.666  48.658  1.00  0.00    -0.388 OA
HETATM   31  C17 UNL     1      22.914   8.420  49.718  1.00  0.00     0.187 C 
HETATM   32  C18 UNL     1      22.765   6.982  50.205  1.00  0.00     0.143 C 
ENDBRANCH  26  27
ENDBRANCH  25  26
ENDBRANCH  24  25
ENDBRANCH   9  24
TORSDOF 7
ENDMDL
MODEL 4
REMARK VINA RESULT:      -8.3      2.524      5.784
REMARK  7 active torsions:
REMARK  status: ('A' for Active; 'I' for Inactive)
REMARK    1  A    between atoms: C5_5  and  N1_6 
REMARK    2  A    between atoms: N1_6  and  C6_7 
REMARK    3  A    between atoms: N4_15  and  C12_16 
REMARK    4  A    between atoms: C12_16  and  C13_17 
REMARK    5  A    between atoms: C13_17  and  C14_18 
REMARK    6  A    between atoms: C14_18  and  N5_19 
REMARK    7  A    between atoms: C21_27  and  O2_28 
ROOT
HETATM    1  C6  UNL     1      22.693  -0.552  53.841  1.00  0.00     0.141 A 
HETATM    2  N2  UNL     1      22.620  -1.437  54.876  1.00  0.00    -0.224 NA
HETATM    3  C7  UNL     1      23.693  -1.700  55.651  1.00  0.00     0.236 A 
HETATM    4  N3  UNL     1      24.833  -1.070  55.382  1.00  0.00    -0.239 NA
HETATM    5  C8  UNL     1      24.967  -0.194  54.389  1.00  0.00     0.101 A 
HETATM    6  C9  UNL     1      23.879   0.071  53.596  1.00  0.00     0.039 A 
HETATM    7  C10 UNL     1      23.656   0.793  52.544  1.00  0.00     0.010 C 
HETATM    8  C11 UNL     1      24.237   1.726  51.602  1.00  0.00     0.145 C 
HETATM    9  N4  UNL     1      25.402   2.426  51.903  1.00  0.00    -0.409 N 
HETATM   10  C19 UNL     1      25.858   2.411  53.262  1.00  0.00     0.123 C 
HETATM   11  C20 UNL     1      26.853   1.301  53.517  1.00  0.00     0.086 C 
HETATM   12  C21 UNL     1      26.213   0.276  54.430  1.00  0.00     0.074 C 
ENDROOT
BRANCH   1  13
HETATM   13  N1  UNL     1      21.485  -0.434  53.217  1.00  0.00    -0.340 N 
HETATM   14  H6  UNL     1      21.682  -1.337  52.658  1.00  0.00     0.167 HD
BRANCH  13  15
HETATM   15  C5  UNL     1      20.253  -0.311  52.585  1.00  0.00     0.033 A 
HETATM   16  C4  UNL     1      19.019  -0.719  53.047  1.00  0.00     0.030 A 
HETATM   17  C3  UNL     1      17.915  -0.455  52.291  1.00  0.00     0.009 A 
HETATM   18  C2  UNL     1      18.049   0.205  51.101  1.00  0.00    -0.062 A 
HETATM   19  C1  UNL     1      16.898   0.539  50.210  1.00  0.00     0.048 C 
HETATM   20  C23 UNL     1      19.209   0.661  50.533  1.00  0.00     0.009 A 
HETATM   21  C22 UNL     1      20.322   0.368  51.345  1.00  0.00     0.030 A 
ENDBRANCH  13  15
ENDBRANCH   1  13
BRANCH  12  22
HETATM   22  O2  UNL     1      26.851  -0.346  55.483  1.00  0.00    -0.362 OA
HETATM   23  H29 UNL     1      26.888   0.229  56.345  1.00  0.00     0.217 HD
ENDBRANCH  12  22
BRANCH   9  24
HETATM   24  C12 UNL     1      26.482   2.325  50.964  1.00  0.00     0.118 C 
BRANCH  24  25
HETATM   25  C13 UNL     1      26.176   2.910  49.602  1.00  0.00     0.039 C 
BRANCH  25  26
HETATM   26  C14 UNL     1      25.744   4.370  49.919  1.00  0.00     0.118 C 
BRANCH  26  27
HETATM   27  N5  UNL     1      26.625   5.294  49.358  1.00  0.00    -0.408 N 
HETATM   28  C15 UNL     1      26.226   6.622  49.435  1.00  0.00     0.143 C 
HETATM   29  C16 UNL     1      27.114   7.670  48.841  1.00  0.00     0.187 C 
HETATM   30  O1  UNL     1      27.715   7.159  47.695  1.00  0.00    -0.388 OA
HETATM   31  C17 UNL     1      28.544   6.124  48.143  1.00  0.00     0.187 C 
HETATM   32  C18 UNL     1      27.704   4.927  48.578  1.00  0.00     0.143 C 
ENDBRANCH  26  27
ENDBRANCH  25  26
ENDBRANCH  24  25
ENDBRANCH   9  24
TORSDOF 7
ENDMDL
MODEL 5
REMARK VINA RESULT:      -8.3      2.517      5.937
REMARK  7 active torsions:
REMARK  status: ('A' for Active; 'I' for Inactive)
REMARK    1  A    between atoms: C5_5  and  N1_6 
REMARK    2  A    between atoms: N1_6  and  C6_7 
REMARK    3  A    between atoms: N4_15  and  C12_16 
REMARK    4  A    between atoms: C12_16  and  C13_17 
REMARK    5  A    between atoms: C13_17  and  C14_18 
REMARK    6  A    between atoms: C14_18  and  N5_19 
REMARK    7  A    between atoms: C21_27  and  O2_28 
ROOT
HETATM    1  C6  UNL     1      22.904  -0.470  53.861  1.00  0.00     0.141 A 
HETATM    2  N2  UNL     1      22.873  -1.360  54.893  1.00  0.00    -0.224 NA
HETATM    3  C7  UNL     1      23.976  -1.622  55.627  1.00  0.00     0.236 A 
HETATM    4  N3  UNL     1      25.103  -0.985  55.318  1.00  0.00    -0.239 NA
HETATM    5  C8  UNL     1      25.196  -0.104  54.325  1.00  0.00     0.101 A 
HETATM    6  C9  UNL     1      24.078   0.159  53.575  1.00  0.00     0.039 A 
HETATM    7  C10 UNL     1      23.812   0.885  52.536  1.00  0.00     0.010 C 
HETATM    8  C11 UNL     1      24.354   1.825  51.577  1.00  0.00     0.145 C 
HETATM    9  N4  UNL     1      25.527   2.529  51.837  1.00  0.00    -0.409 N 
HETATM   10  C19 UNL     1      26.032   2.509  53.178  1.00  0.00     0.123 C 
HETATM   11  C20 UNL     1      27.041   1.403  53.390  1.00  0.00     0.086 C 
HETATM   12  C21 UNL     1      26.440   0.370  54.322  1.00  0.00     0.074 C 
ENDROOT
BRANCH   1  13
HETATM   13  N1  UNL     1      21.673  -0.355  53.283  1.00  0.00    -0.340 N 
HETATM   14  H6  UNL     1      21.975  -1.034  52.499  1.00  0.00     0.167 HD
BRANCH  13  15
HETATM   15  C5  UNL     1      20.417  -0.235  52.699  1.00  0.00     0.033 A 
HETATM   16  C4  UNL     1      20.087   0.406  51.524  1.00  0.00     0.030 A 
HETATM   17  C3  UNL     1      18.793   0.363  51.093  1.00  0.00     0.009 A 
HETATM   18  C2  UNL     1      17.856  -0.310  51.827  1.00  0.00    -0.062 A 
HETATM   19  C1  UNL     1      16.419  -0.413  51.433  1.00  0.00     0.048 C 
HETATM   20  C23 UNL     1      18.052  -0.983  53.004  1.00  0.00     0.009 A 
HETATM   21  C22 UNL     1      19.398  -0.913  53.411  1.00  0.00     0.030 A 
ENDBRANCH  13  15
ENDBRANCH   1  13
BRANCH  12  22
HETATM   22  O2  UNL     1      27.120  -0.253  55.347  1.00  0.00    -0.362 OA
HETATM   23  H29 UNL     1      27.998  -0.714  55.045  1.00  0.00     0.217 HD
ENDBRANCH  12  22
BRANCH   9  24
HETATM   24  C12 UNL     1      26.571   2.436  50.858  1.00  0.00     0.118 C 
BRANCH  24  25
HETATM   25  C13 UNL     1      26.203   3.004  49.504  1.00  0.00     0.039 C 
BRANCH  25  26
HETATM   26  C14 UNL     1      26.391   4.536  49.686  1.00  0.00     0.118 C 
BRANCH  26  27
HETATM   27  N5  UNL     1      25.169   5.208  49.638  1.00  0.00    -0.408 N 
HETATM   28  C15 UNL     1      25.095   6.369  50.396  1.00  0.00     0.143 C 
HETATM   29  C16 UNL     1      23.810   7.136  50.405  1.00  0.00     0.187 C 
HETATM   30  O1  UNL     1      22.747   6.239  50.348  1.00  0.00    -0.388 OA
HETATM   31  C17 UNL     1      22.849   5.625  49.095  1.00  0.00     0.187 C 
HETATM   32  C18 UNL     1      24.032   4.661  49.075  1.00  0.00     0.143 C 
ENDBRANCH  26  27
ENDBRANCH  25  26
ENDBRANCH  24  25
ENDBRANCH   9  24
TORSDOF 7
ENDMDL
MODEL 6
REMARK VINA RESULT:      -8.2      2.892      7.958
REMARK  7 active torsions:
REMARK  status: ('A' for Active; 'I' for Inactive)
REMARK    1  A    between atoms: C5_5  and  N1_6 
REMARK    2  A    between atoms: N1_6  and  C6_7 
REMARK    3  A    between atoms: N4_15  and  C12_16 
REMARK    4  A    between atoms: C12_16  and  C13_17 
REMARK    5  A    between atoms: C13_17  and  C14_18 
REMARK    6  A    between atoms: C14_18  and  N5_19 
REMARK    7  A    between atoms: C21_27  and  O2_28 
ROOT
HETATM    1  C6  UNL     1      25.712   1.532  52.900  1.00  0.00     0.141 A 
HETATM    2  N2  UNL     1      26.942   1.361  53.461  1.00  0.00    -0.224 NA
HETATM    3  C7  UNL     1      27.148   0.455  54.439  1.00  0.00     0.236 A 
HETATM    4  N3  UNL     1      26.113  -0.276  54.847  1.00  0.00    -0.239 NA
HETATM    5  C8  UNL     1      24.889  -0.159  54.338  1.00  0.00     0.101 A 
HETATM    6  C9  UNL     1      24.677   0.766  53.347  1.00  0.00     0.039 A 
HETATM    7  C10 UNL     1      23.650   1.184  52.678  1.00  0.00     0.010 C 
HETATM    8  C11 UNL     1      22.229   1.015  52.460  1.00  0.00     0.145 C 
HETATM    9  N4  UNL     1      21.572  -0.150  52.846  1.00  0.00    -0.409 N 
HETATM   10  C19 UNL     1      22.375  -1.279  53.212  1.00  0.00     0.123 C 
HETATM   11  C20 UNL     1      22.643  -1.330  54.699  1.00  0.00     0.086 C 
HETATM   12  C21 UNL     1      24.115  -1.061  54.937  1.00  0.00     0.074 C 
ENDROOT
BRANCH   1  13
HETATM   13  N1  UNL     1      25.751   2.483  51.922  1.00  0.00    -0.340 N 
HETATM   14  H6  UNL     1      26.125   1.752  51.221  1.00  0.00     0.167 HD
BRANCH  13  15
HETATM   15  C5  UNL     1      25.788   3.456  50.929  1.00  0.00     0.033 A 
HETATM   16  C4  UNL     1      26.733   3.620  49.939  1.00  0.00     0.030 A 
HETATM   17  C3  UNL     1      26.557   4.614  49.021  1.00  0.00     0.009 A 
HETATM   18  C2  UNL     1      25.456   5.421  49.098  1.00  0.00    -0.062 A 
HETATM   19  C1  UNL     1      25.180   6.531  48.137  1.00  0.00     0.048 C 
HETATM   20  C23 UNL     1      24.450   5.363  50.026  1.00  0.00     0.009 A 
HETATM   21  C22 UNL     1      24.672   4.326  50.952  1.00  0.00     0.030 A 
ENDBRANCH  13  15
ENDBRANCH   1  13
BRANCH  12  22
HETATM   22  O2  UNL     1      24.901  -1.742  55.842  1.00  0.00    -0.362 OA
HETATM   23  H29 UNL     1      25.903  -1.783  55.575  1.00  0.00     0.217 HD
ENDBRANCH  12  22
BRANCH   9  24
HETATM   24  C12 UNL     1      20.425   0.003  53.695  1.00  0.00     0.118 C 
BRANCH  24  25
HETATM   25  C13 UNL     1      19.114  -0.377  53.042  1.00  0.00     0.039 C 
BRANCH  25  26
HETATM   26  C14 UNL     1      18.795  -1.773  53.645  1.00  0.00     0.118 C 
BRANCH  26  27
HETATM   27  N5  UNL     1      17.512  -2.197  53.295  1.00  0.00    -0.408 N 
HETATM   28  C15 UNL     1      17.228  -3.529  53.567  1.00  0.00     0.143 C 
HETATM   29  C16 UNL     1      15.876  -4.059  53.206  1.00  0.00     0.187 C 
HETATM   30  O1  UNL     1      15.452  -3.453  52.026  1.00  0.00    -0.388 OA
HETATM   31  C17 UNL     1      15.291  -2.100  52.344  1.00  0.00     0.187 C 
HETATM   32  C18 UNL     1      16.652  -1.436  52.527  1.00  0.00     0.143 C 
ENDBRANCH  26  27
ENDBRANCH  25  26
ENDBRANCH  24  25
ENDBRANCH   9  24
TORSDOF 7
ENDMDL
MODEL 7
REMARK VINA RESULT:      -8.1      2.569      7.539
REMARK  7 active torsions:
REMARK  status: ('A' for Active; 'I' for Inactive)
REMARK    1  A    between atoms: C5_5  and  N1_6 
REMARK    2  A    between atoms: N1_6  and  C6_7 
REMARK    3  A    between atoms: N4_15  and  C12_16 
REMARK    4  A    between atoms: C12_16  and  C13_17 
REMARK    5  A    between atoms: C13_17  and  C14_18 
REMARK    6  A    between atoms: C14_18  and  N5_19 
REMARK    7  A    between atoms: C21_27  and  O2_28 
ROOT
HETATM    1  C6  UNL     1      26.189   2.526  52.000  1.00  0.00     0.141 A 
HETATM    2  N2  UNL     1      27.531   2.698  52.168  1.00  0.00    -0.224 NA
HETATM    3  C7  UNL     1      28.226   1.961  53.059  1.00  0.00     0.236 A 
HETATM    4  N3  UNL     1      27.567   1.054  53.776  1.00  0.00    -0.239 NA
HETATM    5  C8  UNL     1      26.259   0.838  53.657  1.00  0.00     0.101 A 
HETATM    6  C9  UNL     1      25.550   1.590  52.755  1.00  0.00     0.039 A 
HETATM    7  C10 UNL     1      24.304   1.696  52.417  1.00  0.00     0.010 C 
HETATM    8  C11 UNL     1      22.968   1.184  52.641  1.00  0.00     0.145 C 
HETATM    9  N4  UNL     1      22.759  -0.058  53.234  1.00  0.00    -0.409 N 
HETATM   10  C19 UNL     1      23.887  -0.932  53.366  1.00  0.00     0.123 C 
HETATM   11  C20 UNL     1      24.573  -0.778  54.704  1.00  0.00     0.086 C 
HETATM   12  C21 UNL     1      25.937  -0.157  54.481  1.00  0.00     0.074 C 
ENDROOT
BRANCH   1  13
HETATM   13  N1  UNL     1      25.710   3.364  51.034  1.00  0.00    -0.340 N 
HETATM   14  H6  UNL     1      25.330   2.516  50.484  1.00  0.00     0.167 HD
BRANCH  13  15
HETATM   15  C5  UNL     1      25.222   4.221  50.054  1.00  0.00     0.033 A 
HETATM   16  C4  UNL     1      23.978   4.208  49.461  1.00  0.00     0.030 A 
HETATM   17  C3  UNL     1      23.674   5.178  48.550  1.00  0.00     0.009 A 
HETATM   18  C2  UNL     1      24.601   6.136  48.246  1.00  0.00    -0.062 A 
HETATM   19  C1  UNL     1      24.357   7.236  47.264  1.00  0.00     0.048 C 
HETATM   20  C23 UNL     1      25.864   6.260  48.760  1.00  0.00     0.009 A 
HETATM   21  C22 UNL     1      26.135   5.241  49.694  1.00  0.00     0.030 A 
ENDBRANCH  13  15
ENDBRANCH   1  13
BRANCH  12  22
HETATM   22  O2  UNL     1      27.093  -0.548  55.123  1.00  0.00    -0.362 OA
HETATM   23  H29 UNL     1      27.396   0.104  55.870  1.00  0.00     0.217 HD
ENDBRANCH  12  22
BRANCH   9  24
HETATM   24  C12 UNL     1      21.903  -0.091  54.385  1.00  0.00     0.118 C 
BRANCH  24  25
HETATM   25  C13 UNL     1      20.520   0.474  54.146  1.00  0.00     0.039 C 
BRANCH  25  26
HETATM   26  C14 UNL     1      19.755  -0.700  53.473  1.00  0.00     0.118 C 
BRANCH  26  27
HETATM   27  N5  UNL     1      18.977  -0.254  52.404  1.00  0.00    -0.408 N 
HETATM   28  C15 UNL     1      17.667  -0.716  52.385  1.00  0.00     0.143 C 
HETATM   29  C16 UNL     1      16.776  -0.291  51.260  1.00  0.00     0.187 C 
HETATM   30  O1  UNL     1      17.530  -0.201  50.094  1.00  0.00    -0.388 OA
HETATM   31  C17 UNL     1      18.435   0.843  50.318  1.00  0.00     0.187 C 
HETATM   32  C18 UNL     1      19.506   0.408  51.313  1.00  0.00     0.143 C 
ENDBRANCH  26  27
ENDBRANCH  25  26
ENDBRANCH  24  25
ENDBRANCH   9  24
TORSDOF 7
ENDMDL
MODEL 8
REMARK VINA RESULT:      -7.9      2.171      2.677
REMARK  7 active torsions:
REMARK  status: ('A' for Active; 'I' for Inactive)
REMARK    1  A    between atoms: C5_5  and  N1_6 
REMARK    2  A    between atoms: N1_6  and  C6_7 
REMARK    3  A    between atoms: N4_15  and  C12_16 
REMARK    4  A    between atoms: C12_16  and  C13_17 
REMARK    5  A    between atoms: C13_17  and  C14_18 
REMARK    6  A    between atoms: C14_18  and  N5_19 
REMARK    7  A    between atoms: C21_27  and  O2_28 
ROOT
HETATM    1  C6  UNL     1      23.166  -0.384  53.541  1.00  0.00     0.141 A 
HETATM    2  N2  UNL     1      22.594  -1.160  54.503  1.00  0.00    -0.224 NA
HETATM    3  C7  UNL     1      21.258  -1.349  54.550  1.00  0.00     0.236 A 
HETATM    4  N3  UNL     1      20.507  -0.755  53.627  1.00  0.00    -0.239 NA
HETATM    5  C8  UNL     1      21.006   0.013  52.660  1.00  0.00     0.101 A 
HETATM    6  C9  UNL     1      22.363   0.209  52.615  1.00  0.00     0.039 A 
HETATM    7  C10 UNL     1      23.171   0.909  51.883  1.00  0.00     0.010 C 
HETATM    8  C11 UNL     1      23.268   1.807  50.752  1.00  0.00     0.145 C 
HETATM    9  N4  UNL     1      22.251   1.892  49.806  1.00  0.00    -0.409 N 
HETATM   10  C19 UNL     1      21.236   0.880  49.825  1.00  0.00     0.123 C 
HETATM   11  C20 UNL     1      20.043   1.285  50.660  1.00  0.00     0.086 C 
HETATM   12  C21 UNL     1      19.991   0.406  51.893  1.00  0.00     0.074 C 
ENDROOT
BRANCH   1  13
HETATM   13  N1  UNL     1      24.524  -0.358  53.682  1.00  0.00    -0.340 N 
HETATM   14  H6  UNL     1      24.527  -1.422  53.872  1.00  0.00     0.167 HD
BRANCH  13  15
HETATM   15  C5  UNL     1      25.907  -0.328  53.822  1.00  0.00     0.033 A 
HETATM   16  C4  UNL     1      26.647   0.353  54.765  1.00  0.00     0.030 A 
HETATM   17  C3  UNL     1      28.004   0.208  54.765  1.00  0.00     0.009 A 
HETATM   18  C2  UNL     1      28.600  -0.603  53.839  1.00  0.00    -0.062 A 
HETATM   19  C1  UNL     1      30.075  -0.824  53.764  1.00  0.00     0.048 C 
HETATM   20  C23 UNL     1      27.982  -1.330  52.856  1.00  0.00     0.009 A 
HETATM   21  C22 UNL     1      26.586  -1.151  52.892  1.00  0.00     0.030 A 
ENDBRANCH  13  15
ENDBRANCH   1  13
BRANCH  12  22
HETATM   22  O2  UNL     1      18.841  -0.140  52.421  1.00  0.00    -0.362 OA
HETATM   23  H29 UNL     1      18.378  -0.824  51.793  1.00  0.00     0.217 HD
ENDBRANCH  12  22
BRANCH   9  24
HETATM   24  C12 UNL     1      21.716   3.197  49.543  1.00  0.00     0.118 C 
BRANCH  24  25
HETATM   25  C13 UNL     1      22.489   3.987  48.508  1.00  0.00     0.039 C 
BRANCH  25  26
HETATM   26  C14 UNL     1      21.588   3.915  47.243  1.00  0.00     0.118 C 
BRANCH  26  27
HETATM   27  N5  UNL     1      21.672   5.087  46.492  1.00  0.00    -0.408 N 
HETATM   28  C15 UNL     1      21.201   6.234  47.118  1.00  0.00     0.143 C 
HETATM   29  C16 UNL     1      21.246   7.527  46.367  1.00  0.00     0.187 C 
HETATM   30  O1  UNL     1      20.991   7.280  45.022  1.00  0.00    -0.388 OA
HETATM   31  C17 UNL     1      22.071   6.509  44.577  1.00  0.00     0.187 C 
HETATM   32  C18 UNL     1      21.980   5.096  45.145  1.00  0.00     0.143 C 
ENDBRANCH  26  27
ENDBRANCH  25  26
ENDBRANCH  24  25
ENDBRANCH   9  24
TORSDOF 7
ENDMDL
MODEL 9
REMARK VINA RESULT:      -7.9      3.032      5.700
REMARK  7 active torsions:
REMARK  status: ('A' for Active; 'I' for Inactive)
REMARK    1  A    between atoms: C5_5  and  N1_6 
REMARK    2  A    between atoms: N1_6  and  C6_7 
REMARK    3  A    between atoms: N4_15  and  C12_16 
REMARK    4  A    between atoms: C12_16  and  C13_17 
REMARK    5  A    between atoms: C13_17  and  C14_18 
REMARK    6  A    between atoms: C14_18  and  N5_19 
REMARK    7  A    between atoms: C21_27  and  O2_28 
ROOT
HETATM    1  C6  UNL     1      24.958   3.211  50.354  1.00  0.00     0.141 A 
HETATM    2  N2  UNL     1      25.614   2.765  51.462  1.00  0.00    -0.224 NA
HETATM    3  C7  UNL     1      25.076   1.820  52.262  1.00  0.00     0.236 A 
HETATM    4  N3  UNL     1      23.882   1.330  51.942  1.00  0.00    -0.239 NA
HETATM    5  C8  UNL     1      23.193   1.722  50.873  1.00  0.00     0.101 A 
HETATM    6  C9  UNL     1      23.736   2.686  50.061  1.00  0.00     0.039 A 
HETATM    7  C10 UNL     1      23.348   3.332  49.007  1.00  0.00     0.010 C 
HETATM    8  C11 UNL     1      22.287   3.484  48.034  1.00  0.00     0.145 C 
HETATM    9  N4  UNL     1      21.334   2.487  47.841  1.00  0.00    -0.409 N 
HETATM   10  C19 UNL     1      21.585   1.203  48.426  1.00  0.00     0.123 C 
HETATM   11  C20 UNL     1      20.964   1.071  49.798  1.00  0.00     0.086 C 
HETATM   12  C21 UNL     1      22.073   1.004  50.828  1.00  0.00     0.074 C 
ENDROOT
BRANCH   1  13
HETATM   13  N1  UNL     1      25.702   4.146  49.693  1.00  0.00    -0.340 N 
HETATM   14  H6  UNL     1      25.661   4.793  50.557  1.00  0.00     0.167 HD
BRANCH  13  15
HETATM   15  C5  UNL     1      26.461   5.094  49.017  1.00  0.00     0.033 A 
HETATM   16  C4  UNL     1      26.083   6.362  48.629  1.00  0.00     0.030 A 
HETATM   17  C3  UNL     1      27.003   7.163  48.017  1.00  0.00     0.009 A 
HETATM   18  C2  UNL     1      28.271   6.699  47.802  1.00  0.00    -0.062 A 
HETATM   19  C1  UNL     1      29.343   7.503  47.142  1.00  0.00     0.048 C 
HETATM   20  C23 UNL     1      28.769   5.467  48.136  1.00  0.00     0.009 A 
HETATM   21  C22 UNL     1      27.789   4.675  48.763  1.00  0.00     0.030 A 
ENDBRANCH  13  15
ENDBRANCH   1  13
BRANCH  12  22
HETATM   22  O2  UNL     1      22.087   0.153  51.913  1.00  0.00    -0.362 OA
HETATM   23  H29 UNL     1      21.989   0.638  52.824  1.00  0.00     0.217 HD
ENDBRANCH  12  22
BRANCH   9  24
HETATM   24  C12 UNL     1      19.958   2.876  47.946  1.00  0.00     0.118 C 
BRANCH  24  25
HETATM   25  C13 UNL     1      19.743   4.370  48.066  1.00  0.00     0.039 C 
BRANCH  25  26
HETATM   26  C14 UNL     1      19.214   4.549  49.517  1.00  0.00     0.118 C 
BRANCH  26  27
HETATM   27  N5  UNL     1      20.206   5.049  50.361  1.00  0.00    -0.408 N 
HETATM   28  C15 UNL     1      20.796   6.238  49.952  1.00  0.00     0.143 C 
HETATM   29  C16 UNL     1      21.879   6.828  50.800  1.00  0.00     0.187 C 
HETATM   30  O1  UNL     1      22.633   5.797  51.353  1.00  0.00    -0.388 OA
HETATM   31  C17 UNL     1      21.760   5.121  52.213  1.00  0.00     0.187 C 
HETATM   32  C18 UNL     1      20.740   4.322  51.408  1.00  0.00     0.143 C 
ENDBRANCH  26  27
ENDBRANCH  25  26
ENDBRANCH  24  25
ENDBRANCH   9  24
TORSDOF 7
ENDMDL
