MODEL 1
REMARK VINA RESULT:      -7.5      0.000      0.000
REMARK  4 active torsions:
REMARK  status: ('A' for Active; 'I' for Inactive)
REMARK    1  A    between atoms: C1_2  and  C2_3 
REMARK    2  A    between atoms: C2_3  and  C3_4 
REMARK    3  A    between atoms: C7_8  and  C8_9 
REMARK    4  A    between atoms: C13_15  and  C14_16 
ROOT
HETATM    1  C3  UNL     1      24.770   4.183  50.214  1.00  0.00    -0.017 C 
HETATM    2  C4  UNL     1      25.009   2.926  50.654  1.00  0.00    -0.073 C 
HETATM    3  C5  UNL     1      26.398   2.455  50.845  1.00  0.00     0.062 C 
HETATM    4  C6  UNL     1      26.801   2.087  52.189  1.00  0.00    -0.012 C 
HETATM    5  C7  UNL     1      27.197   0.986  52.776  1.00  0.00    -0.024 C 
HETATM    6  C9  UNL     1      27.216  -0.283  52.022  1.00  0.00     0.045 C 
HETATM    7  C10 UNL     1      26.352  -1.340  52.727  1.00  0.00     0.031 C 
HETATM    8  C11 UNL     1      25.019  -0.778  53.070  1.00  0.00    -0.029 C 
HETATM    9  C12 UNL     1      24.069  -0.469  53.945  1.00  0.00    -0.019 C 
HETATM   10  C13 UNL     1      22.717   0.165  53.913  1.00  0.00     0.076 C 
HETATM   11  C15 UNL     1      22.485   0.607  52.457  1.00  0.00     0.094 C 
HETATM   12  C16 UNL     1      23.596   1.610  52.217  1.00  0.00     0.131 C 
HETATM   13  O4  UNL     1      24.123   1.817  53.304  1.00  0.00    -0.298 OA
HETATM   14  C17 UNL     1      23.804   2.083  50.855  1.00  0.00     0.112 C 
ENDROOT
BRANCH   1  15
HETATM   15  C2  UNL     1      23.621   5.065  49.886  1.00  0.00     0.096 C 
BRANCH  15  16
HETATM   16  C1  UNL     1      22.999   5.649  51.105  1.00  0.00     0.234 C 
HETATM   17  O1  UNL     1      23.053   5.245  52.263  1.00  0.00    -0.307 OA
ENDBRANCH  15  16
ENDBRANCH   1  15
BRANCH   5  18
HETATM   18  C8  UNL     1      27.557   0.902  54.174  1.00  0.00     0.265 C 
HETATM   19  O2  UNL     1      28.185   0.776  55.242  1.00  0.00    -0.302 OA
ENDBRANCH   5  18
BRANCH  10  20
HETATM   20  C14 UNL     1      21.654  -0.790  54.286  1.00  0.00     0.240 C 
HETATM   21  O3  UNL     1      21.497  -1.719  55.059  1.00  0.00    -0.306 OA
ENDBRANCH  10  20
TORSDOF 4
ENDMDL
MODEL 2
REMARK VINA RESULT:      -7.5      1.838      5.123
REMARK  4 active torsions:
REMARK  status: ('A' for Active; 'I' for Inactive)
REMARK    1  A    between atoms: C1_2  and  C2_3 
REMARK    2  A    between atoms: C2_3  and  C3_4 
REMARK    3  A    between atoms: C7_8  and  C8_9 
REMARK    4  A    between atoms: C13_15  and  C14_16 
ROOT
HETATM    1  C3  UNL     1      28.809   0.357  53.344  1.00  0.00    -0.017 C 
HETATM    2  C4  UNL     1      27.602   0.967  53.364  1.00  0.00    -0.073 C 
HETATM    3  C5  UNL     1      27.388   2.221  52.609  1.00  0.00     0.062 C 
HETATM    4  C6  UNL     1      26.406   2.200  51.542  1.00  0.00    -0.012 C 
HETATM    5  C7  UNL     1      25.270   2.806  51.306  1.00  0.00    -0.024 C 
HETATM    6  C9  UNL     1      24.692   3.705  52.325  1.00  0.00     0.045 C 
HETATM    7  C10 UNL     1      23.278   3.242  52.709  1.00  0.00     0.031 C 
HETATM    8  C11 UNL     1      23.270   1.786  53.010  1.00  0.00    -0.029 C 
HETATM    9  C12 UNL     1      22.833   0.550  52.801  1.00  0.00    -0.019 C 
HETATM   10  C13 UNL     1      23.093  -0.811  53.357  1.00  0.00     0.076 C 
HETATM   11  C15 UNL     1      24.231  -0.646  54.381  1.00  0.00     0.094 C 
HETATM   12  C16 UNL     1      25.385  -0.139  53.538  1.00  0.00     0.131 C 
HETATM   13  O4  UNL     1      25.032  -0.233  52.368  1.00  0.00    -0.298 OA
HETATM   14  C17 UNL     1      26.580   0.326  54.228  1.00  0.00     0.112 C 
ENDROOT
BRANCH   1  15
HETATM   15  C2  UNL     1      29.476  -0.846  53.905  1.00  0.00     0.096 C 
BRANCH  15  16
HETATM   16  C1  UNL     1      29.153  -2.076  53.132  1.00  0.00     0.234 C 
HETATM   17  O1  UNL     1      28.107  -2.717  53.111  1.00  0.00    -0.307 OA
ENDBRANCH  15  16
ENDBRANCH   1  15
BRANCH   5  18
HETATM   18  C8  UNL     1      24.476   2.597  50.117  1.00  0.00     0.265 C 
HETATM   19  O2  UNL     1      23.557   2.603  49.275  1.00  0.00    -0.302 OA
ENDBRANCH   5  18
BRANCH  10  20
HETATM   20  C14 UNL     1      21.911  -1.353  54.058  1.00  0.00     0.240 C 
HETATM   21  O3  UNL     1      21.667  -1.991  55.068  1.00  0.00    -0.306 OA
ENDBRANCH  10  20
TORSDOF 4
ENDMDL
MODEL 3
REMARK VINA RESULT:      -7.5      2.088      6.377
REMARK  4 active torsions:
REMARK  status: ('A' for Active; 'I' for Inactive)
REMARK    1  A    between atoms: C1_2  and  C2_3 
REMARK    2  A    between atoms: C2_3  and  C3_4 
REMARK    3  A    between atoms: C7_8  and  C8_9 
REMARK    4  A    between atoms: C13_15  and  C14_16 
ROOT
HETATM    1  C3  UNL     1      26.305   0.072  54.119  1.00  0.00    -0.017 C 
HETATM    2  C4  UNL     1      25.535   0.397  53.056  1.00  0.00    -0.073 C 
HETATM    3  C5  UNL     1      24.101   0.036  53.037  1.00  0.00     0.062 C 
HETATM    4  C6  UNL     1      23.138   1.121  52.983  1.00  0.00    -0.012 C 
HETATM    5  C7  UNL     1      22.226   1.519  52.133  1.00  0.00    -0.024 C 
HETATM    6  C9  UNL     1      22.082   0.829  50.835  1.00  0.00     0.045 C 
HETATM    7  C10 UNL     1      22.242   1.825  49.676  1.00  0.00     0.031 C 
HETATM    8  C11 UNL     1      23.461   2.655  49.868  1.00  0.00    -0.029 C 
HETATM    9  C12 UNL     1      24.069   3.827  50.002  1.00  0.00    -0.019 C 
HETATM   10  C13 UNL     1      25.465   4.318  50.207  1.00  0.00     0.076 C 
HETATM   11  C15 UNL     1      26.342   3.063  50.365  1.00  0.00     0.094 C 
HETATM   12  C16 UNL     1      25.778   2.399  51.606  1.00  0.00     0.131 C 
HETATM   13  O4  UNL     1      24.986   3.194  52.099  1.00  0.00    -0.298 OA
HETATM   14  C17 UNL     1      26.246   1.060  51.934  1.00  0.00     0.112 C 
ENDROOT
BRANCH   1  15
HETATM   15  C2  UNL     1      27.711   0.209  54.579  1.00  0.00     0.096 C 
BRANCH  15  16
HETATM   16  C1  UNL     1      28.631  -0.700  53.844  1.00  0.00     0.234 C 
HETATM   17  O1  UNL     1      28.426  -1.844  53.449  1.00  0.00    -0.307 OA
ENDBRANCH  15  16
ENDBRANCH   1  15
BRANCH   5  18
HETATM   18  C8  UNL     1      21.373   2.666  52.342  1.00  0.00     0.265 C 
HETATM   19  O2  UNL     1      20.424   3.411  52.653  1.00  0.00    -0.302 OA
ENDBRANCH   5  18
BRANCH  10  20
HETATM   20  C14 UNL     1      25.954   5.085  49.043  1.00  0.00     0.240 C 
HETATM   21  O3  UNL     1      27.021   5.397  48.544  1.00  0.00    -0.306 OA
ENDBRANCH  10  20
TORSDOF 4
ENDMDL
MODEL 4
REMARK VINA RESULT:      -7.3      1.375      5.455
REMARK  4 active torsions:
REMARK  status: ('A' for Active; 'I' for Inactive)
REMARK    1  A    between atoms: C1_2  and  C2_3 
REMARK    2  A    between atoms: C2_3  and  C3_4 
REMARK    3  A    between atoms: C7_8  and  C8_9 
REMARK    4  A    between atoms: C13_15  and  C14_16 
ROOT
HETATM    1  C3  UNL     1      27.620  -0.296  53.405  1.00  0.00    -0.017 C 
HETATM    2  C4  UNL     1      26.394  -0.100  52.870  1.00  0.00    -0.073 C 
HETATM    3  C5  UNL     1      25.299  -1.054  53.149  1.00  0.00     0.062 C 
HETATM    4  C6  UNL     1      24.134  -0.549  53.852  1.00  0.00    -0.012 C 
HETATM    5  C7  UNL     1      22.863  -0.409  53.572  1.00  0.00    -0.024 C 
HETATM    6  C9  UNL     1      22.368  -0.739  52.221  1.00  0.00     0.045 C 
HETATM    7  C10 UNL     1      21.667   0.476  51.593  1.00  0.00     0.031 C 
HETATM    8  C11 UNL     1      22.516   1.690  51.723  1.00  0.00    -0.029 C 
HETATM    9  C12 UNL     1      22.722   2.935  52.135  1.00  0.00    -0.019 C 
HETATM   10  C13 UNL     1      23.829   3.936  52.081  1.00  0.00     0.076 C 
HETATM   11  C15 UNL     1      25.023   3.220  51.424  1.00  0.00     0.094 C 
HETATM   12  C16 UNL     1      25.320   2.086  52.385  1.00  0.00     0.131 C 
HETATM   13  O4  UNL     1      24.635   2.283  53.382  1.00  0.00    -0.298 OA
HETATM   14  C17 UNL     1      26.274   1.070  51.965  1.00  0.00     0.112 C 
ENDROOT
BRANCH   1  15
HETATM   15  C2  UNL     1      28.962   0.344  53.419  1.00  0.00     0.096 C 
BRANCH  15  16
HETATM   16  C1  UNL     1      29.025   1.489  54.367  1.00  0.00     0.234 C 
HETATM   17  O1  UNL     1      28.517   2.601  54.262  1.00  0.00    -0.307 OA
ENDBRANCH  15  16
ENDBRANCH   1  15
BRANCH   5  18
HETATM   18  C8  UNL     1      21.890   0.134  54.493  1.00  0.00     0.265 C 
HETATM   19  O2  UNL     1      20.831   0.421  55.083  1.00  0.00    -0.302 OA
ENDBRANCH   5  18
BRANCH  10  20
HETATM   20  C14 UNL     1      23.472   5.106  51.252  1.00  0.00     0.240 C 
HETATM   21  O3  UNL     1      23.796   6.275  51.144  1.00  0.00    -0.306 OA
ENDBRANCH  10  20
TORSDOF 4
ENDMDL
MODEL 5
REMARK VINA RESULT:      -7.2      2.192      6.243
REMARK  4 active torsions:
REMARK  status: ('A' for Active; 'I' for Inactive)
REMARK    1  A    between atoms: C1_2  and  C2_3 
REMARK    2  A    between atoms: C2_3  and  C3_4 
REMARK    3  A    between atoms: C7_8  and  C8_9 
REMARK    4  A    between atoms: C13_15  and  C14_16 
ROOT
HETATM    1  C3  UNL     1      26.912   0.202  53.314  1.00  0.00    -0.017 C 
HETATM    2  C4  UNL     1      26.051   0.624  52.359  1.00  0.00    -0.073 C 
HETATM    3  C5  UNL     1      24.612   0.299  52.458  1.00  0.00     0.062 C 
HETATM    4  C6  UNL     1      23.683   1.407  52.579  1.00  0.00    -0.012 C 
HETATM    5  C7  UNL     1      22.705   1.889  51.856  1.00  0.00    -0.024 C 
HETATM    6  C9  UNL     1      22.412   1.301  50.533  1.00  0.00     0.045 C 
HETATM    7  C10 UNL     1      22.489   2.377  49.438  1.00  0.00     0.031 C 
HETATM    8  C11 UNL     1      23.745   3.161  49.566  1.00  0.00    -0.029 C 
HETATM    9  C12 UNL     1      24.401   4.306  49.722  1.00  0.00    -0.019 C 
HETATM   10  C13 UNL     1      25.824   4.747  49.820  1.00  0.00     0.076 C 
HETATM   11  C15 UNL     1      26.673   3.463  49.799  1.00  0.00     0.094 C 
HETATM   12  C16 UNL     1      26.214   2.722  51.040  1.00  0.00     0.131 C 
HETATM   13  O4  UNL     1      25.499   3.496  51.666  1.00  0.00    -0.298 OA
HETATM   14  C17 UNL     1      26.669   1.351  51.222  1.00  0.00     0.112 C 
ENDROOT
BRANCH   1  15
HETATM   15  C2  UNL     1      28.360   0.271  53.639  1.00  0.00     0.096 C 
BRANCH  15  16
HETATM   16  C1  UNL     1      28.757   1.614  54.141  1.00  0.00     0.234 C 
HETATM   17  O1  UNL     1      28.089   2.641  54.194  1.00  0.00    -0.307 OA
ENDBRANCH  15  16
ENDBRANCH   1  15
BRANCH   5  18
HETATM   18  C8  UNL     1      21.913   3.038  52.231  1.00  0.00     0.265 C 
HETATM   19  O2  UNL     1      21.497   4.199  52.407  1.00  0.00    -0.302 OA
ENDBRANCH   5  18
BRANCH  10  20
HETATM   20  C14 UNL     1      26.220   5.586  48.671  1.00  0.00     0.240 C 
HETATM   21  O3  UNL     1      27.133   6.333  48.364  1.00  0.00    -0.306 OA
ENDBRANCH  10  20
TORSDOF 4
ENDMDL
MODEL 6
REMARK VINA RESULT:      -7.0      1.277      5.477
REMARK  4 active torsions:
REMARK  status: ('A' for Active; 'I' for Inactive)
REMARK    1  A    between atoms: C1_2  and  C2_3 
REMARK    2  A    between atoms: C2_3  and  C3_4 
REMARK    3  A    between atoms: C7_8  and  C8_9 
REMARK    4  A    between atoms: C13_15  and  C14_16 
ROOT
HETATM    1  C3  UNL     1      21.477  -0.061  52.740  1.00  0.00    -0.017 C 
HETATM    2  C4  UNL     1      22.525   0.487  52.084  1.00  0.00    -0.073 C 
HETATM    3  C5  UNL     1      22.299   1.525  51.055  1.00  0.00     0.062 C 
HETATM    4  C6  UNL     1      22.862   2.841  51.297  1.00  0.00    -0.012 C 
HETATM    5  C7  UNL     1      23.759   3.594  50.714  1.00  0.00    -0.024 C 
HETATM    6  C9  UNL     1      24.514   3.074  49.556  1.00  0.00     0.045 C 
HETATM    7  C10 UNL     1      26.025   3.129  49.831  1.00  0.00     0.031 C 
HETATM    8  C11 UNL     1      26.333   2.537  51.160  1.00  0.00    -0.029 C 
HETATM    9  C12 UNL     1      26.843   2.610  52.384  1.00  0.00    -0.019 C 
HETATM   10  C13 UNL     1      26.974   1.711  53.570  1.00  0.00     0.076 C 
HETATM   11  C15 UNL     1      26.231   0.412  53.207  1.00  0.00     0.094 C 
HETATM   12  C16 UNL     1      24.804   0.877  52.993  1.00  0.00     0.131 C 
HETATM   13  O4  UNL     1      24.755   2.044  53.364  1.00  0.00    -0.298 OA
HETATM   14  C17 UNL     1      23.855  -0.074  52.429  1.00  0.00     0.112 C 
ENDROOT
BRANCH   1  15
HETATM   15  C2  UNL     1      21.208  -1.074  53.793  1.00  0.00     0.096 C 
BRANCH  15  16
HETATM   16  C1  UNL     1      21.968  -0.798  55.042  1.00  0.00     0.234 C 
HETATM   17  O1  UNL     1      22.727  -1.538  55.658  1.00  0.00    -0.307 OA
ENDBRANCH  15  16
ENDBRANCH   1  15
BRANCH   5  18
HETATM   18  C8  UNL     1      24.133   4.911  51.178  1.00  0.00     0.265 C 
HETATM   19  O2  UNL     1      24.109   6.099  51.554  1.00  0.00    -0.302 OA
ENDBRANCH   5  18
BRANCH  10  20
HETATM   20  C14 UNL     1      28.384   1.377  53.853  1.00  0.00     0.240 C 
HETATM   21  O3  UNL     1      29.157   1.421  54.795  1.00  0.00    -0.306 OA
ENDBRANCH  10  20
TORSDOF 4
ENDMDL
MODEL 7
REMARK VINA RESULT:      -6.7      2.069      5.299
REMARK  4 active torsions:
REMARK  status: ('A' for Active; 'I' for Inactive)
REMARK    1  A    between atoms: C1_2  and  C2_3 
REMARK    2  A    between atoms: C2_3  and  C3_4 
REMARK    3  A    between atoms: C7_8  and  C8_9 
REMARK    4  A    between atoms: C13_15  and  C14_16 
ROOT
HETATM    1  C3  UNL     1      26.503   0.795  52.044  1.00  0.00    -0.017 C 
HETATM    2  C4  UNL     1      25.355   1.490  52.208  1.00  0.00    -0.073 C 
HETATM    3  C5  UNL     1      25.162   2.785  51.520  1.00  0.00     0.062 C 
HETATM    4  C6  UNL     1      24.079   2.878  50.560  1.00  0.00    -0.012 C 
HETATM    5  C7  UNL     1      22.974   3.574  50.462  1.00  0.00    -0.024 C 
HETATM    6  C9  UNL     1      22.572   4.471  51.564  1.00  0.00     0.045 C 
HETATM    7  C10 UNL     1      21.173   4.098  52.078  1.00  0.00     0.031 C 
HETATM    8  C11 UNL     1      21.085   2.635  52.332  1.00  0.00    -0.029 C 
HETATM    9  C12 UNL     1      20.535   1.444  52.130  1.00  0.00    -0.019 C 
HETATM   10  C13 UNL     1      20.745   0.046  52.613  1.00  0.00     0.076 C 
HETATM   11  C15 UNL     1      21.990   0.088  53.518  1.00  0.00     0.094 C 
HETATM   12  C16 UNL     1      23.088   0.542  52.576  1.00  0.00     0.131 C 
HETATM   13  O4  UNL     1      22.613   0.520  51.447  1.00  0.00    -0.298 OA
HETATM   14  C17 UNL     1      24.379   0.891  53.153  1.00  0.00     0.112 C 
ENDROOT
BRANCH   1  15
HETATM   15  C2  UNL     1      27.130  -0.475  52.494  1.00  0.00     0.096 C 
BRANCH  15  16
HETATM   16  C1  UNL     1      27.895  -0.302  53.759  1.00  0.00     0.234 C 
HETATM   17  O1  UNL     1      27.494  -0.384  54.915  1.00  0.00    -0.307 OA
ENDBRANCH  15  16
ENDBRANCH   1  15
BRANCH   5  18
HETATM   18  C8  UNL     1      22.050   3.470  49.356  1.00  0.00     0.265 C 
HETATM   19  O2  UNL     1      21.076   3.185  48.633  1.00  0.00    -0.302 OA
ENDBRANCH   5  18
BRANCH  10  20
HETATM   20  C14 UNL     1      19.602  -0.436  53.415  1.00  0.00     0.240 C 
HETATM   21  O3  UNL     1      18.479  -0.869  53.228  1.00  0.00    -0.306 OA
ENDBRANCH  10  20
TORSDOF 4
ENDMDL
MODEL 8
REMARK VINA RESULT:      -6.4      2.648      6.825
REMARK  4 active torsions:
REMARK  status: ('A' for Active; 'I' for Inactive)
REMARK    1  A    between atoms: C1_2  and  C2_3 
REMARK    2  A    between atoms: C2_3  and  C3_4 
REMARK    3  A    between atoms: C7_8  and  C8_9 
REMARK    4  A    between atoms: C13_15  and  C14_16 
ROOT
HETATM    1  C3  UNL     1      20.679   0.380  53.371  1.00  0.00    -0.017 C 
HETATM    2  C4  UNL     1      21.130   0.698  52.137  1.00  0.00    -0.073 C 
HETATM    3  C5  UNL     1      20.176   1.054  51.064  1.00  0.00     0.062 C 
HETATM    4  C6  UNL     1      20.262   2.392  50.508  1.00  0.00    -0.012 C 
HETATM    5  C7  UNL     1      20.535   2.899  49.333  1.00  0.00    -0.024 C 
HETATM    6  C9  UNL     1      20.944   2.010  48.227  1.00  0.00     0.045 C 
HETATM    7  C10 UNL     1      22.315   2.433  47.677  1.00  0.00     0.031 C 
HETATM    8  C11 UNL     1      23.286   2.619  48.787  1.00  0.00    -0.029 C 
HETATM    9  C12 UNL     1      24.146   3.359  49.478  1.00  0.00    -0.019 C 
HETATM   10  C13 UNL     1      25.026   3.184  50.672  1.00  0.00     0.076 C 
HETATM   11  C15 UNL     1      24.735   1.773  51.216  1.00  0.00     0.094 C 
HETATM   12  C16 UNL     1      23.267   1.840  51.588  1.00  0.00     0.131 C 
HETATM   13  O4  UNL     1      22.934   3.015  51.491  1.00  0.00    -0.298 OA
HETATM   14  C17 UNL     1      22.599   0.597  51.950  1.00  0.00     0.112 C 
ENDROOT
BRANCH   1  15
HETATM   15  C2  UNL     1      21.211  -0.022  54.699  1.00  0.00     0.096 C 
BRANCH  15  16
HETATM   16  C1  UNL     1      21.728  -1.418  54.695  1.00  0.00     0.234 C 
HETATM   17  O1  UNL     1      22.399  -1.990  55.548  1.00  0.00    -0.307 OA
ENDBRANCH  15  16
ENDBRANCH   1  15
BRANCH   5  18
HETATM   18  C8  UNL     1      20.541   4.316  49.047  1.00  0.00     0.265 C 
HETATM   19  O2  UNL     1      20.335   5.544  49.080  1.00  0.00    -0.302 OA
ENDBRANCH   5  18
BRANCH  10  20
HETATM   20  C14 UNL     1      26.457   3.260  50.315  1.00  0.00     0.240 C 
HETATM   21  O3  UNL     1      27.188   3.962  49.638  1.00  0.00    -0.306 OA
ENDBRANCH  10  20
TORSDOF 4
ENDMDL
MODEL 9
REMARK VINA RESULT:      -6.2      2.146      5.336
REMARK  4 active torsions:
REMARK  status: ('A' for Active; 'I' for Inactive)
REMARK    1  A    between atoms: C1_2  and  C2_3 
REMARK    2  A    between atoms: C2_3  and  C3_4 
REMARK    3  A    between atoms: C7_8  and  C8_9 
REMARK    4  A    between atoms: C13_15  and  C14_16 
ROOT
HETATM    1  C3  UNL     1      20.096   0.816  51.425  1.00  0.00    -0.017 C 
HETATM    2  C4  UNL     1      21.361   1.162  51.096  1.00  0.00    -0.073 C 
HETATM    3  C5  UNL     1      21.606   2.242  50.115  1.00  0.00     0.062 C 
HETATM    4  C6  UNL     1      22.315   3.420  50.580  1.00  0.00    -0.012 C 
HETATM    5  C7  UNL     1      23.455   3.997  50.297  1.00  0.00    -0.024 C 
HETATM    6  C9  UNL     1      24.381   3.361  49.337  1.00  0.00     0.045 C 
HETATM    7  C10 UNL     1      25.750   3.118  49.991  1.00  0.00     0.031 C 
HETATM    8  C11 UNL     1      25.585   2.455  51.312  1.00  0.00    -0.029 C 
HETATM    9  C12 UNL     1      25.759   2.407  52.628  1.00  0.00    -0.019 C 
HETATM   10  C13 UNL     1      25.409   1.480  53.744  1.00  0.00     0.076 C 
HETATM   11  C15 UNL     1      24.564   0.355  53.119  1.00  0.00     0.094 C 
HETATM   12  C16 UNL     1      23.352   1.090  52.579  1.00  0.00     0.131 C 
HETATM   13  O4  UNL     1      23.420   2.237  53.004  1.00  0.00    -0.298 OA
HETATM   14  C17 UNL     1      22.429   0.350  51.730  1.00  0.00     0.112 C 
ENDROOT
BRANCH   1  15
HETATM   15  C2  UNL     1      19.381  -0.145  52.305  1.00  0.00     0.096 C 
BRANCH  15  16
HETATM   16  C1  UNL     1      17.947  -0.282  51.933  1.00  0.00     0.234 C 
HETATM   17  O1  UNL     1      17.121  -1.090  52.344  1.00  0.00    -0.307 OA
ENDBRANCH  15  16
ENDBRANCH   1  15
BRANCH   5  18
HETATM   18  C8  UNL     1      23.926   5.208  50.928  1.00  0.00     0.265 C 
HETATM   19  O2  UNL     1      24.497   6.290  51.166  1.00  0.00    -0.302 OA
ENDBRANCH   5  18
BRANCH  10  20
HETATM   20  C14 UNL     1      26.610   0.875  54.355  1.00  0.00     0.240 C 
HETATM   21  O3  UNL     1      27.749   1.205  54.638  1.00  0.00    -0.306 OA
ENDBRANCH  10  20
TORSDOF 4
ENDMDL
