MODEL 1
REMARK VINA RESULT:      -8.1      0.000      0.000
REMARK  6 active torsions:
REMARK  status: ('A' for Active; 'I' for Inactive)
REMARK    1  A    between atoms: S1_2  and  C2_3 
REMARK    2  A    between atoms: C2_3  and  C3_4 
REMARK    3  A    between atoms: C7_9  and  O1_10 
REMARK    4  A    between atoms: C7_9  and  C8_11 
REMARK    5  A    between atoms: C8_11  and  C10_13 
REMARK    6  A    between atoms: C10_13  and  C11_14 
ROOT
HETATM    1  C8  UNL     1      22.314   0.185  53.748  1.00  0.00     0.042 C 
HETATM    2  C9  UNL     1      22.842  -1.061  54.461  1.00  0.00     0.017 C 
ENDROOT
BRANCH   1   3
HETATM    3  C7  UNL     1      20.917   0.091  53.325  1.00  0.00     0.055 C 
HETATM    4  C6  UNL     1      19.779   0.498  52.748  1.00  0.00    -0.012 C 
HETATM    5  C3  UNL     1      19.485   1.753  52.050  1.00  0.00    -0.033 C 
HETATM    6  C5  UNL     1      18.501  -0.333  52.697  1.00  0.00     0.120 C 
HETATM    7  C4  UNL     1      18.656   1.730  51.032  1.00  0.00     0.053 C 
HETATM    8  S2  UNL     1      18.173  -0.025  50.898  1.00  0.00    -0.136 SA
BRANCH   5   9
HETATM    9  C2  UNL     1      20.042   3.085  52.395  1.00  0.00     0.113 C 
BRANCH   9  10
HETATM   10  S1  UNL     1      21.317   3.575  51.156  1.00  0.00    -0.169 SA
HETATM   11  C1  UNL     1      22.519   4.697  51.947  1.00  0.00     0.090 C 
ENDBRANCH   9  10
ENDBRANCH   5   9
BRANCH   3  12
HETATM   12  O1  UNL     1      20.678  -1.205  53.865  1.00  0.00    -0.364 OA
HETATM   13  H9  UNL     1      21.404  -1.808  54.174  1.00  0.00     0.217 HD
ENDBRANCH   3  12
ENDBRANCH   1   3
BRANCH   1  14
HETATM   14  C10 UNL     1      23.303   0.646  52.733  1.00  0.00     0.039 C 
BRANCH  14  15
HETATM   15  C11 UNL     1      24.622   0.069  52.832  1.00  0.00    -0.008 C 
HETATM   16  C12 UNL     1      25.739   0.704  53.204  1.00  0.00     0.041 A 
HETATM   17  C13 UNL     1      25.890   2.106  53.591  1.00  0.00     0.256 A 
HETATM   18  C19 UNL     1      27.114   0.208  53.333  1.00  0.00     0.006 A 
HETATM   19  O2  UNL     1      25.050   3.023  53.668  1.00  0.00    -0.267 OA
HETATM   20  N1  UNL     1      27.234   2.412  53.919  1.00  0.00    -0.322 N 
HETATM   21  C14 UNL     1      27.967   1.207  53.748  1.00  0.00     0.046 A 
HETATM   22  H17 UNL     1      27.696   3.286  54.230  1.00  0.00     0.169 HD
HETATM   23  C15 UNL     1      29.303   0.888  53.915  1.00  0.00     0.030 A 
HETATM   24  C16 UNL     1      29.800  -0.377  53.684  1.00  0.00     0.002 A 
HETATM   25  C17 UNL     1      28.961  -1.404  53.264  1.00  0.00     0.001 A 
HETATM   26  C18 UNL     1      27.625  -1.066  53.102  1.00  0.00     0.014 A 
ENDBRANCH  14  15
ENDBRANCH   1  14
TORSDOF 6
ENDMDL
MODEL 2
REMARK VINA RESULT:      -8.0      2.248      2.929
REMARK  6 active torsions:
REMARK  status: ('A' for Active; 'I' for Inactive)
REMARK    1  A    between atoms: S1_2  and  C2_3 
REMARK    2  A    between atoms: C2_3  and  C3_4 
REMARK    3  A    between atoms: C7_9  and  O1_10 
REMARK    4  A    between atoms: C7_9  and  C8_11 
REMARK    5  A    between atoms: C8_11  and  C10_13 
REMARK    6  A    between atoms: C10_13  and  C11_14 
ROOT
HETATM    1  C8  UNL     1      22.379   0.769  52.651  1.00  0.00     0.042 C 
HETATM    2  C9  UNL     1      22.200  -0.734  52.869  1.00  0.00     0.017 C 
ENDROOT
BRANCH   1   3
HETATM    3  C7  UNL     1      21.922   1.248  51.346  1.00  0.00     0.055 C 
HETATM    4  C6  UNL     1      21.949   1.992  50.233  1.00  0.00    -0.012 C 
HETATM    5  C3  UNL     1      22.904   3.027  49.827  1.00  0.00    -0.033 C 
HETATM    6  C5  UNL     1      20.931   1.879  49.103  1.00  0.00     0.120 C 
HETATM    7  C4  UNL     1      23.194   3.154  48.552  1.00  0.00     0.053 C 
HETATM    8  S2  UNL     1      22.191   1.862  47.743  1.00  0.00    -0.136 SA
BRANCH   5   9
HETATM    9  C2  UNL     1      23.590   3.976  50.740  1.00  0.00     0.113 C 
BRANCH   9  10
HETATM   10  S1  UNL     1      25.273   4.366  50.095  1.00  0.00    -0.169 SA
HETATM   11  C1  UNL     1      26.448   3.103  50.686  1.00  0.00     0.090 C 
ENDBRANCH   9  10
ENDBRANCH   5   9
BRANCH   3  12
HETATM   12  O1  UNL     1      20.787   0.392  51.256  1.00  0.00    -0.364 OA
HETATM   13  H9  UNL     1      20.003   0.586  50.677  1.00  0.00     0.217 HD
ENDBRANCH   3  12
ENDBRANCH   1   3
BRANCH   1  14
HETATM   14  C10 UNL     1      23.739   1.187  53.090  1.00  0.00     0.039 C 
BRANCH  14  15
HETATM   15  C11 UNL     1      24.773   0.186  52.977  1.00  0.00    -0.008 C 
HETATM   16  C12 UNL     1      26.046   0.314  53.366  1.00  0.00     0.041 A 
HETATM   17  C13 UNL     1      26.686   1.475  53.985  1.00  0.00     0.256 A 
HETATM   18  C19 UNL     1      27.161  -0.637  53.292  1.00  0.00     0.006 A 
HETATM   19  O2  UNL     1      26.222   2.590  54.294  1.00  0.00    -0.267 OA
HETATM   20  N1  UNL     1      28.055   1.231  54.254  1.00  0.00    -0.322 N 
HETATM   21  C14 UNL     1      28.316  -0.094  53.810  1.00  0.00     0.046 A 
HETATM   22  H17 UNL     1      28.798   1.815  54.678  1.00  0.00     0.169 HD
HETATM   23  C15 UNL     1      29.457  -0.877  53.809  1.00  0.00     0.030 A 
HETATM   24  C16 UNL     1      29.474  -2.164  53.315  1.00  0.00     0.002 A 
HETATM   25  C17 UNL     1      28.323  -2.737  52.787  1.00  0.00     0.001 A 
HETATM   26  C18 UNL     1      27.188  -1.938  52.796  1.00  0.00     0.014 A 
ENDBRANCH  14  15
ENDBRANCH   1  14
TORSDOF 6
ENDMDL
MODEL 3
REMARK VINA RESULT:      -7.9      2.298      3.150
REMARK  6 active torsions:
REMARK  status: ('A' for Active; 'I' for Inactive)
REMARK    1  A    between atoms: S1_2  and  C2_3 
REMARK    2  A    between atoms: C2_3  and  C3_4 
REMARK    3  A    between atoms: C7_9  and  O1_10 
REMARK    4  A    between atoms: C7_9  and  C8_11 
REMARK    5  A    between atoms: C8_11  and  C10_13 
REMARK    6  A    between atoms: C10_13  and  C11_14 
ROOT
HETATM    1  C8  UNL     1      20.071  -0.179  53.086  1.00  0.00     0.042 C 
HETATM    2  C9  UNL     1      18.778  -0.962  53.319  1.00  0.00     0.017 C 
ENDROOT
BRANCH   1   3
HETATM    3  C7  UNL     1      20.140   0.502  51.793  1.00  0.00     0.055 C 
HETATM    4  C6  UNL     1      20.643   1.326  50.864  1.00  0.00    -0.012 C 
HETATM    5  C3  UNL     1      21.834   2.178  50.921  1.00  0.00    -0.033 C 
HETATM    6  C5  UNL     1      20.035   1.527  49.480  1.00  0.00     0.120 C 
HETATM    7  C4  UNL     1      22.532   2.361  49.824  1.00  0.00     0.053 C 
HETATM    8  S2  UNL     1      21.642   1.381  48.568  1.00  0.00    -0.136 SA
BRANCH   5   9
HETATM    9  C2  UNL     1      22.338   2.878  52.128  1.00  0.00     0.113 C 
BRANCH   9  10
HETATM   10  S1  UNL     1      22.058   4.694  51.968  1.00  0.00    -0.169 SA
HETATM   11  C1  UNL     1      23.651   5.518  51.634  1.00  0.00     0.090 C 
ENDBRANCH   9  10
ENDBRANCH   5   9
BRANCH   3  12
HETATM   12  O1  UNL     1      18.969  -0.093  51.242  1.00  0.00    -0.364 OA
HETATM   13  H9  UNL     1      18.217   0.434  50.863  1.00  0.00     0.217 HD
ENDBRANCH   3  12
ENDBRANCH   1   3
BRANCH   1  14
HETATM   14  C10 UNL     1      21.244  -1.008  53.481  1.00  0.00     0.039 C 
BRANCH  14  15
HETATM   15  C11 UNL     1      22.533  -0.523  53.049  1.00  0.00    -0.008 C 
HETATM   16  C12 UNL     1      23.675  -0.582  53.744  1.00  0.00     0.041 A 
HETATM   17  C13 UNL     1      23.889  -1.139  55.079  1.00  0.00     0.256 A 
HETATM   18  C19 UNL     1      25.023  -0.119  53.393  1.00  0.00     0.006 A 
HETATM   19  O2  UNL     1      23.093  -1.678  55.872  1.00  0.00    -0.267 OA
HETATM   20  N1  UNL     1      25.241  -1.017  55.481  1.00  0.00    -0.322 N 
HETATM   21  C14 UNL     1      25.918  -0.378  54.407  1.00  0.00     0.046 A 
HETATM   22  H17 UNL     1      25.741  -1.297  56.345  1.00  0.00     0.169 HD
HETATM   23  C15 UNL     1      27.235   0.004  54.221  1.00  0.00     0.030 A 
HETATM   24  C16 UNL     1      27.673   0.624  53.070  1.00  0.00     0.002 A 
HETATM   25  C17 UNL     1      26.791   0.897  52.031  1.00  0.00     0.001 A 
HETATM   26  C18 UNL     1      25.475   0.508  52.235  1.00  0.00     0.014 A 
ENDBRANCH  14  15
ENDBRANCH   1  14
TORSDOF 6
ENDMDL
MODEL 4
REMARK VINA RESULT:      -7.8      2.983      4.890
REMARK  6 active torsions:
REMARK  status: ('A' for Active; 'I' for Inactive)
REMARK    1  A    between atoms: S1_2  and  C2_3 
REMARK    2  A    between atoms: C2_3  and  C3_4 
REMARK    3  A    between atoms: C7_9  and  O1_10 
REMARK    4  A    between atoms: C7_9  and  C8_11 
REMARK    5  A    between atoms: C8_11  and  C10_13 
REMARK    6  A    between atoms: C10_13  and  C11_14 
ROOT
HETATM    1  C8  UNL     1      22.344   3.382  52.453  1.00  0.00     0.042 C 
HETATM    2  C9  UNL     1      20.916   3.134  51.967  1.00  0.00     0.017 C 
ENDROOT
BRANCH   1   3
HETATM    3  C7  UNL     1      22.985   4.560  51.870  1.00  0.00     0.055 C 
HETATM    4  C6  UNL     1      23.633   5.270  50.937  1.00  0.00    -0.012 C 
HETATM    5  C3  UNL     1      24.102   4.858  49.611  1.00  0.00    -0.033 C 
HETATM    6  C5  UNL     1      24.012   6.740  51.090  1.00  0.00     0.120 C 
HETATM    7  C4  UNL     1      24.082   5.735  48.633  1.00  0.00     0.053 C 
HETATM    8  S2  UNL     1      23.411   7.244  49.410  1.00  0.00    -0.136 SA
BRANCH   5   9
HETATM    9  C2  UNL     1      24.617   3.512  49.257  1.00  0.00     0.113 C 
BRANCH   9  10
HETATM   10  S1  UNL     1      26.383   3.358  49.765  1.00  0.00    -0.169 SA
HETATM   11  C1  UNL     1      27.378   4.583  48.850  1.00  0.00     0.090 C 
ENDBRANCH   9  10
ENDBRANCH   5   9
BRANCH   3  12
HETATM   12  O1  UNL     1      22.759   5.424  52.979  1.00  0.00    -0.364 OA
HETATM   13  H9  UNL     1      22.051   5.266  53.658  1.00  0.00     0.217 HD
ENDBRANCH   3  12
ENDBRANCH   1   3
BRANCH   1  14
HETATM   14  C10 UNL     1      23.115   2.107  52.431  1.00  0.00     0.039 C 
BRANCH  14  15
HETATM   15  C11 UNL     1      24.524   2.218  52.726  1.00  0.00    -0.008 C 
HETATM   16  C12 UNL     1      25.283   1.293  53.323  1.00  0.00     0.041 A 
HETATM   17  C13 UNL     1      24.879  -0.025  53.811  1.00  0.00     0.256 A 
HETATM   18  C19 UNL     1      26.710   1.313  53.664  1.00  0.00     0.006 A 
HETATM   19  O2  UNL     1      23.770  -0.594  53.793  1.00  0.00    -0.267 OA
HETATM   20  N1  UNL     1      25.969  -0.722  54.388  1.00  0.00    -0.322 N 
HETATM   21  C14 UNL     1      27.093   0.142  54.279  1.00  0.00     0.046 A 
HETATM   22  H17 UNL     1      26.048  -1.659  54.824  1.00  0.00     0.169 HD
HETATM   23  C15 UNL     1      28.417   0.013  54.661  1.00  0.00     0.030 A 
HETATM   24  C16 UNL     1      29.351   1.005  54.449  1.00  0.00     0.002 A 
HETATM   25  C17 UNL     1      28.992   2.197  53.830  1.00  0.00     0.001 A 
HETATM   26  C18 UNL     1      27.661   2.309  53.454  1.00  0.00     0.014 A 
ENDBRANCH  14  15
ENDBRANCH   1  14
TORSDOF 6
ENDMDL
MODEL 5
REMARK VINA RESULT:      -7.8      2.221      3.497
REMARK  6 active torsions:
REMARK  status: ('A' for Active; 'I' for Inactive)
REMARK    1  A    between atoms: S1_2  and  C2_3 
REMARK    2  A    between atoms: C2_3  and  C3_4 
REMARK    3  A    between atoms: C7_9  and  O1_10 
REMARK    4  A    between atoms: C7_9  and  C8_11 
REMARK    5  A    between atoms: C8_11  and  C10_13 
REMARK    6  A    between atoms: C10_13  and  C11_14 
ROOT
HETATM    1  C8  UNL     1      23.955   2.662  51.909  1.00  0.00     0.042 C 
HETATM    2  C9  UNL     1      23.597   4.013  52.530  1.00  0.00     0.017 C 
ENDROOT
BRANCH   1   3
HETATM    3  C7  UNL     1      23.340   2.415  50.605  1.00  0.00     0.055 C 
HETATM    4  C6  UNL     1      22.420   1.951  49.750  1.00  0.00    -0.012 C 
HETATM    5  C3  UNL     1      21.188   1.204  50.021  1.00  0.00    -0.033 C 
HETATM    6  C5  UNL     1      22.484   2.142  48.238  1.00  0.00     0.120 C 
HETATM    7  C4  UNL     1      20.142   1.413  49.255  1.00  0.00     0.053 C 
HETATM    8  S2  UNL     1      20.715   2.668  48.060  1.00  0.00    -0.136 SA
BRANCH   5   9
HETATM    9  C2  UNL     1      21.004   0.204  51.102  1.00  0.00     0.113 C 
BRANCH   9  10
HETATM   10  S1  UNL     1      19.286   0.299  51.764  1.00  0.00    -0.169 SA
HETATM   11  C1  UNL     1      19.183  -0.674  53.303  1.00  0.00     0.090 C 
ENDBRANCH   9  10
ENDBRANCH   5   9
BRANCH   3  12
HETATM   12  O1  UNL     1      24.343   3.070  49.834  1.00  0.00    -0.364 OA
HETATM   13  H9  UNL     1      24.912   2.600  49.169  1.00  0.00     0.217 HD
ENDBRANCH   3  12
ENDBRANCH   1   3
BRANCH   1  14
HETATM   14  C10 UNL     1      23.835   1.586  52.933  1.00  0.00     0.039 C 
BRANCH  14  15
HETATM   15  C11 UNL     1      24.775   0.497  52.815  1.00  0.00    -0.008 C 
HETATM   16  C12 UNL     1      26.036   0.488  53.260  1.00  0.00     0.041 A 
HETATM   17  C13 UNL     1      26.753   1.555  53.958  1.00  0.00     0.256 A 
HETATM   18  C19 UNL     1      27.060  -0.561  53.188  1.00  0.00     0.006 A 
HETATM   19  O2  UNL     1      26.382   2.695  54.299  1.00  0.00    -0.267 OA
HETATM   20  N1  UNL     1      28.080   1.171  54.270  1.00  0.00    -0.322 N 
HETATM   21  C14 UNL     1      28.236  -0.152  53.776  1.00  0.00     0.046 A 
HETATM   22  H17 UNL     1      28.855   1.664  54.750  1.00  0.00     0.169 HD
HETATM   23  C15 UNL     1      29.298  -1.039  53.785  1.00  0.00     0.030 A 
HETATM   24  C16 UNL     1      29.218  -2.300  53.233  1.00  0.00     0.002 A 
HETATM   25  C17 UNL     1      28.043  -2.738  52.633  1.00  0.00     0.001 A 
HETATM   26  C18 UNL     1      26.988  -1.837  52.633  1.00  0.00     0.014 A 
ENDBRANCH  14  15
ENDBRANCH   1  14
TORSDOF 6
ENDMDL
MODEL 6
REMARK VINA RESULT:      -7.8      3.059      6.773
REMARK  6 active torsions:
REMARK  status: ('A' for Active; 'I' for Inactive)
REMARK    1  A    between atoms: S1_2  and  C2_3 
REMARK    2  A    between atoms: C2_3  and  C3_4 
REMARK    3  A    between atoms: C7_9  and  O1_10 
REMARK    4  A    between atoms: C7_9  and  C8_11 
REMARK    5  A    between atoms: C8_11  and  C10_13 
REMARK    6  A    between atoms: C10_13  and  C11_14 
ROOT
HETATM    1  C8  UNL     1      25.461   2.349  52.447  1.00  0.00     0.042 C 
HETATM    2  C9  UNL     1      24.516   3.143  53.351  1.00  0.00     0.017 C 
ENDROOT
BRANCH   1   3
HETATM    3  C7  UNL     1      25.885   3.062  51.243  1.00  0.00     0.055 C 
HETATM    4  C6  UNL     1      25.728   3.742  50.099  1.00  0.00    -0.012 C 
HETATM    5  C3  UNL     1      24.495   4.148  49.418  1.00  0.00    -0.033 C 
HETATM    6  C5  UNL     1      26.882   4.264  49.249  1.00  0.00     0.120 C 
HETATM    7  C4  UNL     1      24.481   5.289  48.767  1.00  0.00     0.053 C 
HETATM    8  S2  UNL     1      26.162   5.955  49.010  1.00  0.00    -0.136 SA
BRANCH   5   9
HETATM    9  C2  UNL     1      23.231   3.372  49.385  1.00  0.00     0.113 C 
BRANCH   9  10
HETATM   10  S1  UNL     1      22.020   4.089  50.577  1.00  0.00    -0.169 SA
HETATM   11  C1  UNL     1      20.831   5.132  49.667  1.00  0.00     0.090 C 
ENDBRANCH   9  10
ENDBRANCH   5   9
BRANCH   3  12
HETATM   12  O1  UNL     1      27.285   2.926  51.466  1.00  0.00    -0.364 OA
HETATM   13  H9  UNL     1      27.718   2.062  51.696  1.00  0.00     0.217 HD
ENDBRANCH   3  12
ENDBRANCH   1   3
BRANCH   1  14
HETATM   14  C10 UNL     1      24.948   0.961  52.272  1.00  0.00     0.039 C 
BRANCH  14  15
HETATM   15  C11 UNL     1      23.534   0.841  52.011  1.00  0.00    -0.008 C 
HETATM   16  C12 UNL     1      22.646   0.167  52.751  1.00  0.00     0.041 A 
HETATM   17  C13 UNL     1      22.890  -0.595  53.975  1.00  0.00     0.256 A 
HETATM   18  C19 UNL     1      21.201  -0.012  52.569  1.00  0.00     0.006 A 
HETATM   19  O2  UNL     1      23.942  -0.799  54.611  1.00  0.00    -0.267 OA
HETATM   20  N1  UNL     1      21.696  -1.173  54.473  1.00  0.00    -0.322 N 
HETATM   21  C14 UNL     1      20.665  -0.789  53.572  1.00  0.00     0.046 A 
HETATM   22  H17 UNL     1      21.498  -1.763  55.301  1.00  0.00     0.169 HD
HETATM   23  C15 UNL     1      19.306  -1.047  53.535  1.00  0.00     0.030 A 
HETATM   24  C16 UNL     1      18.484  -0.558  52.542  1.00  0.00     0.002 A 
HETATM   25  C17 UNL     1      18.999   0.229  51.517  1.00  0.00     0.001 A 
HETATM   26  C18 UNL     1      20.363   0.477  51.570  1.00  0.00     0.014 A 
ENDBRANCH  14  15
ENDBRANCH   1  14
TORSDOF 6
ENDMDL
MODEL 7
REMARK VINA RESULT:      -7.7      4.920      6.528
REMARK  6 active torsions:
REMARK  status: ('A' for Active; 'I' for Inactive)
REMARK    1  A    between atoms: S1_2  and  C2_3 
REMARK    2  A    between atoms: C2_3  and  C3_4 
REMARK    3  A    between atoms: C7_9  and  O1_10 
REMARK    4  A    between atoms: C7_9  and  C8_11 
REMARK    5  A    between atoms: C8_11  and  C10_13 
REMARK    6  A    between atoms: C10_13  and  C11_14 
ROOT
HETATM    1  C8  UNL     1      25.120   2.441  51.459  1.00  0.00     0.042 C 
HETATM    2  C9  UNL     1      26.543   1.901  51.605  1.00  0.00     0.017 C 
ENDROOT
BRANCH   1   3
HETATM    3  C7  UNL     1      24.073   1.496  51.846  1.00  0.00     0.055 C 
HETATM    4  C6  UNL     1      23.527   0.479  52.527  1.00  0.00    -0.012 C 
HETATM    5  C3  UNL     1      24.116  -0.368  53.567  1.00  0.00    -0.033 C 
HETATM    6  C5  UNL     1      22.092  -0.002  52.340  1.00  0.00     0.120 C 
HETATM    7  C4  UNL     1      23.345  -0.801  54.539  1.00  0.00     0.053 C 
HETATM    8  S2  UNL     1      21.708  -0.094  54.151  1.00  0.00    -0.136 SA
BRANCH   5   9
HETATM    9  C2  UNL     1      25.533  -0.803  53.628  1.00  0.00     0.113 C 
BRANCH   9  10
HETATM   10  S1  UNL     1      26.426   0.138  54.939  1.00  0.00    -0.169 SA
HETATM   11  C1  UNL     1      28.216   0.100  54.589  1.00  0.00     0.090 C 
ENDBRANCH   9  10
ENDBRANCH   5   9
BRANCH   3  12
HETATM   12  O1  UNL     1      23.082   1.985  50.948  1.00  0.00    -0.364 OA
HETATM   13  H9  UNL     1      22.130   1.702  50.980  1.00  0.00     0.217 HD
ENDBRANCH   3  12
ENDBRANCH   1   3
BRANCH   1  14
HETATM   14  C10 UNL     1      24.968   3.122  50.143  1.00  0.00     0.039 C 
BRANCH  14  15
HETATM   15  C11 UNL     1      26.161   3.737  49.611  1.00  0.00    -0.008 C 
HETATM   16  C12 UNL     1      26.249   4.955  49.065  1.00  0.00     0.041 A 
HETATM   17  C13 UNL     1      25.181   5.937  48.879  1.00  0.00     0.256 A 
HETATM   18  C19 UNL     1      27.405   5.661  48.501  1.00  0.00     0.006 A 
HETATM   19  O2  UNL     1      23.971   5.887  49.171  1.00  0.00    -0.267 OA
HETATM   20  N1  UNL     1      25.663   7.117  48.261  1.00  0.00    -0.322 N 
HETATM   21  C14 UNL     1      27.052   6.909  48.041  1.00  0.00     0.046 A 
HETATM   22  H17 UNL     1      25.198   8.000  47.984  1.00  0.00     0.169 HD
HETATM   23  C15 UNL     1      28.041   7.696  47.479  1.00  0.00     0.030 A 
HETATM   24  C16 UNL     1      29.350   7.277  47.367  1.00  0.00     0.002 A 
HETATM   25  C17 UNL     1      29.735   6.021  47.824  1.00  0.00     0.001 A 
HETATM   26  C18 UNL     1      28.730   5.246  48.385  1.00  0.00     0.014 A 
ENDBRANCH  14  15
ENDBRANCH   1  14
TORSDOF 6
ENDMDL
MODEL 8
REMARK VINA RESULT:      -7.7      4.081      6.841
REMARK  6 active torsions:
REMARK  status: ('A' for Active; 'I' for Inactive)
REMARK    1  A    between atoms: S1_2  and  C2_3 
REMARK    2  A    between atoms: C2_3  and  C3_4 
REMARK    3  A    between atoms: C7_9  and  O1_10 
REMARK    4  A    between atoms: C7_9  and  C8_11 
REMARK    5  A    between atoms: C8_11  and  C10_13 
REMARK    6  A    between atoms: C10_13  and  C11_14 
ROOT
HETATM    1  C8  UNL     1      23.421   2.826  51.745  1.00  0.00     0.042 C 
HETATM    2  C9  UNL     1      23.025   4.256  52.114  1.00  0.00     0.017 C 
ENDROOT
BRANCH   1   3
HETATM    3  C7  UNL     1      24.418   2.227  52.633  1.00  0.00     0.055 C 
HETATM    4  C6  UNL     1      25.056   1.239  53.274  1.00  0.00    -0.012 C 
HETATM    5  C3  UNL     1      24.806  -0.204  53.244  1.00  0.00    -0.033 C 
HETATM    6  C5  UNL     1      26.250   1.451  54.200  1.00  0.00     0.120 C 
HETATM    7  C4  UNL     1      25.828  -1.024  53.337  1.00  0.00     0.053 C 
HETATM    8  S2  UNL     1      27.270   0.085  53.472  1.00  0.00    -0.136 SA
BRANCH   5   9
HETATM    9  C2  UNL     1      23.474  -0.848  53.124  1.00  0.00     0.113 C 
BRANCH   9  10
HETATM   10  S1  UNL     1      22.660  -0.926  54.777  1.00  0.00    -0.169 SA
HETATM   11  C1  UNL     1      21.109   0.033  54.726  1.00  0.00     0.090 C 
ENDBRANCH   9  10
ENDBRANCH   5   9
BRANCH   3  12
HETATM   12  O1  UNL     1      25.050   3.449  53.002  1.00  0.00    -0.364 OA
HETATM   13  H9  UNL     1      25.264   4.170  52.352  1.00  0.00     0.217 HD
ENDBRANCH   3  12
ENDBRANCH   1   3
BRANCH   1  14
HETATM   14  C10 UNL     1      23.671   2.731  50.279  1.00  0.00     0.039 C 
BRANCH  14  15
HETATM   15  C11 UNL     1      23.969   3.974  49.610  1.00  0.00    -0.008 C 
HETATM   16  C12 UNL     1      25.186   4.484  49.390  1.00  0.00     0.041 A 
HETATM   17  C13 UNL     1      26.481   3.917  49.768  1.00  0.00     0.256 A 
HETATM   18  C19 UNL     1      25.588   5.729  48.726  1.00  0.00     0.006 A 
HETATM   19  O2  UNL     1      26.762   2.860  50.364  1.00  0.00    -0.267 OA
HETATM   20  N1  UNL     1      27.551   4.752  49.362  1.00  0.00    -0.322 N 
HETATM   21  C14 UNL     1      26.957   5.871  48.717  1.00  0.00     0.046 A 
HETATM   22  H17 UNL     1      28.579   4.668  49.461  1.00  0.00     0.169 HD
HETATM   23  C15 UNL     1      27.487   7.002  48.122  1.00  0.00     0.030 A 
HETATM   24  C16 UNL     1      26.700   7.976  47.545  1.00  0.00     0.002 A 
HETATM   25  C17 UNL     1      25.315   7.858  47.540  1.00  0.00     0.001 A 
HETATM   26  C18 UNL     1      24.801   6.718  48.141  1.00  0.00     0.014 A 
ENDBRANCH  14  15
ENDBRANCH   1  14
TORSDOF 6
ENDMDL
MODEL 9
REMARK VINA RESULT:      -7.7      4.338      7.068
REMARK  6 active torsions:
REMARK  status: ('A' for Active; 'I' for Inactive)
REMARK    1  A    between atoms: S1_2  and  C2_3 
REMARK    2  A    between atoms: C2_3  and  C3_4 
REMARK    3  A    between atoms: C7_9  and  O1_10 
REMARK    4  A    between atoms: C7_9  and  C8_11 
REMARK    5  A    between atoms: C8_11  and  C10_13 
REMARK    6  A    between atoms: C10_13  and  C11_14 
ROOT
HETATM    1  C8  UNL     1      25.896   4.435  49.928  1.00  0.00     0.042 C 
HETATM    2  C9  UNL     1      24.542   4.058  49.326  1.00  0.00     0.017 C 
ENDROOT
BRANCH   1   3
HETATM    3  C7  UNL     1      26.652   5.414  49.147  1.00  0.00     0.055 C 
HETATM    4  C6  UNL     1      26.840   6.523  48.418  1.00  0.00    -0.012 C 
HETATM    5  C3  UNL     1      25.873   7.546  48.012  1.00  0.00    -0.033 C 
HETATM    6  C5  UNL     1      28.190   6.957  47.856  1.00  0.00     0.120 C 
HETATM    7  C4  UNL     1      26.274   8.794  47.925  1.00  0.00     0.053 C 
HETATM    8  S2  UNL     1      28.035   8.724  48.396  1.00  0.00    -0.136 SA
BRANCH   5   9
HETATM    9  C2  UNL     1      24.449   7.302  47.673  1.00  0.00     0.113 C 
BRANCH   9  10
HETATM   10  S1  UNL     1      23.357   8.130  48.906  1.00  0.00    -0.169 SA
HETATM   11  C1  UNL     1      23.877   7.646  50.586  1.00  0.00     0.090 C 
ENDBRANCH   9  10
ENDBRANCH   5   9
BRANCH   3  12
HETATM   12  O1  UNL     1      27.912   4.759  49.256  1.00  0.00    -0.364 OA
HETATM   13  H9  UNL     1      28.283   4.171  48.547  1.00  0.00     0.217 HD
ENDBRANCH   3  12
ENDBRANCH   1   3
BRANCH   1  14
HETATM   14  C10 UNL     1      26.618   3.207  50.362  1.00  0.00     0.039 C 
BRANCH  14  15
HETATM   15  C11 UNL     1      25.863   2.287  51.177  1.00  0.00    -0.008 C 
HETATM   16  C12 UNL     1      26.261   1.739  52.331  1.00  0.00     0.041 A 
HETATM   17  C13 UNL     1      27.531   1.935  53.030  1.00  0.00     0.256 A 
HETATM   18  C19 UNL     1      25.571   0.801  53.224  1.00  0.00     0.006 A 
HETATM   19  O2  UNL     1      28.520   2.635  52.737  1.00  0.00    -0.267 OA
HETATM   20  N1  UNL     1      27.586   1.182  54.228  1.00  0.00    -0.322 N 
HETATM   21  C14 UNL     1      26.349   0.488  54.316  1.00  0.00     0.046 A 
HETATM   22  H17 UNL     1      28.316   1.081  54.956  1.00  0.00     0.169 HD
HETATM   23  C15 UNL     1      25.829  -0.390  55.251  1.00  0.00     0.030 A 
HETATM   24  C16 UNL     1      24.576  -0.952  55.126  1.00  0.00     0.002 A 
HETATM   25  C17 UNL     1      23.770  -0.653  54.033  1.00  0.00     0.001 A 
HETATM   26  C18 UNL     1      24.307   0.228  53.106  1.00  0.00     0.014 A 
ENDBRANCH  14  15
ENDBRANCH   1  14
TORSDOF 6
ENDMDL
