MODEL 1
REMARK VINA RESULT:      -8.9      0.000      0.000
REMARK  5 active torsions:
REMARK  status: ('A' for Active; 'I' for Inactive)
REMARK    1  A    between atoms: C2_2  and  N1_3 
REMARK    2  A    between atoms: C2_2  and  C15_19 
REMARK    3  A    between atoms: N1_3  and  C3_4 
REMARK    4  A    between atoms: C8_11  and  C9_12 
REMARK    5  A    between atoms: C12_15  and  N4_16 
ROOT
HETATM    1  C3  UNL     1      24.392   4.020  51.340  1.00  0.00     0.138 A 
HETATM    2  N2  UNL     1      23.162   3.815  51.844  1.00  0.00    -0.224 NA
HETATM    3  C4  UNL     1      22.842   2.675  52.488  1.00  0.00     0.236 A 
HETATM    4  N3  UNL     1      23.717   1.645  52.683  1.00  0.00    -0.240 NA
HETATM    5  C5  UNL     1      24.957   1.820  52.189  1.00  0.00     0.083 A 
HETATM    6  C6  UNL     1      25.287   2.967  51.539  1.00  0.00     0.040 A 
HETATM    7  C7  UNL     1      26.632   2.471  51.327  1.00  0.00     0.032 A 
HETATM    8  C8  UNL     1      26.340   1.352  51.951  1.00  0.00     0.005 A 
ENDROOT
BRANCH   1   9
HETATM    9  N1  UNL     1      24.696   5.233  50.668  1.00  0.00    -0.366 N 
HETATM   10  H5  UNL     1      24.830   6.055  51.317  1.00  0.00     0.161 HD
BRANCH   9  11
HETATM   11  C2  UNL     1      24.813   5.339  49.226  1.00  0.00     0.112 C 
HETATM   12  C1  UNL     1      23.843   6.406  48.775  1.00  0.00     0.037 C 
BRANCH  11  13
HETATM   13  C15 UNL     1      26.198   5.625  48.783  1.00  0.00    -0.036 A 
HETATM   14  C16 UNL     1      26.318   6.905  48.266  1.00  0.00     0.009 A 
HETATM   15  C17 UNL     1      27.551   7.358  47.796  1.00  0.00     0.001 A 
HETATM   16  C18 UNL     1      28.643   6.553  47.839  1.00  0.00     0.000 A 
HETATM   17  C19 UNL     1      28.517   5.274  48.356  1.00  0.00     0.001 A 
HETATM   18  C20 UNL     1      27.315   4.820  48.820  1.00  0.00     0.009 A 
ENDBRANCH  11  13
ENDBRANCH   9  11
ENDBRANCH   1   9
BRANCH   8  19
HETATM   19  C9  UNL     1      26.991   0.099  52.325  1.00  0.00    -0.024 A 
HETATM   20  C10 UNL     1      26.459  -1.149  52.059  1.00  0.00     0.014 A 
HETATM   21  C11 UNL     1      27.098  -2.318  52.426  1.00  0.00     0.030 A 
HETATM   22  C12 UNL     1      28.307  -2.181  53.077  1.00  0.00     0.025 A 
HETATM   23  C13 UNL     1      28.910  -0.978  53.382  1.00  0.00     0.030 A 
HETATM   24  C14 UNL     1      28.222   0.175  52.989  1.00  0.00     0.014 A 
BRANCH  22  25
HETATM   25  N4  UNL     1      28.970  -3.381  53.457  1.00  0.00    -0.399 N 
HETATM   26  H10 UNL     1      29.164  -3.694  54.433  1.00  0.00     0.156 HD
HETATM   27  H11 UNL     1      29.331  -4.078  52.768  1.00  0.00     0.156 HD
ENDBRANCH  22  25
ENDBRANCH   8  19
TORSDOF 5
ENDMDL
MODEL 2
REMARK VINA RESULT:      -8.6      4.014      8.018
REMARK  5 active torsions:
REMARK  status: ('A' for Active; 'I' for Inactive)
REMARK    1  A    between atoms: C2_2  and  N1_3 
REMARK    2  A    between atoms: C2_2  and  C15_19 
REMARK    3  A    between atoms: N1_3  and  C3_4 
REMARK    4  A    between atoms: C8_11  and  C9_12 
REMARK    5  A    between atoms: C12_15  and  N4_16 
ROOT
HETATM    1  C3  UNL     1      24.143  -0.057  53.932  1.00  0.00     0.138 A 
HETATM    2  N2  UNL     1      24.296  -0.847  55.010  1.00  0.00    -0.224 NA
HETATM    3  C4  UNL     1      23.269  -1.555  55.520  1.00  0.00     0.236 A 
HETATM    4  N3  UNL     1      22.006  -1.536  55.001  1.00  0.00    -0.240 NA
HETATM    5  C5  UNL     1      21.821  -0.753  53.921  1.00  0.00     0.083 A 
HETATM    6  C6  UNL     1      22.852  -0.037  53.401  1.00  0.00     0.040 A 
HETATM    7  C7  UNL     1      21.978   0.494  52.375  1.00  0.00     0.032 A 
HETATM    8  C8  UNL     1      20.963  -0.188  52.856  1.00  0.00     0.005 A 
ENDROOT
BRANCH   1   9
HETATM    9  N1  UNL     1      25.246   0.675  53.421  1.00  0.00    -0.366 N 
HETATM   10  H5  UNL     1      25.450   1.564  53.955  1.00  0.00     0.161 HD
BRANCH   9  11
HETATM   11  C2  UNL     1      26.024   0.250  52.272  1.00  0.00     0.112 C 
HETATM   12  C1  UNL     1      26.528   1.498  51.584  1.00  0.00     0.037 C 
BRANCH  11  13
HETATM   13  C15 UNL     1      27.129  -0.668  52.636  1.00  0.00    -0.036 A 
HETATM   14  C16 UNL     1      28.217   0.018  53.150  1.00  0.00     0.009 A 
HETATM   15  C17 UNL     1      29.359  -0.678  53.551  1.00  0.00     0.001 A 
HETATM   16  C18 UNL     1      29.415  -2.030  53.441  1.00  0.00     0.000 A 
HETATM   17  C19 UNL     1      28.324  -2.710  52.927  1.00  0.00     0.001 A 
HETATM   18  C20 UNL     1      27.202  -2.039  52.532  1.00  0.00     0.009 A 
ENDBRANCH  11  13
ENDBRANCH   9  11
ENDBRANCH   1   9
BRANCH   8  19
HETATM   19  C9  UNL     1      19.546  -0.398  52.574  1.00  0.00    -0.024 A 
HETATM   20  C10 UNL     1      18.709  -1.152  53.375  1.00  0.00     0.014 A 
HETATM   21  C11 UNL     1      17.371  -1.333  53.081  1.00  0.00     0.030 A 
HETATM   22  C12 UNL     1      16.903  -0.720  51.936  1.00  0.00     0.025 A 
HETATM   23  C13 UNL     1      17.666   0.048  51.081  1.00  0.00     0.030 A 
HETATM   24  C14 UNL     1      19.014   0.201  51.424  1.00  0.00     0.014 A 
BRANCH  22  25
HETATM   25  N4  UNL     1      15.526  -0.903  51.629  1.00  0.00    -0.399 N 
HETATM   26  H10 UNL     1      14.725  -0.741  52.277  1.00  0.00     0.156 HD
HETATM   27  H11 UNL     1      15.186  -1.226  50.696  1.00  0.00     0.156 HD
ENDBRANCH  22  25
ENDBRANCH   8  19
TORSDOF 5
ENDMDL
MODEL 3
REMARK VINA RESULT:      -8.6      3.708      4.952
REMARK  5 active torsions:
REMARK  status: ('A' for Active; 'I' for Inactive)
REMARK    1  A    between atoms: C2_2  and  N1_3 
REMARK    2  A    between atoms: C2_2  and  C15_19 
REMARK    3  A    between atoms: N1_3  and  C3_4 
REMARK    4  A    between atoms: C8_11  and  C9_12 
REMARK    5  A    between atoms: C12_15  and  N4_16 
ROOT
HETATM    1  C3  UNL     1      21.318   0.314  53.027  1.00  0.00     0.138 A 
HETATM    2  N2  UNL     1      20.777  -0.449  53.994  1.00  0.00    -0.224 NA
HETATM    3  C4  UNL     1      21.542  -1.169  54.838  1.00  0.00     0.236 A 
HETATM    4  N3  UNL     1      22.906  -1.191  54.790  1.00  0.00    -0.240 NA
HETATM    5  C5  UNL     1      23.478  -0.437  53.831  1.00  0.00     0.083 A 
HETATM    6  C6  UNL     1      22.713   0.292  52.977  1.00  0.00     0.040 A 
HETATM    7  C7  UNL     1      23.904   0.779  52.312  1.00  0.00     0.032 A 
HETATM    8  C8  UNL     1      24.668   0.084  53.124  1.00  0.00     0.005 A 
ENDROOT
BRANCH   1   9
HETATM    9  N1  UNL     1      20.483   1.060  52.154  1.00  0.00    -0.366 N 
HETATM   10  H5  UNL     1      20.040   1.904  52.610  1.00  0.00     0.161 HD
BRANCH   9  11
HETATM   11  C2  UNL     1      20.255   0.704  50.767  1.00  0.00     0.112 C 
HETATM   12  C1  UNL     1      18.784   0.908  50.487  1.00  0.00     0.037 C 
BRANCH  11  13
HETATM   13  C15 UNL     1      21.110   1.470  49.830  1.00  0.00    -0.036 A 
HETATM   14  C16 UNL     1      21.418   2.725  50.327  1.00  0.00     0.009 A 
HETATM   15  C17 UNL     1      22.218   3.596  49.585  1.00  0.00     0.001 A 
HETATM   16  C18 UNL     1      22.700   3.223  48.371  1.00  0.00     0.000 A 
HETATM   17  C19 UNL     1      22.388   1.967  47.880  1.00  0.00     0.001 A 
HETATM   18  C20 UNL     1      21.607   1.106  48.598  1.00  0.00     0.009 A 
ENDBRANCH  11  13
ENDBRANCH   9  11
ENDBRANCH   1   9
BRANCH   8  19
HETATM   19  C9  UNL     1      26.088  -0.166  53.353  1.00  0.00    -0.024 A 
HETATM   20  C10 UNL     1      26.872   0.589  54.206  1.00  0.00     0.014 A 
HETATM   21  C11 UNL     1      28.214   0.328  54.401  1.00  0.00     0.030 A 
HETATM   22  C12 UNL     1      28.744  -0.735  53.698  1.00  0.00     0.025 A 
HETATM   23  C13 UNL     1      28.037  -1.540  52.829  1.00  0.00     0.030 A 
HETATM   24  C14 UNL     1      26.682  -1.233  52.666  1.00  0.00     0.014 A 
BRANCH  22  25
HETATM   25  N4  UNL     1      30.126  -1.009  53.896  1.00  0.00    -0.399 N 
HETATM   26  H10 UNL     1      30.921  -0.391  53.621  1.00  0.00     0.156 HD
HETATM   27  H11 UNL     1      30.478  -1.880  54.351  1.00  0.00     0.156 HD
ENDBRANCH  22  25
ENDBRANCH   8  19
TORSDOF 5
ENDMDL
MODEL 4
REMARK VINA RESULT:      -8.6      2.588      4.594
REMARK  5 active torsions:
REMARK  status: ('A' for Active; 'I' for Inactive)
REMARK    1  A    between atoms: C2_2  and  N1_3 
REMARK    2  A    between atoms: C2_2  and  C15_19 
REMARK    3  A    between atoms: N1_3  and  C3_4 
REMARK    4  A    between atoms: C8_11  and  C9_12 
REMARK    5  A    between atoms: C12_15  and  N4_16 
ROOT
HETATM    1  C3  UNL     1      25.883   2.750  51.331  1.00  0.00     0.138 A 
HETATM    2  N2  UNL     1      26.919   1.928  51.577  1.00  0.00    -0.224 NA
HETATM    3  C4  UNL     1      26.741   0.710  52.128  1.00  0.00     0.236 A 
HETATM    4  N3  UNL     1      25.520   0.211  52.480  1.00  0.00    -0.240 NA
HETATM    5  C5  UNL     1      24.462   1.012  52.247  1.00  0.00     0.083 A 
HETATM    6  C6  UNL     1      24.634   2.241  51.691  1.00  0.00     0.040 A 
HETATM    7  C7  UNL     1      23.206   2.475  51.746  1.00  0.00     0.032 A 
HETATM    8  C8  UNL     1      23.010   1.292  52.284  1.00  0.00     0.005 A 
ENDROOT
BRANCH   1   9
HETATM    9  N1  UNL     1      26.106   4.026  50.749  1.00  0.00    -0.366 N 
HETATM   10  H5  UNL     1      26.446   4.752  51.437  1.00  0.00     0.161 HD
BRANCH   9  11
HETATM   11  C2  UNL     1      25.888   4.312  49.344  1.00  0.00     0.112 C 
HETATM   12  C1  UNL     1      24.509   4.917  49.218  1.00  0.00     0.037 C 
BRANCH  11  13
HETATM   13  C15 UNL     1      26.934   5.190  48.769  1.00  0.00    -0.036 A 
HETATM   14  C16 UNL     1      26.424   6.426  48.408  1.00  0.00     0.009 A 
HETATM   15  C17 UNL     1      27.260   7.393  47.846  1.00  0.00     0.001 A 
HETATM   16  C18 UNL     1      28.578   7.132  47.648  1.00  0.00     0.000 A 
HETATM   17  C19 UNL     1      29.082   5.894  48.011  1.00  0.00     0.001 A 
HETATM   18  C20 UNL     1      28.273   4.941  48.562  1.00  0.00     0.009 A 
ENDBRANCH  11  13
ENDBRANCH   9  11
ENDBRANCH   1   9
BRANCH   8  19
HETATM   19  C9  UNL     1      21.902   0.472  52.765  1.00  0.00    -0.024 A 
HETATM   20  C10 UNL     1      21.987  -0.364  53.862  1.00  0.00     0.014 A 
HETATM   21  C11 UNL     1      20.920  -1.128  54.293  1.00  0.00     0.030 A 
HETATM   22  C12 UNL     1      19.750  -1.018  53.569  1.00  0.00     0.025 A 
HETATM   23  C13 UNL     1      19.577  -0.211  52.464  1.00  0.00     0.030 A 
HETATM   24  C14 UNL     1      20.688   0.543  52.069  1.00  0.00     0.014 A 
BRANCH  22  25
HETATM   25  N4  UNL     1      18.649  -1.803  54.009  1.00  0.00    -0.399 N 
HETATM   26  H10 UNL     1      17.975  -2.314  53.398  1.00  0.00     0.156 HD
HETATM   27  H11 UNL     1      18.411  -1.943  55.016  1.00  0.00     0.156 HD
ENDBRANCH  22  25
ENDBRANCH   8  19
TORSDOF 5
ENDMDL
MODEL 5
REMARK VINA RESULT:      -8.5      3.390      7.332
REMARK  5 active torsions:
REMARK  status: ('A' for Active; 'I' for Inactive)
REMARK    1  A    between atoms: C2_2  and  N1_3 
REMARK    2  A    between atoms: C2_2  and  C15_19 
REMARK    3  A    between atoms: N1_3  and  C3_4 
REMARK    4  A    between atoms: C8_11  and  C9_12 
REMARK    5  A    between atoms: C12_15  and  N4_16 
ROOT
HETATM    1  C3  UNL     1      24.857   2.184  52.915  1.00  0.00     0.138 A 
HETATM    2  N2  UNL     1      24.810   3.325  52.205  1.00  0.00    -0.224 NA
HETATM    3  C4  UNL     1      23.688   3.717  51.569  1.00  0.00     0.236 A 
HETATM    4  N3  UNL     1      22.522   3.007  51.585  1.00  0.00    -0.240 NA
HETATM    5  C5  UNL     1      22.538   1.859  52.289  1.00  0.00     0.083 A 
HETATM    6  C6  UNL     1      23.665   1.457  52.933  1.00  0.00     0.040 A 
HETATM    7  C7  UNL     1      22.981   0.272  53.410  1.00  0.00     0.032 A 
HETATM    8  C8  UNL     1      21.877   0.636  52.797  1.00  0.00     0.005 A 
ENDROOT
BRANCH   1   9
HETATM    9  N1  UNL     1      26.055   1.800  53.573  1.00  0.00    -0.366 N 
HETATM   10  H5  UNL     1      25.968   1.764  54.626  1.00  0.00     0.161 HD
BRANCH   9  11
HETATM   11  C2  UNL     1      27.286   1.486  52.874  1.00  0.00     0.112 C 
HETATM   12  C1  UNL     1      28.389   2.289  53.523  1.00  0.00     0.037 C 
BRANCH  11  13
HETATM   13  C15 UNL     1      27.587   0.035  52.865  1.00  0.00    -0.036 A 
HETATM   14  C16 UNL     1      28.847  -0.231  53.375  1.00  0.00     0.009 A 
HETATM   15  C17 UNL     1      29.311  -1.545  53.449  1.00  0.00     0.001 A 
HETATM   16  C18 UNL     1      28.534  -2.574  53.022  1.00  0.00     0.000 A 
HETATM   17  C19 UNL     1      27.275  -2.302  52.514  1.00  0.00     0.001 A 
HETATM   18  C20 UNL     1      26.811  -1.020  52.437  1.00  0.00     0.009 A 
ENDBRANCH  11  13
ENDBRANCH   9  11
ENDBRANCH   1   9
BRANCH   8  19
HETATM   19  C9  UNL     1      20.514   0.151  52.607  1.00  0.00    -0.024 A 
HETATM   20  C10 UNL     1      19.839  -0.621  53.534  1.00  0.00     0.014 A 
HETATM   21  C11 UNL     1      18.548  -1.067  53.326  1.00  0.00     0.030 A 
HETATM   22  C12 UNL     1      17.955  -0.702  52.134  1.00  0.00     0.025 A 
HETATM   23  C13 UNL     1      18.552   0.064  51.155  1.00  0.00     0.030 A 
HETATM   24  C14 UNL     1      19.860   0.490  51.415  1.00  0.00     0.014 A 
BRANCH  22  25
HETATM   25  N4  UNL     1      16.625  -1.158  51.915  1.00  0.00    -0.399 N 
HETATM   26  H10 UNL     1      15.784  -0.891  52.471  1.00  0.00     0.156 HD
HETATM   27  H11 UNL     1      16.366  -1.822  51.151  1.00  0.00     0.156 HD
ENDBRANCH  22  25
ENDBRANCH   8  19
TORSDOF 5
ENDMDL
MODEL 6
REMARK VINA RESULT:      -8.5      3.309      6.960
REMARK  5 active torsions:
REMARK  status: ('A' for Active; 'I' for Inactive)
REMARK    1  A    between atoms: C2_2  and  N1_3 
REMARK    2  A    between atoms: C2_2  and  C15_19 
REMARK    3  A    between atoms: N1_3  and  C3_4 
REMARK    4  A    between atoms: C8_11  and  C9_12 
REMARK    5  A    between atoms: C12_15  and  N4_16 
ROOT
HETATM    1  C3  UNL     1      23.908   3.142  52.533  1.00  0.00     0.138 A 
HETATM    2  N2  UNL     1      23.498   4.418  52.417  1.00  0.00    -0.224 NA
HETATM    3  C4  UNL     1      22.194   4.731  52.273  1.00  0.00     0.236 A 
HETATM    4  N3  UNL     1      21.194   3.803  52.231  1.00  0.00    -0.240 NA
HETATM    5  C5  UNL     1      21.573   2.516  52.345  1.00  0.00     0.083 A 
HETATM    6  C6  UNL     1      22.886   2.193  52.490  1.00  0.00     0.040 A 
HETATM    7  C7  UNL     1      22.542   0.786  52.541  1.00  0.00     0.032 A 
HETATM    8  C8  UNL     1      21.267   1.070  52.401  1.00  0.00     0.005 A 
ENDROOT
BRANCH   1   9
HETATM    9  N1  UNL     1      25.288   2.846  52.683  1.00  0.00    -0.366 N 
HETATM   10  H5  UNL     1      25.735   3.319  53.516  1.00  0.00     0.161 HD
BRANCH   9  11
HETATM   11  C2  UNL     1      26.023   1.978  51.782  1.00  0.00     0.112 C 
HETATM   12  C1  UNL     1      26.587   2.846  50.683  1.00  0.00     0.037 C 
BRANCH  11  13
HETATM   13  C15 UNL     1      27.078   1.197  52.471  1.00  0.00    -0.036 A 
HETATM   14  C16 UNL     1      26.853  -0.166  52.373  1.00  0.00     0.009 A 
HETATM   15  C17 UNL     1      27.743  -1.067  52.961  1.00  0.00     0.001 A 
HETATM   16  C18 UNL     1      28.833  -0.618  53.634  1.00  0.00     0.000 A 
HETATM   17  C19 UNL     1      29.052   0.746  53.729  1.00  0.00     0.001 A 
HETATM   18  C20 UNL     1      28.189   1.637  53.157  1.00  0.00     0.009 A 
ENDBRANCH  11  13
ENDBRANCH   9  11
ENDBRANCH   1   9
BRANCH   8  19
HETATM   19  C9  UNL     1      19.987   0.372  52.318  1.00  0.00    -0.024 A 
HETATM   20  C10 UNL     1      19.107   0.508  51.261  1.00  0.00     0.014 A 
HETATM   21  C11 UNL     1      17.902  -0.166  51.211  1.00  0.00     0.030 A 
HETATM   22  C12 UNL     1      17.613  -0.992  52.279  1.00  0.00     0.025 A 
HETATM   23  C13 UNL     1      18.431  -1.186  53.373  1.00  0.00     0.030 A 
HETATM   24  C14 UNL     1      19.639  -0.481  53.374  1.00  0.00     0.014 A 
BRANCH  22  25
HETATM   25  N4  UNL     1      16.374  -1.688  52.232  1.00  0.00    -0.399 N 
HETATM   26  H10 UNL     1      15.933  -2.212  53.020  1.00  0.00     0.156 HD
HETATM   27  H11 UNL     1      15.776  -1.738  51.377  1.00  0.00     0.156 HD
ENDBRANCH  22  25
ENDBRANCH   8  19
TORSDOF 5
ENDMDL
MODEL 7
REMARK VINA RESULT:      -8.3      1.890      7.249
REMARK  5 active torsions:
REMARK  status: ('A' for Active; 'I' for Inactive)
REMARK    1  A    between atoms: C2_2  and  N1_3 
REMARK    2  A    between atoms: C2_2  and  C15_19 
REMARK    3  A    between atoms: N1_3  and  C3_4 
REMARK    4  A    between atoms: C8_11  and  C9_12 
REMARK    5  A    between atoms: C12_15  and  N4_16 
ROOT
HETATM    1  C3  UNL     1      24.187   2.750  51.502  1.00  0.00     0.138 A 
HETATM    2  N2  UNL     1      23.308   3.549  52.132  1.00  0.00    -0.224 NA
HETATM    3  C4  UNL     1      23.300   4.884  51.938  1.00  0.00     0.236 A 
HETATM    4  N3  UNL     1      24.165   5.531  51.104  1.00  0.00    -0.240 NA
HETATM    5  C5  UNL     1      25.058   4.757  50.458  1.00  0.00     0.083 A 
HETATM    6  C6  UNL     1      25.072   3.411  50.649  1.00  0.00     0.040 A 
HETATM    7  C7  UNL     1      26.179   3.283  49.723  1.00  0.00     0.032 A 
HETATM    8  C8  UNL     1      26.189   4.581  49.521  1.00  0.00     0.005 A 
ENDROOT
BRANCH   1   9
HETATM    9  N1  UNL     1      24.168   1.348  51.728  1.00  0.00    -0.366 N 
HETATM   10  H5  UNL     1      23.989   0.780  50.855  1.00  0.00     0.161 HD
BRANCH   9  11
HETATM   11  C2  UNL     1      24.372   0.746  53.032  1.00  0.00     0.112 C 
HETATM   12  C1  UNL     1      23.343  -0.349  53.188  1.00  0.00     0.037 C 
BRANCH  11  13
HETATM   13  C15 UNL     1      25.753   0.242  53.221  1.00  0.00    -0.036 A 
HETATM   14  C16 UNL     1      26.394   0.884  54.268  1.00  0.00     0.009 A 
HETATM   15  C17 UNL     1      27.706   0.544  54.600  1.00  0.00     0.001 A 
HETATM   16  C18 UNL     1      28.367  -0.415  53.902  1.00  0.00     0.000 A 
HETATM   17  C19 UNL     1      27.720  -1.053  52.857  1.00  0.00     0.001 A 
HETATM   18  C20 UNL     1      26.436  -0.729  52.524  1.00  0.00     0.009 A 
ENDBRANCH  11  13
ENDBRANCH   9  11
ENDBRANCH   1   9
BRANCH   8  19
HETATM   19  C9  UNL     1      26.932   5.567  48.741  1.00  0.00    -0.024 A 
HETATM   20  C10 UNL     1      26.363   6.710  48.210  1.00  0.00     0.014 A 
HETATM   21  C11 UNL     1      27.092   7.625  47.476  1.00  0.00     0.030 A 
HETATM   22  C12 UNL     1      28.431   7.342  47.293  1.00  0.00     0.025 A 
HETATM   23  C13 UNL     1      29.079   6.228  47.785  1.00  0.00     0.030 A 
HETATM   24  C14 UNL     1      28.296   5.333  48.523  1.00  0.00     0.014 A 
BRANCH  22  25
HETATM   25  N4  UNL     1      29.186   8.281  46.537  1.00  0.00    -0.399 N 
HETATM   26  H10 UNL     1      29.151   9.319  46.634  1.00  0.00     0.156 HD
HETATM   27  H11 UNL     1      29.866   8.004  45.794  1.00  0.00     0.156 HD
ENDBRANCH  22  25
ENDBRANCH   8  19
TORSDOF 5
ENDMDL
MODEL 8
REMARK VINA RESULT:      -8.1      2.766      7.846
REMARK  5 active torsions:
REMARK  status: ('A' for Active; 'I' for Inactive)
REMARK    1  A    between atoms: C2_2  and  N1_3 
REMARK    2  A    between atoms: C2_2  and  C15_19 
REMARK    3  A    between atoms: N1_3  and  C3_4 
REMARK    4  A    between atoms: C8_11  and  C9_12 
REMARK    5  A    between atoms: C12_15  and  N4_16 
ROOT
HETATM    1  C3  UNL     1      24.150   3.216  50.982  1.00  0.00     0.138 A 
HETATM    2  N2  UNL     1      23.344   4.135  51.544  1.00  0.00    -0.224 NA
HETATM    3  C4  UNL     1      23.553   5.456  51.375  1.00  0.00     0.236 A 
HETATM    4  N3  UNL     1      24.578   5.972  50.636  1.00  0.00    -0.240 NA
HETATM    5  C5  UNL     1      25.403   5.076  50.060  1.00  0.00     0.083 A 
HETATM    6  C6  UNL     1      25.199   3.743  50.225  1.00  0.00     0.040 A 
HETATM    7  C7  UNL     1      26.357   3.455  49.403  1.00  0.00     0.032 A 
HETATM    8  C8  UNL     1      26.577   4.739  49.226  1.00  0.00     0.005 A 
ENDROOT
BRANCH   1   9
HETATM    9  N1  UNL     1      23.903   1.832  51.179  1.00  0.00    -0.366 N 
HETATM   10  H5  UNL     1      23.362   1.381  50.390  1.00  0.00     0.161 HD
BRANCH   9  11
HETATM   11  C2  UNL     1      24.347   1.100  52.350  1.00  0.00     0.112 C 
HETATM   12  C1  UNL     1      25.209   2.035  53.164  1.00  0.00     0.037 C 
BRANCH  11  13
HETATM   13  C15 UNL     1      23.222   0.549  53.142  1.00  0.00    -0.036 A 
HETATM   14  C16 UNL     1      23.619  -0.527  53.918  1.00  0.00     0.009 A 
HETATM   15  C17 UNL     1      22.697  -1.180  54.736  1.00  0.00     0.001 A 
HETATM   16  C18 UNL     1      21.403  -0.769  54.780  1.00  0.00     0.000 A 
HETATM   17  C19 UNL     1      21.011   0.307  54.002  1.00  0.00     0.001 A 
HETATM   18  C20 UNL     1      21.906   0.954  53.198  1.00  0.00     0.009 A 
ENDBRANCH  11  13
ENDBRANCH   9  11
ENDBRANCH   1   9
BRANCH   8  19
HETATM   19  C9  UNL     1      27.527   5.606  48.536  1.00  0.00    -0.024 A 
HETATM   20  C10 UNL     1      28.867   5.305  48.381  1.00  0.00     0.014 A 
HETATM   21  C11 UNL     1      29.742   6.147  47.723  1.00  0.00     0.030 A 
HETATM   22  C12 UNL     1      29.211   7.318  47.221  1.00  0.00     0.025 A 
HETATM   23  C13 UNL     1      27.890   7.698  47.330  1.00  0.00     0.030 A 
HETATM   24  C14 UNL     1      27.045   6.810  48.005  1.00  0.00     0.014 A 
BRANCH  22  25
HETATM   25  N4  UNL     1      30.108   8.189  46.542  1.00  0.00    -0.399 N 
HETATM   26  H10 UNL     1      30.381   9.149  46.846  1.00  0.00     0.156 HD
HETATM   27  H11 UNL     1      30.590   7.934  45.651  1.00  0.00     0.156 HD
ENDBRANCH  22  25
ENDBRANCH   8  19
TORSDOF 5
ENDMDL
MODEL 9
REMARK VINA RESULT:      -8.1      3.391      6.946
REMARK  5 active torsions:
REMARK  status: ('A' for Active; 'I' for Inactive)
REMARK    1  A    between atoms: C2_2  and  N1_3 
REMARK    2  A    between atoms: C2_2  and  C15_19 
REMARK    3  A    between atoms: N1_3  and  C3_4 
REMARK    4  A    between atoms: C8_11  and  C9_12 
REMARK    5  A    between atoms: C12_15  and  N4_16 
ROOT
HETATM    1  C3  UNL     1      21.873   2.366  52.323  1.00  0.00     0.138 A 
HETATM    2  N2  UNL     1      22.140   3.557  51.758  1.00  0.00    -0.224 NA
HETATM    3  C4  UNL     1      23.405   3.981  51.566  1.00  0.00     0.236 A 
HETATM    4  N3  UNL     1      24.507   3.257  51.919  1.00  0.00    -0.240 NA
HETATM    5  C5  UNL     1      24.272   2.059  52.488  1.00  0.00     0.083 A 
HETATM    6  C6  UNL     1      22.999   1.625  52.685  1.00  0.00     0.040 A 
HETATM    7  C7  UNL     1      23.500   0.398  53.272  1.00  0.00     0.032 A 
HETATM    8  C8  UNL     1      24.740   0.793  53.094  1.00  0.00     0.005 A 
ENDROOT
BRANCH   1   9
HETATM    9  N1  UNL     1      20.529   1.949  52.511  1.00  0.00    -0.366 N 
HETATM   10  H5  UNL     1      20.131   2.212  53.454  1.00  0.00     0.161 HD
BRANCH   9  11
HETATM   11  C2  UNL     1      19.768   1.229  51.507  1.00  0.00     0.112 C 
HETATM   12  C1  UNL     1      20.751   0.711  50.484  1.00  0.00     0.037 C 
BRANCH  11  13
HETATM   13  C15 UNL     1      18.941   0.143  52.084  1.00  0.00    -0.036 A 
HETATM   14  C16 UNL     1      19.626  -0.556  53.064  1.00  0.00     0.009 A 
HETATM   15  C17 UNL     1      19.010  -1.619  53.726  1.00  0.00     0.001 A 
HETATM   16  C18 UNL     1      17.738  -1.979  53.417  1.00  0.00     0.000 A 
HETATM   17  C19 UNL     1      17.059  -1.277  52.436  1.00  0.00     0.001 A 
HETATM   18  C20 UNL     1      17.651  -0.234  51.782  1.00  0.00     0.009 A 
ENDBRANCH  11  13
ENDBRANCH   9  11
ENDBRANCH   1   9
BRANCH   8  19
HETATM   19  C9  UNL     1      26.095   0.306  53.337  1.00  0.00    -0.024 A 
HETATM   20  C10 UNL     1      26.950   0.856  54.274  1.00  0.00     0.014 A 
HETATM   21  C11 UNL     1      28.227   0.373  54.481  1.00  0.00     0.030 A 
HETATM   22  C12 UNL     1      28.616  -0.696  53.700  1.00  0.00     0.025 A 
HETATM   23  C13 UNL     1      27.831  -1.305  52.744  1.00  0.00     0.030 A 
HETATM   24  C14 UNL     1      26.546  -0.778  52.574  1.00  0.00     0.014 A 
BRANCH  22  25
HETATM   25  N4  UNL     1      29.932  -1.197  53.910  1.00  0.00    -0.399 N 
HETATM   26  H10 UNL     1      30.179  -2.159  54.230  1.00  0.00     0.156 HD
HETATM   27  H11 UNL     1      30.793  -0.628  53.756  1.00  0.00     0.156 HD
ENDBRANCH  22  25
ENDBRANCH   8  19
TORSDOF 5
ENDMDL
