MODEL 1
REMARK VINA RESULT:      -8.6      0.000      0.000
REMARK  5 active torsions:
REMARK  status: ('A' for Active; 'I' for Inactive)
REMARK    1  A    between atoms: C2_2  and  C3_3 
REMARK    2  A    between atoms: C3_3  and  C4_4 
REMARK    3  A    between atoms: C13_18  and  N4_19 
REMARK    4  A    between atoms: N4_19  and  C14_20 
REMARK    5  A    between atoms: C15_21  and  C16_22 
ROOT
HETATM    1  C4  UNL     1      26.941   0.106  53.750  1.00  0.00     0.166 C 
HETATM    2  N1  UNL     1      26.253  -0.247  54.995  1.00  0.00    -0.295 NA
HETATM    3  C5  UNL     1      25.119  -0.804  55.042  1.00  0.00     0.096 C 
HETATM    4  C6  UNL     1      23.729  -1.486  55.253  1.00  0.00     0.140 C 
HETATM    5  C7  UNL     1      22.883  -0.646  54.412  1.00  0.00    -0.091 C 
HETATM    6  C8  UNL     1      22.259   0.004  53.772  1.00  0.00    -0.005 C 
HETATM    7  C9  UNL     1      21.515   0.817  52.978  1.00  0.00     0.300 C 
HETATM    8  O1  UNL     1      20.773   1.448  52.323  1.00  0.00    -0.258 OA
HETATM    9  N2  UNL     1      22.748   1.654  52.665  1.00  0.00    -0.318 N 
HETATM   10  C10 UNL     1      23.901   2.462  52.354  1.00  0.00     0.038 C 
HETATM   11  C11 UNL     1      24.662   3.027  53.342  1.00  0.00     0.162 C 
HETATM   12  O2  UNL     1      25.765   2.146  53.638  1.00  0.00    -0.325 OA
HETATM   13  C12 UNL     1      26.049   0.919  52.930  1.00  0.00     0.389 C 
HETATM   14  N3  UNL     1      26.363   1.148  51.544  1.00  0.00     0.138 N 
HETATM   15  C13 UNL     1      25.961   2.409  51.026  1.00  0.00     0.328 C 
HETATM   16  C19 UNL     1      24.438   2.650  50.961  1.00  0.00     0.116 C 
HETATM   17  H12 UNL     1      22.583   2.537  52.075  1.00  0.00     0.169 HD
HETATM   18  H15 UNL     1      27.395   1.118  51.457  1.00  0.00     0.322 HD
ENDROOT
BRANCH  15  19
HETATM   19  N4  UNL     1      26.574   2.761  49.793  1.00  0.00    -0.370 N 
HETATM   20  H17 UNL     1      27.110   2.592  48.942  1.00  0.00     0.161 HD
BRANCH  19  21
HETATM   21  C14 UNL     1      26.175   4.159  49.833  1.00  0.00     0.085 C 
HETATM   22  C15 UNL     1      26.858   4.955  49.004  1.00  0.00     0.019 C 
BRANCH  22  23
HETATM   23  C16 UNL     1      27.174   6.243  48.407  1.00  0.00     0.038 C 
HETATM   24  C17 UNL     1      28.131   7.009  47.860  1.00  0.00     0.090 C 
HETATM   25  C18 UNL     1      29.478   6.374  47.772  1.00  0.00     0.082 C 
HETATM   26  F1  UNL     1      27.613   8.202  47.508  1.00  0.00    -0.211 F 
ENDBRANCH  22  23
ENDBRANCH  19  21
ENDBRANCH  15  19
BRANCH   1  27
HETATM   27  C3  UNL     1      27.414  -1.179  53.122  1.00  0.00     0.031 C 
BRANCH  27  28
HETATM   28  C2  UNL     1      28.869  -1.351  53.515  1.00  0.00    -0.002 C 
HETATM   29  C1  UNL     1      29.653  -0.084  53.533  1.00  0.00     0.005 C 
ENDBRANCH  27  28
ENDBRANCH   1  27
TORSDOF 5
ENDMDL
MODEL 2
REMARK VINA RESULT:      -8.0      3.593      6.084
REMARK  5 active torsions:
REMARK  status: ('A' for Active; 'I' for Inactive)
REMARK    1  A    between atoms: C2_2  and  C3_3 
REMARK    2  A    between atoms: C3_3  and  C4_4 
REMARK    3  A    between atoms: C13_18  and  N4_19 
REMARK    4  A    between atoms: N4_19  and  C14_20 
REMARK    5  A    between atoms: C15_21  and  C16_22 
ROOT
HETATM    1  C4  UNL     1      21.665   0.897  53.307  1.00  0.00     0.166 C 
HETATM    2  N1  UNL     1      20.272   1.096  52.894  1.00  0.00    -0.295 NA
HETATM    3  C5  UNL     1      19.833   0.830  51.739  1.00  0.00     0.096 C 
HETATM    4  C6  UNL     1      19.153   0.551  50.360  1.00  0.00     0.140 C 
HETATM    5  C7  UNL     1      20.066   1.250  49.461  1.00  0.00    -0.091 C 
HETATM    6  C8  UNL     1      20.768   1.787  48.797  1.00  0.00    -0.005 C 
HETATM    7  C9  UNL     1      21.645   2.454  48.003  1.00  0.00     0.300 C 
HETATM    8  O1  UNL     1      22.332   2.993  47.220  1.00  0.00    -0.258 OA
HETATM    9  N2  UNL     1      22.444   2.877  49.229  1.00  0.00    -0.318 N 
HETATM   10  C10 UNL     1      23.217   3.292  50.373  1.00  0.00     0.038 C 
HETATM   11  C11 UNL     1      22.639   3.960  51.419  1.00  0.00     0.162 C 
HETATM   12  O2  UNL     1      22.261   3.003  52.429  1.00  0.00    -0.325 OA
HETATM   13  C12 UNL     1      22.541   1.587  52.364  1.00  0.00     0.389 C 
HETATM   14  N3  UNL     1      23.953   1.308  52.366  1.00  0.00     0.138 N 
HETATM   15  C13 UNL     1      24.793   2.405  52.029  1.00  0.00     0.328 C 
HETATM   16  C19 UNL     1      24.662   2.927  50.582  1.00  0.00     0.116 C 
HETATM   17  H12 UNL     1      23.263   3.551  49.050  1.00  0.00     0.169 HD
HETATM   18  H15 UNL     1      24.209   1.039  53.333  1.00  0.00     0.322 HD
ENDROOT
BRANCH  15  19
HETATM   19  N4  UNL     1      26.160   2.225  52.372  1.00  0.00    -0.370 N 
HETATM   20  H17 UNL     1      27.074   2.510  52.722  1.00  0.00     0.161 HD
BRANCH  19  21
HETATM   21  C14 UNL     1      26.222   0.828  51.967  1.00  0.00     0.085 C 
HETATM   22  C15 UNL     1      27.146   0.106  52.608  1.00  0.00     0.019 C 
BRANCH  22  23
HETATM   23  C16 UNL     1      27.871  -1.125  52.884  1.00  0.00     0.038 C 
HETATM   24  C17 UNL     1      29.033  -1.664  53.282  1.00  0.00     0.090 C 
HETATM   25  C18 UNL     1      30.106  -0.682  53.613  1.00  0.00     0.082 C 
HETATM   26  F1  UNL     1      28.932  -3.007  53.291  1.00  0.00    -0.211 F 
ENDBRANCH  22  23
ENDBRANCH  19  21
ENDBRANCH  15  19
BRANCH   1  27
HETATM   27  C3  UNL     1      21.885  -0.587  53.435  1.00  0.00     0.031 C 
BRANCH  27  28
HETATM   28  C2  UNL     1      21.898  -0.903  54.918  1.00  0.00    -0.002 C 
HETATM   29  C1  UNL     1      23.234  -1.295  55.449  1.00  0.00     0.005 C 
ENDBRANCH  27  28
ENDBRANCH   1  27
TORSDOF 5
ENDMDL
MODEL 3
REMARK VINA RESULT:      -7.8      3.436      6.631
REMARK  5 active torsions:
REMARK  status: ('A' for Active; 'I' for Inactive)
REMARK    1  A    between atoms: C2_2  and  C3_3 
REMARK    2  A    between atoms: C3_3  and  C4_4 
REMARK    3  A    between atoms: C13_18  and  N4_19 
REMARK    4  A    between atoms: N4_19  and  C14_20 
REMARK    5  A    between atoms: C15_21  and  C16_22 
ROOT
HETATM    1  C4  UNL     1      24.230   3.173  49.434  1.00  0.00     0.166 C 
HETATM    2  N1  UNL     1      23.450   3.875  48.411  1.00  0.00    -0.295 NA
HETATM    3  C5  UNL     1      22.555   4.729  48.668  1.00  0.00     0.096 C 
HETATM    4  C6  UNL     1      21.426   5.798  48.835  1.00  0.00     0.140 C 
HETATM    5  C7  UNL     1      20.549   5.120  49.784  1.00  0.00    -0.091 C 
HETATM    6  C8  UNL     1      19.896   4.589  50.501  1.00  0.00    -0.005 C 
HETATM    7  C9  UNL     1      19.111   3.915  51.382  1.00  0.00     0.300 C 
HETATM    8  O1  UNL     1      18.358   3.434  52.141  1.00  0.00    -0.258 OA
HETATM    9  N2  UNL     1      20.067   2.730  51.338  1.00  0.00    -0.318 N 
HETATM   10  C10 UNL     1      20.956   1.595  51.314  1.00  0.00     0.038 C 
HETATM   11  C11 UNL     1      21.297   0.983  50.137  1.00  0.00     0.162 C 
HETATM   12  O2  UNL     1      22.534   1.550  49.662  1.00  0.00    -0.325 OA
HETATM   13  C12 UNL     1      23.313   2.536  50.375  1.00  0.00     0.389 C 
HETATM   14  N3  UNL     1      23.810   2.037  51.630  1.00  0.00     0.138 N 
HETATM   15  C13 UNL     1      23.154   0.880  52.131  1.00  0.00     0.328 C 
HETATM   16  C19 UNL     1      21.674   1.070  52.527  1.00  0.00     0.116 C 
HETATM   17  H12 UNL     1      19.760   1.855  51.883  1.00  0.00     0.169 HD
HETATM   18  H15 UNL     1      24.798   1.762  51.478  1.00  0.00     0.322 HD
ENDROOT
BRANCH  15  19
HETATM   19  N4  UNL     1      23.862   0.201  53.159  1.00  0.00    -0.370 N 
HETATM   20  H17 UNL     1      23.957  -0.344  54.016  1.00  0.00     0.161 HD
BRANCH  19  21
HETATM   21  C14 UNL     1      25.186   0.487  52.628  1.00  0.00     0.085 C 
HETATM   22  C15 UNL     1      26.130  -0.386  52.993  1.00  0.00     0.019 C 
BRANCH  22  23
HETATM   23  C16 UNL     1      27.493  -0.895  53.006  1.00  0.00     0.038 C 
HETATM   24  C17 UNL     1      28.708  -0.800  53.568  1.00  0.00     0.090 C 
HETATM   25  C18 UNL     1      28.829   0.221  54.648  1.00  0.00     0.082 C 
HETATM   26  F1  UNL     1      29.543  -1.690  52.998  1.00  0.00    -0.211 F 
ENDBRANCH  22  23
ENDBRANCH  19  21
ENDBRANCH  15  19
BRANCH   1  27
HETATM   27  C3  UNL     1      25.187   4.171  50.029  1.00  0.00     0.031 C 
BRANCH  27  28
HETATM   28  C2  UNL     1      26.583   3.739  49.624  1.00  0.00    -0.002 C 
HETATM   29  C1  UNL     1      27.328   4.751  48.822  1.00  0.00     0.005 C 
ENDBRANCH  27  28
ENDBRANCH   1  27
TORSDOF 5
ENDMDL
MODEL 4
REMARK VINA RESULT:      -7.7      1.464      1.773
REMARK  5 active torsions:
REMARK  status: ('A' for Active; 'I' for Inactive)
REMARK    1  A    between atoms: C2_2  and  C3_3 
REMARK    2  A    between atoms: C3_3  and  C4_4 
REMARK    3  A    between atoms: C13_18  and  N4_19 
REMARK    4  A    between atoms: N4_19  and  C14_20 
REMARK    5  A    between atoms: C15_21  and  C16_22 
ROOT
HETATM    1  C4  UNL     1      26.038   0.790  53.151  1.00  0.00     0.166 C 
HETATM    2  N1  UNL     1      24.986   0.350  54.072  1.00  0.00    -0.295 NA
HETATM    3  C5  UNL     1      23.952  -0.283  53.714  1.00  0.00     0.096 C 
HETATM    4  C6  UNL     1      22.631  -1.063  53.418  1.00  0.00     0.140 C 
HETATM    5  C7  UNL     1      22.072  -0.253  52.341  1.00  0.00    -0.091 C 
HETATM    6  C8  UNL     1      21.665   0.376  51.528  1.00  0.00    -0.005 C 
HETATM    7  C9  UNL     1      21.185   1.164  50.531  1.00  0.00     0.300 C 
HETATM    8  O1  UNL     1      20.674   1.766  49.663  1.00  0.00    -0.258 OA
HETATM    9  N2  UNL     1      22.385   2.091  50.678  1.00  0.00    -0.318 N 
HETATM   10  C10 UNL     1      23.510   2.985  50.797  1.00  0.00     0.038 C 
HETATM   11  C11 UNL     1      23.834   3.565  51.995  1.00  0.00     0.162 C 
HETATM   12  O2  UNL     1      24.827   2.750  52.651  1.00  0.00    -0.325 OA
HETATM   13  C12 UNL     1      25.430   1.570  52.077  1.00  0.00     0.389 C 
HETATM   14  N3  UNL     1      26.190   1.866  50.891  1.00  0.00     0.138 N 
HETATM   15  C13 UNL     1      25.902   3.115  50.276  1.00  0.00     0.328 C 
HETATM   16  C19 UNL     1      24.484   3.256  49.683  1.00  0.00     0.116 C 
HETATM   17  H12 UNL     1      22.370   2.981  50.074  1.00  0.00     0.169 HD
HETATM   18  H15 UNL     1      27.187   1.909  51.171  1.00  0.00     0.322 HD
ENDROOT
BRANCH  15  19
HETATM   19  N4  UNL     1      26.879   3.549  49.339  1.00  0.00    -0.370 N 
HETATM   20  H17 UNL     1      27.684   3.443  48.722  1.00  0.00     0.161 HD
BRANCH  19  21
HETATM   21  C14 UNL     1      26.406   4.923  49.271  1.00  0.00     0.085 C 
HETATM   22  C15 UNL     1      27.223   5.759  48.622  1.00  0.00     0.019 C 
BRANCH  22  23
HETATM   23  C16 UNL     1      27.601   7.066  48.107  1.00  0.00     0.038 C 
HETATM   24  C17 UNL     1      27.676   8.381  48.363  1.00  0.00     0.090 C 
HETATM   25  C18 UNL     1      27.204   8.791  49.717  1.00  0.00     0.082 C 
HETATM   26  F1  UNL     1      28.185   9.023  47.294  1.00  0.00    -0.211 F 
ENDBRANCH  22  23
ENDBRANCH  19  21
ENDBRANCH  15  19
BRANCH   1  27
HETATM   27  C3  UNL     1      26.794  -0.438  52.718  1.00  0.00     0.031 C 
BRANCH  27  28
HETATM   28  C2  UNL     1      28.244  -0.221  53.106  1.00  0.00    -0.002 C 
HETATM   29  C1  UNL     1      28.468  -0.049  54.569  1.00  0.00     0.005 C 
ENDBRANCH  27  28
ENDBRANCH   1  27
TORSDOF 5
ENDMDL
MODEL 5
REMARK VINA RESULT:      -7.4      3.257      5.034
REMARK  5 active torsions:
REMARK  status: ('A' for Active; 'I' for Inactive)
REMARK    1  A    between atoms: C2_2  and  C3_3 
REMARK    2  A    between atoms: C3_3  and  C4_4 
REMARK    3  A    between atoms: C13_18  and  N4_19 
REMARK    4  A    between atoms: N4_19  and  C14_20 
REMARK    5  A    between atoms: C15_21  and  C16_22 
ROOT
HETATM    1  C4  UNL     1      25.346   3.244  51.322  1.00  0.00     0.166 C 
HETATM    2  N1  UNL     1      24.020   2.655  51.535  1.00  0.00    -0.295 NA
HETATM    3  C5  UNL     1      23.295   2.196  50.608  1.00  0.00     0.096 C 
HETATM    4  C6  UNL     1      22.293   1.597  49.569  1.00  0.00     0.140 C 
HETATM    5  C7  UNL     1      22.229   2.681  48.595  1.00  0.00    -0.091 C 
HETATM    6  C8  UNL     1      22.193   3.515  47.870  1.00  0.00    -0.005 C 
HETATM    7  C9  UNL     1      22.167   4.553  46.994  1.00  0.00     0.300 C 
HETATM    8  O1  UNL     1      22.064   5.381  46.170  1.00  0.00    -0.258 OA
HETATM    9  N2  UNL     1      23.118   5.339  47.887  1.00  0.00    -0.318 N 
HETATM   10  C10 UNL     1      24.018   6.105  48.715  1.00  0.00     0.038 C 
HETATM   11  C11 UNL     1      23.738   6.349  50.033  1.00  0.00     0.162 C 
HETATM   12  O2  UNL     1      24.376   5.338  50.838  1.00  0.00    -0.325 OA
HETATM   13  C12 UNL     1      25.240   4.301  50.321  1.00  0.00     0.389 C 
HETATM   14  N3  UNL     1      26.432   4.834  49.715  1.00  0.00     0.138 N 
HETATM   15  C13 UNL     1      26.378   6.212  49.368  1.00  0.00     0.328 C 
HETATM   16  C19 UNL     1      25.370   6.582  48.260  1.00  0.00     0.116 C 
HETATM   17  H12 UNL     1      23.324   6.350  47.583  1.00  0.00     0.169 HD
HETATM   18  H15 UNL     1      27.193   4.744  50.412  1.00  0.00     0.322 HD
ENDROOT
BRANCH  15  19
HETATM   19  N4  UNL     1      27.644   6.802  49.108  1.00  0.00    -0.370 N 
HETATM   20  H17 UNL     1      28.347   7.540  49.137  1.00  0.00     0.161 HD
BRANCH  19  21
HETATM   21  C14 UNL     1      28.188   5.656  48.396  1.00  0.00     0.085 C 
HETATM   22  C15 UNL     1      29.506   5.711  48.181  1.00  0.00     0.019 C 
BRANCH  22  23
HETATM   23  C16 UNL     1      30.761   5.186  47.664  1.00  0.00     0.038 C 
HETATM   24  C17 UNL     1      32.039   5.461  47.363  1.00  0.00     0.090 C 
HETATM   25  C18 UNL     1      32.468   6.863  47.637  1.00  0.00     0.082 C 
HETATM   26  F1  UNL     1      32.639   4.356  46.878  1.00  0.00    -0.211 F 
ENDBRANCH  22  23
ENDBRANCH  19  21
ENDBRANCH  15  19
BRANCH   1  27
HETATM   27  C3  UNL     1      26.286   2.117  50.983  1.00  0.00     0.031 C 
BRANCH  27  28
HETATM   28  C2  UNL     1      26.505   1.328  52.260  1.00  0.00    -0.002 C 
HETATM   29  C1  UNL     1      26.648  -0.141  52.055  1.00  0.00     0.005 C 
ENDBRANCH  27  28
ENDBRANCH   1  27
TORSDOF 5
ENDMDL
MODEL 6
REMARK VINA RESULT:      -7.3      3.910      7.627
REMARK  5 active torsions:
REMARK  status: ('A' for Active; 'I' for Inactive)
REMARK    1  A    between atoms: C2_2  and  C3_3 
REMARK    2  A    between atoms: C3_3  and  C4_4 
REMARK    3  A    between atoms: C13_18  and  N4_19 
REMARK    4  A    between atoms: N4_19  and  C14_20 
REMARK    5  A    between atoms: C15_21  and  C16_22 
ROOT
HETATM    1  C4  UNL     1      25.909   2.628  50.395  1.00  0.00     0.166 C 
HETATM    2  N1  UNL     1      26.785   2.999  49.280  1.00  0.00    -0.295 NA
HETATM    3  C5  UNL     1      27.158   4.183  49.038  1.00  0.00     0.096 C 
HETATM    4  C6  UNL     1      27.694   5.589  48.617  1.00  0.00     0.140 C 
HETATM    5  C7  UNL     1      26.452   6.354  48.579  1.00  0.00    -0.091 C 
HETATM    6  C8  UNL     1      25.500   6.914  48.553  1.00  0.00    -0.005 C 
HETATM    7  C9  UNL     1      24.317   7.582  48.530  1.00  0.00     0.300 C 
HETATM    8  O1  UNL     1      23.361   8.260  48.477  1.00  0.00    -0.258 OA
HETATM    9  N2  UNL     1      23.579   6.301  48.900  1.00  0.00    -0.318 N 
HETATM   10  C10 UNL     1      22.858   5.103  49.250  1.00  0.00     0.038 C 
HETATM   11  C11 UNL     1      22.981   3.957  48.511  1.00  0.00     0.162 C 
HETATM   12  O2  UNL     1      23.999   3.128  49.107  1.00  0.00    -0.325 OA
HETATM   13  C12 UNL     1      24.696   3.438  50.334  1.00  0.00     0.389 C 
HETATM   14  N3  UNL     1      23.810   3.485  51.468  1.00  0.00     0.138 N 
HETATM   15  C13 UNL     1      22.430   3.627  51.160  1.00  0.00     0.328 C 
HETATM   16  C19 UNL     1      22.027   4.961  50.497  1.00  0.00     0.116 C 
HETATM   17  H12 UNL     1      22.506   6.362  48.913  1.00  0.00     0.169 HD
HETATM   18  H15 UNL     1      23.901   2.579  51.963  1.00  0.00     0.322 HD
ENDROOT
BRANCH  15  19
HETATM   19  N4  UNL     1      21.553   3.322  52.236  1.00  0.00    -0.370 N 
HETATM   20  H17 UNL     1      20.800   3.503  52.899  1.00  0.00     0.161 HD
BRANCH  19  21
HETATM   21  C14 UNL     1      22.091   1.993  52.481  1.00  0.00     0.085 C 
HETATM   22  C15 UNL     1      21.233   1.144  53.057  1.00  0.00     0.019 C 
BRANCH  22  23
HETATM   23  C16 UNL     1      20.860  -0.147  53.613  1.00  0.00     0.038 C 
HETATM   24  C17 UNL     1      21.264  -1.203  54.337  1.00  0.00     0.090 C 
HETATM   25  C18 UNL     1      22.667  -1.129  54.838  1.00  0.00     0.082 C 
HETATM   26  F1  UNL     1      20.259  -2.094  54.439  1.00  0.00    -0.211 F 
ENDBRANCH  22  23
ENDBRANCH  19  21
ENDBRANCH  15  19
BRANCH   1  27
HETATM   27  C3  UNL     1      26.717   2.759  51.660  1.00  0.00     0.031 C 
BRANCH  27  28
HETATM   28  C2  UNL     1      27.008   1.352  52.144  1.00  0.00    -0.002 C 
HETATM   29  C1  UNL     1      25.794   0.511  52.348  1.00  0.00     0.005 C 
ENDBRANCH  27  28
ENDBRANCH   1  27
TORSDOF 5
ENDMDL
MODEL 7
REMARK VINA RESULT:      -7.1      3.614      6.360
REMARK  5 active torsions:
REMARK  status: ('A' for Active; 'I' for Inactive)
REMARK    1  A    between atoms: C2_2  and  C3_3 
REMARK    2  A    between atoms: C3_3  and  C4_4 
REMARK    3  A    between atoms: C13_18  and  N4_19 
REMARK    4  A    between atoms: N4_19  and  C14_20 
REMARK    5  A    between atoms: C15_21  and  C16_22 
ROOT
HETATM    1  C4  UNL     1      18.667   2.182  50.831  1.00  0.00     0.166 C 
HETATM    2  N1  UNL     1      17.899   0.943  50.674  1.00  0.00    -0.295 NA
HETATM    3  C5  UNL     1      17.631   0.153  51.623  1.00  0.00     0.096 C 
HETATM    4  C6  UNL     1      17.229  -0.913  52.694  1.00  0.00     0.140 C 
HETATM    5  C7  UNL     1      18.524  -1.180  53.312  1.00  0.00    -0.091 C 
HETATM    6  C8  UNL     1      19.514  -1.369  53.764  1.00  0.00    -0.005 C 
HETATM    7  C9  UNL     1      20.742  -1.584  54.304  1.00  0.00     0.300 C 
HETATM    8  O1  UNL     1      21.747  -1.851  54.848  1.00  0.00    -0.258 OA
HETATM    9  N2  UNL     1      21.357  -0.602  53.316  1.00  0.00    -0.318 N 
HETATM   10  C10 UNL     1      21.963   0.324  52.391  1.00  0.00     0.038 C 
HETATM   11  C11 UNL     1      21.806   0.183  51.038  1.00  0.00     0.162 C 
HETATM   12  O2  UNL     1      20.692   0.993  50.613  1.00  0.00    -0.325 OA
HETATM   13  C12 UNL     1      19.938   1.871  51.479  1.00  0.00     0.389 C 
HETATM   14  N3  UNL     1      20.746   2.935  52.015  1.00  0.00     0.138 N 
HETATM   15  C13 UNL     1      22.151   2.728  51.951  1.00  0.00     0.328 C 
HETATM   16  C19 UNL     1      22.694   1.569  52.813  1.00  0.00     0.116 C 
HETATM   17  H12 UNL     1      22.428  -0.517  53.339  1.00  0.00     0.169 HD
HETATM   18  H15 UNL     1      20.555   3.779  51.444  1.00  0.00     0.322 HD
ENDROOT
BRANCH  15  19
HETATM   19  N4  UNL     1      22.928   3.901  52.148  1.00  0.00    -0.370 N 
HETATM   20  H17 UNL     1      23.084   4.883  52.377  1.00  0.00     0.161 HD
BRANCH  19  21
HETATM   21  C14 UNL     1      24.202   3.282  51.818  1.00  0.00     0.085 C 
HETATM   22  C15 UNL     1      24.861   3.869  50.815  1.00  0.00     0.019 C 
BRANCH  22  23
HETATM   23  C16 UNL     1      25.983   3.999  49.898  1.00  0.00     0.038 C 
HETATM   24  C17 UNL     1      26.649   4.815  49.067  1.00  0.00     0.090 C 
HETATM   25  C18 UNL     1      26.101   6.198  48.962  1.00  0.00     0.082 C 
HETATM   26  F1  UNL     1      27.690   4.156  48.520  1.00  0.00    -0.211 F 
ENDBRANCH  22  23
ENDBRANCH  19  21
ENDBRANCH  15  19
BRANCH   1  27
HETATM   27  C3  UNL     1      17.787   3.164  51.559  1.00  0.00     0.031 C 
BRANCH  27  28
HETATM   28  C2  UNL     1      17.348   4.199  50.542  1.00  0.00    -0.002 C 
HETATM   29  C1  UNL     1      18.432   4.659  49.629  1.00  0.00     0.005 C 
ENDBRANCH  27  28
ENDBRANCH   1  27
TORSDOF 5
ENDMDL
MODEL 8
REMARK VINA RESULT:      -7.0      8.537     11.158
REMARK  5 active torsions:
REMARK  status: ('A' for Active; 'I' for Inactive)
REMARK    1  A    between atoms: C2_2  and  C3_3 
REMARK    2  A    between atoms: C3_3  and  C4_4 
REMARK    3  A    between atoms: C13_18  and  N4_19 
REMARK    4  A    between atoms: N4_19  and  C14_20 
REMARK    5  A    between atoms: C15_21  and  C16_22 
ROOT
HETATM    1  C4  UNL     1      32.519   4.210  46.929  1.00  0.00     0.166 C 
HETATM    2  N1  UNL     1      31.806   4.703  48.112  1.00  0.00    -0.295 NA
HETATM    3  C5  UNL     1      30.655   5.224  48.077  1.00  0.00     0.096 C 
HETATM    4  C6  UNL     1      29.244   5.887  48.186  1.00  0.00     0.140 C 
HETATM    5  C7  UNL     1      29.355   6.931  47.174  1.00  0.00    -0.091 C 
HETATM    6  C8  UNL     1      29.461   7.718  46.404  1.00  0.00    -0.005 C 
HETATM    7  C9  UNL     1      29.616   8.676  45.454  1.00  0.00     0.300 C 
HETATM    8  O1  UNL     1      29.631   9.538  44.658  1.00  0.00    -0.258 OA
HETATM    9  N2  UNL     1      31.047   8.215  45.211  1.00  0.00    -0.318 N 
HETATM   10  C10 UNL     1      32.405   7.797  44.962  1.00  0.00     0.038 C 
HETATM   11  C11 UNL     1      33.323   7.722  45.975  1.00  0.00     0.162 C 
HETATM   12  O2  UNL     1      33.345   6.373  46.483  1.00  0.00    -0.325 OA
HETATM   13  C12 UNL     1      32.580   5.277  45.935  1.00  0.00     0.389 C 
HETATM   14  N3  UNL     1      32.958   4.970  44.580  1.00  0.00     0.138 N 
HETATM   15  C13 UNL     1      33.677   5.991  43.900  1.00  0.00     0.328 C 
HETATM   16  C19 UNL     1      32.894   7.293  43.632  1.00  0.00     0.116 C 
HETATM   17  H12 UNL     1      31.624   8.806  44.523  1.00  0.00     0.169 HD
HETATM   18  H15 UNL     1      33.593   4.152  44.620  1.00  0.00     0.322 HD
ENDROOT
BRANCH  15  19
HETATM   19  N4  UNL     1      34.340   5.557  42.721  1.00  0.00    -0.370 N 
HETATM   20  H17 UNL     1      35.084   5.551  42.023  1.00  0.00     0.161 HD
BRANCH  19  21
HETATM   21  C14 UNL     1      33.340   4.565  42.356  1.00  0.00     0.085 C 
HETATM   22  C15 UNL     1      33.691   3.770  41.340  1.00  0.00     0.019 C 
BRANCH  22  23
HETATM   23  C16 UNL     1      33.456   2.688  40.397  1.00  0.00     0.038 C 
HETATM   24  C17 UNL     1      32.560   2.082  39.603  1.00  0.00     0.090 C 
HETATM   25  C18 UNL     1      31.198   2.691  39.604  1.00  0.00     0.082 C 
HETATM   26  F1  UNL     1      33.140   1.041  38.975  1.00  0.00    -0.211 F 
ENDBRANCH  22  23
ENDBRANCH  19  21
ENDBRANCH  15  19
BRANCH   1  27
HETATM   27  C3  UNL     1      31.830   2.946  46.488  1.00  0.00     0.031 C 
BRANCH  27  28
HETATM   28  C2  UNL     1      32.636   1.788  47.045  1.00  0.00    -0.002 C 
HETATM   29  C1  UNL     1      32.082   0.444  46.720  1.00  0.00     0.005 C 
ENDBRANCH  27  28
ENDBRANCH   1  27
TORSDOF 5
ENDMDL
MODEL 9
REMARK VINA RESULT:      -7.0      4.233      7.272
REMARK  5 active torsions:
REMARK  status: ('A' for Active; 'I' for Inactive)
REMARK    1  A    between atoms: C2_2  and  C3_3 
REMARK    2  A    between atoms: C3_3  and  C4_4 
REMARK    3  A    between atoms: C13_18  and  N4_19 
REMARK    4  A    between atoms: N4_19  and  C14_20 
REMARK    5  A    between atoms: C15_21  and  C16_22 
ROOT
HETATM    1  C4  UNL     1      20.999   2.517  50.345  1.00  0.00     0.166 C 
HETATM    2  N1  UNL     1      20.175   2.833  49.174  1.00  0.00    -0.295 NA
HETATM    3  C5  UNL     1      20.644   3.196  48.058  1.00  0.00     0.096 C 
HETATM    4  C6  UNL     1      21.078   3.655  46.628  1.00  0.00     0.140 C 
HETATM    5  C7  UNL     1      21.962   4.769  46.957  1.00  0.00    -0.091 C 
HETATM    6  C8  UNL     1      22.626   5.611  47.227  1.00  0.00    -0.005 C 
HETATM    7  C9  UNL     1      23.436   6.640  47.585  1.00  0.00     0.300 C 
HETATM    8  O1  UNL     1      24.158   7.546  47.772  1.00  0.00    -0.258 OA
HETATM    9  N2  UNL     1      23.116   6.391  49.053  1.00  0.00    -0.318 N 
HETATM   10  C10 UNL     1      22.830   6.176  50.450  1.00  0.00     0.038 C 
HETATM   11  C11 UNL     1      21.543   6.160  50.918  1.00  0.00     0.162 C 
HETATM   12  O2  UNL     1      21.077   4.796  50.947  1.00  0.00    -0.325 OA
HETATM   13  C12 UNL     1      21.886   3.645  50.617  1.00  0.00     0.389 C 
HETATM   14  N3  UNL     1      22.994   3.479  51.520  1.00  0.00     0.138 N 
HETATM   15  C13 UNL     1      23.339   4.629  52.283  1.00  0.00     0.328 C 
HETATM   16  C19 UNL     1      23.876   5.830  51.475  1.00  0.00     0.116 C 
HETATM   17  H12 UNL     1      23.526   7.098  49.753  1.00  0.00     0.169 HD
HETATM   18  H15 UNL     1      22.722   2.753  52.207  1.00  0.00     0.322 HD
ENDROOT
BRANCH  15  19
HETATM   19  N4  UNL     1      24.178   4.365  53.398  1.00  0.00    -0.370 N 
HETATM   20  H17 UNL     1      24.684   4.594  54.254  1.00  0.00     0.161 HD
BRANCH  19  21
HETATM   21  C14 UNL     1      24.407   2.966  53.072  1.00  0.00     0.085 C 
HETATM   22  C15 UNL     1      25.461   2.418  53.685  1.00  0.00     0.019 C 
BRANCH  22  23
HETATM   23  C16 UNL     1      26.366   1.317  53.978  1.00  0.00     0.038 C 
HETATM   24  C17 UNL     1      26.969   0.219  53.498  1.00  0.00     0.090 C 
HETATM   25  C18 UNL     1      26.662  -0.104  52.075  1.00  0.00     0.082 C 
HETATM   26  F1  UNL     1      27.737  -0.333  54.458  1.00  0.00    -0.211 F 
ENDBRANCH  22  23
ENDBRANCH  19  21
ENDBRANCH  15  19
BRANCH   1  27
HETATM   27  C3  UNL     1      21.681   1.203  50.069  1.00  0.00     0.031 C 
BRANCH  27  28
HETATM   28  C2  UNL     1      21.181   0.221  51.111  1.00  0.00    -0.002 C 
HETATM   29  C1  UNL     1      22.038   0.128  52.326  1.00  0.00     0.005 C 
ENDBRANCH  27  28
ENDBRANCH   1  27
TORSDOF 5
ENDMDL
