MODEL 1
REMARK VINA RESULT:      -7.9      0.000      0.000
REMARK  8 active torsions:
REMARK  status: ('A' for Active; 'I' for Inactive)
REMARK    1  A    between atoms: N1_2  and  C2_3 
REMARK    2  A    between atoms: C5_8  and  C6_9 
REMARK    3  A    between atoms: C6_9  and  C7_10 
REMARK    4  A    between atoms: C7_10  and  C8_11 
REMARK    5  A    between atoms: C8_11  and  C9_12 
REMARK    6  A    between atoms: C9_12  and  O1_13 
REMARK    7  A    between atoms: C10_14  and  C11_15 
REMARK    8  A    between atoms: C15_19  and  O2_20 
ROOT
HETATM    1  C2  UNL     1      27.851  -0.693  53.182  1.00  0.00     0.446 C 
HETATM    2  N2  UNL     1      27.843   0.362  54.207  1.00  0.00    -0.232 NA
HETATM    3  C3  UNL     1      27.046   1.357  54.003  1.00  0.00     0.191 C 
HETATM    4  N3  UNL     1      26.053   2.082  53.247  1.00  0.00    -0.399 NA
HETATM    5  C4  UNL     1      24.901   1.617  53.058  1.00  0.00     0.340 C 
HETATM    6  C5  UNL     1      23.603   1.803  52.471  1.00  0.00    -0.002 C 
HETATM    7  C10 UNL     1      22.704   0.701  52.666  1.00  0.00     0.075 C 
HETATM    8  N4  UNL     1      23.244  -0.230  53.300  1.00  0.00    -0.258 NA
HETATM    9  C17 UNL     1      24.431  -0.524  53.869  1.00  0.00     0.134 C 
HETATM   10  C18 UNL     1      25.550  -1.121  53.505  1.00  0.00     0.106 C 
HETATM   11  N5  UNL     1      26.856  -1.667  53.502  1.00  0.00    -0.351 N 
HETATM   12  H21 UNL     1      26.950  -2.696  53.729  1.00  0.00     0.162 HD
ENDROOT
BRANCH   7  13
HETATM   13  C11 UNL     1      21.357   0.491  52.253  1.00  0.00    -0.004 A 
HETATM   14  C12 UNL     1      20.654   0.684  51.103  1.00  0.00     0.014 A 
HETATM   15  C13 UNL     1      19.354   0.415  50.772  1.00  0.00     0.004 A 
HETATM   16  C14 UNL     1      18.620  -0.155  51.786  1.00  0.00     0.036 A 
HETATM   17  C15 UNL     1      19.167  -0.421  53.012  1.00  0.00     0.066 A 
HETATM   18  C16 UNL     1      20.493  -0.092  53.192  1.00  0.00     0.050 A 
BRANCH  17  19
HETATM   19  O2  UNL     1      18.378  -0.990  53.978  1.00  0.00    -0.361 OA
HETATM   20  H17 UNL     1      18.669  -1.062  54.962  1.00  0.00     0.217 HD
ENDBRANCH  17  19
ENDBRANCH   7  13
BRANCH   6  21
HETATM   21  C6  UNL     1      23.018   2.720  51.769  1.00  0.00     0.011 C 
BRANCH  21  22
HETATM   22  C7  UNL     1      23.725   2.962  50.524  1.00  0.00    -0.001 C 
BRANCH  22  23
HETATM   23  C8  UNL     1      24.857   3.340  49.987  1.00  0.00    -0.001 C 
BRANCH  23  24
HETATM   24  C9  UNL     1      26.217   3.654  49.644  1.00  0.00     0.191 C 
BRANCH  24  25
HETATM   25  O1  UNL     1      27.061   3.525  50.757  1.00  0.00    -0.397 OA
HETATM   26  H13 UNL     1      27.740   4.251  50.778  1.00  0.00     0.209 HD
ENDBRANCH  24  25
ENDBRANCH  23  24
ENDBRANCH  22  23
ENDBRANCH  21  22
ENDBRANCH   6  21
BRANCH   1  27
HETATM   27  N1  UNL     1      29.186  -1.246  53.183  1.00  0.00     0.123 N 
HETATM   28  C1  UNL     1      30.179  -0.315  53.632  1.00  0.00     0.312 C 
HETATM   29  H4  UNL     1      29.243  -2.180  53.602  1.00  0.00     0.320 HD
ENDBRANCH   1  27
TORSDOF 8
ENDMDL
MODEL 2
REMARK VINA RESULT:      -7.8      2.858      5.379
REMARK  8 active torsions:
REMARK  status: ('A' for Active; 'I' for Inactive)
REMARK    1  A    between atoms: N1_2  and  C2_3 
REMARK    2  A    between atoms: C5_8  and  C6_9 
REMARK    3  A    between atoms: C6_9  and  C7_10 
REMARK    4  A    between atoms: C7_10  and  C8_11 
REMARK    5  A    between atoms: C8_11  and  C9_12 
REMARK    6  A    between atoms: C9_12  and  O1_13 
REMARK    7  A    between atoms: C10_14  and  C11_15 
REMARK    8  A    between atoms: C15_19  and  O2_20 
ROOT
HETATM    1  C2  UNL     1      25.491   5.624  50.052  1.00  0.00     0.446 C 
HETATM    2  N2  UNL     1      26.293   4.738  49.195  1.00  0.00    -0.232 NA
HETATM    3  C3  UNL     1      26.721   3.647  49.736  1.00  0.00     0.191 C 
HETATM    4  N3  UNL     1      26.862   2.718  50.832  1.00  0.00    -0.399 NA
HETATM    5  C4  UNL     1      25.871   2.114  51.314  1.00  0.00     0.340 C 
HETATM    6  C5  UNL     1      25.381   1.177  52.287  1.00  0.00    -0.002 C 
HETATM    7  C10 UNL     1      23.958   0.991  52.263  1.00  0.00     0.075 C 
HETATM    8  N4  UNL     1      23.413   1.710  51.399  1.00  0.00    -0.258 NA
HETATM    9  C17 UNL     1      23.753   2.623  50.467  1.00  0.00     0.134 C 
HETATM   10  C18 UNL     1      23.877   3.935  50.406  1.00  0.00     0.106 C 
HETATM   11  N5  UNL     1      24.114   5.255  49.952  1.00  0.00    -0.351 N 
HETATM   12  H21 UNL     1      23.280   5.803  49.600  1.00  0.00     0.162 HD
ENDROOT
BRANCH   7  13
HETATM   13  C11 UNL     1      23.095   0.170  53.044  1.00  0.00    -0.004 A 
HETATM   14  C12 UNL     1      23.249  -0.649  54.121  1.00  0.00     0.014 A 
HETATM   15  C13 UNL     1      22.349  -1.381  54.846  1.00  0.00     0.004 A 
HETATM   16  C14 UNL     1      21.049  -1.271  54.409  1.00  0.00     0.036 A 
HETATM   17  C15 UNL     1      20.712  -0.490  53.337  1.00  0.00     0.066 A 
HETATM   18  C16 UNL     1      21.733   0.188  52.709  1.00  0.00     0.050 A 
BRANCH  17  19
HETATM   19  O2  UNL     1      19.396  -0.426  52.954  1.00  0.00    -0.361 OA
HETATM   20  H17 UNL     1      18.639  -0.186  53.607  1.00  0.00     0.217 HD
ENDBRANCH  17  19
ENDBRANCH   7  13
BRANCH   6  21
HETATM   21  C6  UNL     1      25.897   0.451  53.226  1.00  0.00     0.011 C 
BRANCH  21  22
HETATM   22  C7  UNL     1      26.988  -0.365  52.722  1.00  0.00    -0.001 C 
BRANCH  22  23
HETATM   23  C8  UNL     1      27.908  -1.240  53.037  1.00  0.00    -0.001 C 
BRANCH  23  24
HETATM   24  C9  UNL     1      29.056  -2.100  53.147  1.00  0.00     0.191 C 
BRANCH  24  25
HETATM   25  O1  UNL     1      28.672  -3.420  53.424  1.00  0.00    -0.397 OA
HETATM   26  H13 UNL     1      28.876  -4.020  52.657  1.00  0.00     0.209 HD
ENDBRANCH  24  25
ENDBRANCH  23  24
ENDBRANCH  22  23
ENDBRANCH  21  22
ENDBRANCH   6  21
BRANCH   1  27
HETATM   27  N1  UNL     1      25.738   6.969  49.584  1.00  0.00     0.123 N 
HETATM   28  C1  UNL     1      26.858   7.057  48.695  1.00  0.00     0.312 C 
HETATM   29  H4  UNL     1      24.892   7.456  49.270  1.00  0.00     0.320 HD
ENDBRANCH   1  27
TORSDOF 8
ENDMDL
MODEL 3
REMARK VINA RESULT:      -7.7      1.985      2.208
REMARK  8 active torsions:
REMARK  status: ('A' for Active; 'I' for Inactive)
REMARK    1  A    between atoms: N1_2  and  C2_3 
REMARK    2  A    between atoms: C5_8  and  C6_9 
REMARK    3  A    between atoms: C6_9  and  C7_10 
REMARK    4  A    between atoms: C7_10  and  C8_11 
REMARK    5  A    between atoms: C8_11  and  C9_12 
REMARK    6  A    between atoms: C9_12  and  O1_13 
REMARK    7  A    between atoms: C10_14  and  C11_15 
REMARK    8  A    between atoms: C15_19  and  O2_20 
ROOT
HETATM    1  C2  UNL     1      27.878  -0.801  53.097  1.00  0.00     0.446 C 
HETATM    2  N2  UNL     1      28.227   0.523  53.633  1.00  0.00    -0.232 NA
HETATM    3  C3  UNL     1      27.822   1.544  52.954  1.00  0.00     0.191 C 
HETATM    4  N3  UNL     1      27.145   2.170  51.843  1.00  0.00    -0.399 NA
HETATM    5  C4  UNL     1      25.904   2.053  51.679  1.00  0.00     0.340 C 
HETATM    6  C5  UNL     1      24.754   2.379  50.883  1.00  0.00    -0.002 C 
HETATM    7  C10 UNL     1      23.529   1.792  51.347  1.00  0.00     0.075 C 
HETATM    8  N4  UNL     1      23.712   1.081  52.358  1.00  0.00    -0.258 NA
HETATM    9  C17 UNL     1      24.720   0.689  53.163  1.00  0.00     0.134 C 
HETATM   10  C18 UNL     1      25.568  -0.320  53.219  1.00  0.00     0.106 C 
HETATM   11  N5  UNL     1      26.606  -1.198  53.613  1.00  0.00    -0.351 N 
HETATM   12  H21 UNL     1      26.339  -2.020  54.224  1.00  0.00     0.162 HD
ENDROOT
BRANCH   7  13
HETATM   13  C11 UNL     1      22.195   1.864  50.853  1.00  0.00    -0.004 A 
HETATM   14  C12 UNL     1      21.515   1.309  49.812  1.00  0.00     0.014 A 
HETATM   15  C13 UNL     1      20.207   1.400  49.426  1.00  0.00     0.004 A 
HETATM   16  C14 UNL     1      19.433   2.199  50.235  1.00  0.00     0.036 A 
HETATM   17  C15 UNL     1      19.952   2.837  51.328  1.00  0.00     0.066 A 
HETATM   18  C16 UNL     1      21.291   2.646  51.588  1.00  0.00     0.050 A 
BRANCH  17  19
HETATM   19  O2  UNL     1      19.124   3.619  52.092  1.00  0.00    -0.361 OA
HETATM   20  H17 UNL     1      18.379   3.227  52.683  1.00  0.00     0.217 HD
ENDBRANCH  17  19
ENDBRANCH   7  13
BRANCH   6  21
HETATM   21  C6  UNL     1      24.525   3.065  49.809  1.00  0.00     0.011 C 
BRANCH  21  22
HETATM   22  C7  UNL     1      25.301   4.293  49.793  1.00  0.00    -0.001 C 
BRANCH  22  23
HETATM   23  C8  UNL     1      26.320   4.912  49.255  1.00  0.00    -0.001 C 
BRANCH  23  24
HETATM   24  C9  UNL     1      27.480   5.342  48.521  1.00  0.00     0.191 C 
BRANCH  24  25
HETATM   25  O1  UNL     1      28.655   5.088  49.242  1.00  0.00    -0.397 OA
HETATM   26  H13 UNL     1      29.315   4.593  48.687  1.00  0.00     0.209 HD
ENDBRANCH  24  25
ENDBRANCH  23  24
ENDBRANCH  22  23
ENDBRANCH  21  22
ENDBRANCH   6  21
BRANCH   1  27
HETATM   27  N1  UNL     1      28.942  -1.693  53.501  1.00  0.00     0.123 N 
HETATM   28  C1  UNL     1      30.168  -1.009  53.789  1.00  0.00     0.312 C 
HETATM   29  H4  UNL     1      28.654  -2.384  54.202  1.00  0.00     0.320 HD
ENDBRANCH   1  27
TORSDOF 8
ENDMDL
MODEL 4
REMARK VINA RESULT:      -7.6      2.897      7.348
REMARK  8 active torsions:
REMARK  status: ('A' for Active; 'I' for Inactive)
REMARK    1  A    between atoms: N1_2  and  C2_3 
REMARK    2  A    between atoms: C5_8  and  C6_9 
REMARK    3  A    between atoms: C6_9  and  C7_10 
REMARK    4  A    between atoms: C7_10  and  C8_11 
REMARK    5  A    between atoms: C8_11  and  C9_12 
REMARK    6  A    between atoms: C9_12  and  O1_13 
REMARK    7  A    between atoms: C10_14  and  C11_15 
REMARK    8  A    between atoms: C15_19  and  O2_20 
ROOT
HETATM    1  C2  UNL     1      23.399   3.599  49.474  1.00  0.00     0.446 C 
HETATM    2  N2  UNL     1      23.174   4.445  50.657  1.00  0.00    -0.232 NA
HETATM    3  C3  UNL     1      23.279   3.867  51.806  1.00  0.00     0.191 C 
HETATM    4  N3  UNL     1      23.521   2.731  52.663  1.00  0.00    -0.399 NA
HETATM    5  C4  UNL     1      24.645   2.168  52.708  1.00  0.00     0.340 C 
HETATM    6  C5  UNL     1      25.453   1.124  53.274  1.00  0.00    -0.002 C 
HETATM    7  C10 UNL     1      26.791   1.069  52.759  1.00  0.00     0.075 C 
HETATM    8  N4  UNL     1      26.987   1.942  51.888  1.00  0.00    -0.258 NA
HETATM    9  C17 UNL     1      26.320   2.938  51.271  1.00  0.00     0.134 C 
HETATM   10  C18 UNL     1      25.592   3.076  50.179  1.00  0.00     0.106 C 
HETATM   11  N5  UNL     1      24.789   3.612  49.144  1.00  0.00    -0.351 N 
HETATM   12  H21 UNL     1      25.285   3.952  48.273  1.00  0.00     0.162 HD
ENDROOT
BRANCH   7  13
HETATM   13  C11 UNL     1      27.885   0.203  53.049  1.00  0.00    -0.004 A 
HETATM   14  C12 UNL     1      29.144   0.363  53.542  1.00  0.00     0.014 A 
HETATM   15  C13 UNL     1      30.130  -0.539  53.832  1.00  0.00     0.004 A 
HETATM   16  C14 UNL     1      29.792  -1.848  53.581  1.00  0.00     0.036 A 
HETATM   17  C15 UNL     1      28.565  -2.193  53.082  1.00  0.00     0.066 A 
HETATM   18  C16 UNL     1      27.675  -1.169  52.841  1.00  0.00     0.050 A 
BRANCH  17  19
HETATM   19  O2  UNL     1      28.293  -3.517  52.854  1.00  0.00    -0.361 OA
HETATM   20  H17 UNL     1      28.945  -4.270  53.109  1.00  0.00     0.217 HD
ENDBRANCH  17  19
ENDBRANCH   7  13
BRANCH   6  21
HETATM   21  C6  UNL     1      25.280   0.173  54.135  1.00  0.00     0.011 C 
BRANCH  21  22
HETATM   22  C7  UNL     1      24.078  -0.589  53.846  1.00  0.00    -0.001 C 
BRANCH  22  23
HETATM   23  C8  UNL     1      22.821  -0.773  54.162  1.00  0.00    -0.001 C 
BRANCH  23  24
HETATM   24  C9  UNL     1      21.550  -1.124  54.734  1.00  0.00     0.191 C 
BRANCH  24  25
HETATM   25  O1  UNL     1      20.765   0.017  54.957  1.00  0.00    -0.397 OA
HETATM   26  H13 UNL     1      21.319   0.774  55.288  1.00  0.00     0.209 HD
ENDBRANCH  24  25
ENDBRANCH  23  24
ENDBRANCH  22  23
ENDBRANCH  21  22
ENDBRANCH   6  21
BRANCH   1  27
HETATM   27  N1  UNL     1      22.575   4.150  48.422  1.00  0.00     0.123 N 
HETATM   28  C1  UNL     1      21.372   4.757  48.911  1.00  0.00     0.312 C 
HETATM   29  H4  UNL     1      23.100   4.710  47.741  1.00  0.00     0.320 HD
ENDBRANCH   1  27
TORSDOF 8
ENDMDL
MODEL 5
REMARK VINA RESULT:      -7.3      2.232      5.016
REMARK  8 active torsions:
REMARK  status: ('A' for Active; 'I' for Inactive)
REMARK    1  A    between atoms: N1_2  and  C2_3 
REMARK    2  A    between atoms: C5_8  and  C6_9 
REMARK    3  A    between atoms: C6_9  and  C7_10 
REMARK    4  A    between atoms: C7_10  and  C8_11 
REMARK    5  A    between atoms: C8_11  and  C9_12 
REMARK    6  A    between atoms: C9_12  and  O1_13 
REMARK    7  A    between atoms: C10_14  and  C11_15 
REMARK    8  A    between atoms: C15_19  and  O2_20 
ROOT
HETATM    1  C2  UNL     1      27.809   0.083  53.999  1.00  0.00     0.446 C 
HETATM    2  N2  UNL     1      27.203  -1.056  53.294  1.00  0.00    -0.232 NA
HETATM    3  C3  UNL     1      25.924  -1.012  53.121  1.00  0.00     0.191 C 
HETATM    4  N3  UNL     1      24.624  -0.398  53.251  1.00  0.00    -0.399 NA
HETATM    5  C4  UNL     1      24.351   0.690  52.685  1.00  0.00     0.340 C 
HETATM    6  C5  UNL     1      23.372   1.712  52.437  1.00  0.00    -0.002 C 
HETATM    7  C10 UNL     1      23.846   2.800  51.628  1.00  0.00     0.075 C 
HETATM    8  N4  UNL     1      25.046   2.652  51.313  1.00  0.00    -0.258 NA
HETATM    9  C17 UNL     1      26.050   1.771  51.498  1.00  0.00     0.134 C 
HETATM   10  C18 UNL     1      27.031   1.601  52.363  1.00  0.00     0.106 C 
HETATM   11  N5  UNL     1      28.160   1.092  53.050  1.00  0.00    -0.351 N 
HETATM   12  H21 UNL     1      29.104   1.497  52.795  1.00  0.00     0.162 HD
ENDROOT
BRANCH   7  13
HETATM   13  C11 UNL     1      23.208   3.985  51.163  1.00  0.00    -0.004 A 
HETATM   14  C12 UNL     1      22.082   4.263  50.449  1.00  0.00     0.014 A 
HETATM   15  C13 UNL     1      21.511   5.448  50.074  1.00  0.00     0.004 A 
HETATM   16  C14 UNL     1      22.195   6.564  50.493  1.00  0.00     0.036 A 
HETATM   17  C15 UNL     1      23.349   6.470  51.223  1.00  0.00     0.066 A 
HETATM   18  C16 UNL     1      23.801   5.204  51.523  1.00  0.00     0.050 A 
BRANCH  17  19
HETATM   19  O2  UNL     1      23.982   7.624  51.609  1.00  0.00    -0.361 OA
HETATM   20  H17 UNL     1      24.478   8.234  50.946  1.00  0.00     0.217 HD
ENDBRANCH  17  19
ENDBRANCH   7  13
BRANCH   6  21
HETATM   21  C6  UNL     1      22.144   1.931  52.780  1.00  0.00     0.011 C 
BRANCH  21  22
HETATM   22  C7  UNL     1      21.387   0.693  52.850  1.00  0.00    -0.001 C 
BRANCH  22  23
HETATM   23  C8  UNL     1      21.110  -0.355  53.582  1.00  0.00    -0.001 C 
BRANCH  23  24
HETATM   24  C9  UNL     1      21.093  -1.552  54.380  1.00  0.00     0.191 C 
BRANCH  24  25
HETATM   25  O1  UNL     1      22.253  -1.654  55.160  1.00  0.00    -0.397 OA
HETATM   26  H13 UNL     1      22.903  -2.288  54.754  1.00  0.00     0.209 HD
ENDBRANCH  24  25
ENDBRANCH  23  24
ENDBRANCH  22  23
ENDBRANCH  21  22
ENDBRANCH   6  21
BRANCH   1  27
HETATM   27  N1  UNL     1      28.960  -0.442  54.699  1.00  0.00     0.123 N 
HETATM   28  C1  UNL     1      29.980  -0.926  53.816  1.00  0.00     0.312 C 
HETATM   29  H4  UNL     1      29.291   0.164  55.457  1.00  0.00     0.320 HD
ENDBRANCH   1  27
TORSDOF 8
ENDMDL
MODEL 6
REMARK VINA RESULT:      -7.3      2.505      4.996
REMARK  8 active torsions:
REMARK  status: ('A' for Active; 'I' for Inactive)
REMARK    1  A    between atoms: N1_2  and  C2_3 
REMARK    2  A    between atoms: C5_8  and  C6_9 
REMARK    3  A    between atoms: C6_9  and  C7_10 
REMARK    4  A    between atoms: C7_10  and  C8_11 
REMARK    5  A    between atoms: C8_11  and  C9_12 
REMARK    6  A    between atoms: C9_12  and  O1_13 
REMARK    7  A    between atoms: C10_14  and  C11_15 
REMARK    8  A    between atoms: C15_19  and  O2_20 
ROOT
HETATM    1  C2  UNL     1      25.510   5.664  49.987  1.00  0.00     0.446 C 
HETATM    2  N2  UNL     1      26.308   4.751  49.155  1.00  0.00    -0.232 NA
HETATM    3  C3  UNL     1      26.661   3.635  49.699  1.00  0.00     0.191 C 
HETATM    4  N3  UNL     1      26.710   2.688  50.788  1.00  0.00    -0.399 NA
HETATM    5  C4  UNL     1      25.671   2.126  51.218  1.00  0.00     0.340 C 
HETATM    6  C5  UNL     1      25.095   1.202  52.155  1.00  0.00    -0.002 C 
HETATM    7  C10 UNL     1      23.668   1.082  52.065  1.00  0.00     0.075 C 
HETATM    8  N4  UNL     1      23.195   1.836  51.188  1.00  0.00    -0.258 NA
HETATM    9  C17 UNL     1      23.619   2.743  50.284  1.00  0.00     0.134 C 
HETATM   10  C18 UNL     1      23.805   4.048  50.247  1.00  0.00     0.106 C 
HETATM   11  N5  UNL     1      24.123   5.360  49.821  1.00  0.00    -0.351 N 
HETATM   12  H21 UNL     1      23.332   5.950  49.440  1.00  0.00     0.162 HD
ENDROOT
BRANCH   7  13
HETATM   13  C11 UNL     1      22.734   0.293  52.797  1.00  0.00    -0.004 A 
HETATM   14  C12 UNL     1      22.795  -0.518  53.888  1.00  0.00     0.014 A 
HETATM   15  C13 UNL     1      21.830  -1.217  54.559  1.00  0.00     0.004 A 
HETATM   16  C14 UNL     1      20.565  -1.076  54.040  1.00  0.00     0.036 A 
HETATM   17  C15 UNL     1      20.319  -0.297  52.942  1.00  0.00     0.066 A 
HETATM   18  C16 UNL     1      21.397   0.346  52.375  1.00  0.00     0.050 A 
BRANCH  17  19
HETATM   19  O2  UNL     1      19.033  -0.200  52.475  1.00  0.00    -0.361 OA
HETATM   20  H17 UNL     1      18.812  -0.066  51.480  1.00  0.00     0.217 HD
ENDBRANCH  17  19
ENDBRANCH   7  13
BRANCH   6  21
HETATM   21  C6  UNL     1      25.535   0.442  53.106  1.00  0.00     0.011 C 
BRANCH  21  22
HETATM   22  C7  UNL     1      26.476   1.151  53.955  1.00  0.00    -0.001 C 
BRANCH  22  23
HETATM   23  C8  UNL     1      27.704   1.589  54.065  1.00  0.00    -0.001 C 
BRANCH  23  24
HETATM   24  C9  UNL     1      29.003   2.188  53.923  1.00  0.00     0.191 C 
BRANCH  24  25
HETATM   25  O1  UNL     1      29.021   3.110  52.866  1.00  0.00    -0.397 OA
HETATM   26  H13 UNL     1      28.489   3.920  53.088  1.00  0.00     0.209 HD
ENDBRANCH  24  25
ENDBRANCH  23  24
ENDBRANCH  22  23
ENDBRANCH  21  22
ENDBRANCH   6  21
BRANCH   1  27
HETATM   27  N1  UNL     1      25.839   7.001  49.549  1.00  0.00     0.123 N 
HETATM   28  C1  UNL     1      26.906   7.031  48.593  1.00  0.00     0.312 C 
HETATM   29  H4  UNL     1      25.019   7.567  49.305  1.00  0.00     0.320 HD
ENDBRANCH   1  27
TORSDOF 8
ENDMDL
MODEL 7
REMARK VINA RESULT:      -7.3      2.669      7.564
REMARK  8 active torsions:
REMARK  status: ('A' for Active; 'I' for Inactive)
REMARK    1  A    between atoms: N1_2  and  C2_3 
REMARK    2  A    between atoms: C5_8  and  C6_9 
REMARK    3  A    between atoms: C6_9  and  C7_10 
REMARK    4  A    between atoms: C7_10  and  C8_11 
REMARK    5  A    between atoms: C8_11  and  C9_12 
REMARK    6  A    between atoms: C9_12  and  O1_13 
REMARK    7  A    between atoms: C10_14  and  C11_15 
REMARK    8  A    between atoms: C15_19  and  O2_20 
ROOT
HETATM    1  C2  UNL     1      21.846   3.663  49.742  1.00  0.00     0.446 C 
HETATM    2  N2  UNL     1      21.116   3.816  51.009  1.00  0.00    -0.232 NA
HETATM    3  C3  UNL     1      21.285   2.885  51.887  1.00  0.00     0.191 C 
HETATM    4  N3  UNL     1      21.855   1.647  52.363  1.00  0.00    -0.399 NA
HETATM    5  C4  UNL     1      23.091   1.523  52.557  1.00  0.00     0.340 C 
HETATM    6  C5  UNL     1      24.172   0.671  52.970  1.00  0.00    -0.002 C 
HETATM    7  C10 UNL     1      25.469   1.281  52.889  1.00  0.00     0.075 C 
HETATM    8  N4  UNL     1      25.404   2.447  52.446  1.00  0.00    -0.258 NA
HETATM    9  C17 UNL     1      24.477   3.326  52.014  1.00  0.00     0.134 C 
HETATM   10  C18 UNL     1      23.927   3.654  50.861  1.00  0.00     0.106 C 
HETATM   11  N5  UNL     1      23.134   4.271  49.864  1.00  0.00    -0.351 N 
HETATM   12  H21 UNL     1      23.561   5.084  49.339  1.00  0.00     0.162 HD
ENDROOT
BRANCH   7  13
HETATM   13  C11 UNL     1      26.769   0.789  53.197  1.00  0.00    -0.004 A 
HETATM   14  C12 UNL     1      27.424  -0.393  53.027  1.00  0.00     0.014 A 
HETATM   15  C13 UNL     1      28.704  -0.776  53.319  1.00  0.00     0.004 A 
HETATM   16  C14 UNL     1      29.473   0.211  53.890  1.00  0.00     0.036 A 
HETATM   17  C15 UNL     1      28.976   1.462  54.134  1.00  0.00     0.066 A 
HETATM   18  C16 UNL     1      27.665   1.696  53.783  1.00  0.00     0.050 A 
BRANCH  17  19
HETATM   19  O2  UNL     1      29.798   2.400  54.706  1.00  0.00    -0.361 OA
HETATM   20  H17 UNL     1      29.481   3.352  54.931  1.00  0.00     0.217 HD
ENDBRANCH  17  19
ENDBRANCH   7  13
BRANCH   6  21
HETATM   21  C6  UNL     1      24.292  -0.549  53.385  1.00  0.00     0.011 C 
BRANCH  21  22
HETATM   22  C7  UNL     1      23.233  -0.895  54.317  1.00  0.00    -0.001 C 
BRANCH  22  23
HETATM   23  C8  UNL     1      21.988  -1.282  54.433  1.00  0.00    -0.001 C 
BRANCH  23  24
HETATM   24  C9  UNL     1      20.584  -1.563  54.310  1.00  0.00     0.191 C 
BRANCH  24  25
HETATM   25  O1  UNL     1      19.864  -0.404  53.985  1.00  0.00    -0.397 OA
HETATM   26  H13 UNL     1      18.911  -0.487  54.256  1.00  0.00     0.209 HD
ENDBRANCH  24  25
ENDBRANCH  23  24
ENDBRANCH  22  23
ENDBRANCH  21  22
ENDBRANCH   6  21
BRANCH   1  27
HETATM   27  N1  UNL     1      21.031   4.294  48.729  1.00  0.00     0.123 N 
HETATM   28  C1  UNL     1      21.758   4.596  47.531  1.00  0.00     0.312 C 
HETATM   29  H4  UNL     1      20.126   3.833  48.584  1.00  0.00     0.320 HD
ENDBRANCH   1  27
TORSDOF 8
ENDMDL
MODEL 8
REMARK VINA RESULT:      -7.2      4.207      7.478
REMARK  8 active torsions:
REMARK  status: ('A' for Active; 'I' for Inactive)
REMARK    1  A    between atoms: N1_2  and  C2_3 
REMARK    2  A    between atoms: C5_8  and  C6_9 
REMARK    3  A    between atoms: C6_9  and  C7_10 
REMARK    4  A    between atoms: C7_10  and  C8_11 
REMARK    5  A    between atoms: C8_11  and  C9_12 
REMARK    6  A    between atoms: C9_12  and  O1_13 
REMARK    7  A    between atoms: C10_14  and  C11_15 
REMARK    8  A    between atoms: C15_19  and  O2_20 
ROOT
HETATM    1  C2  UNL     1      21.990   6.676  50.741  1.00  0.00     0.446 C 
HETATM    2  N2  UNL     1      21.469   5.880  49.619  1.00  0.00    -0.232 NA
HETATM    3  C3  UNL     1      22.323   5.147  48.987  1.00  0.00     0.191 C 
HETATM    4  N3  UNL     1      23.646   4.620  48.748  1.00  0.00    -0.399 NA
HETATM    5  C4  UNL     1      24.228   3.894  49.594  1.00  0.00     0.340 C 
HETATM    6  C5  UNL     1      25.401   3.139  49.937  1.00  0.00    -0.002 C 
HETATM    7  C10 UNL     1      25.355   2.536  51.239  1.00  0.00     0.075 C 
HETATM    8  N4  UNL     1      24.293   2.810  51.837  1.00  0.00    -0.258 NA
HETATM    9  C17 UNL     1      23.157   3.508  51.635  1.00  0.00     0.134 C 
HETATM   10  C18 UNL     1      22.728   4.734  51.866  1.00  0.00     0.106 C 
HETATM   11  N5  UNL     1      21.927   5.899  51.938  1.00  0.00    -0.351 N 
HETATM   12  H21 UNL     1      21.388   6.061  52.834  1.00  0.00     0.162 HD
ENDROOT
BRANCH   7  13
HETATM   13  C11 UNL     1      26.291   1.726  51.943  1.00  0.00    -0.004 A 
HETATM   14  C12 UNL     1      26.528   0.390  52.053  1.00  0.00     0.014 A 
HETATM   15  C13 UNL     1      27.487  -0.313  52.729  1.00  0.00     0.004 A 
HETATM   16  C14 UNL     1      28.377   0.471  53.425  1.00  0.00     0.036 A 
HETATM   17  C15 UNL     1      28.289   1.836  53.426  1.00  0.00     0.066 A 
HETATM   18  C16 UNL     1      27.265   2.399  52.696  1.00  0.00     0.050 A 
BRANCH  17  19
HETATM   19  O2  UNL     1      29.210   2.557  54.143  1.00  0.00    -0.361 OA
HETATM   20  H17 UNL     1      28.963   3.087  54.989  1.00  0.00     0.217 HD
ENDBRANCH  17  19
ENDBRANCH   7  13
BRANCH   6  21
HETATM   21  C6  UNL     1      26.535   2.871  49.375  1.00  0.00     0.011 C 
BRANCH  21  22
HETATM   22  C7  UNL     1      27.272   4.084  49.068  1.00  0.00    -0.001 C 
BRANCH  22  23
HETATM   23  C8  UNL     1      27.186   5.378  48.898  1.00  0.00    -0.001 C 
BRANCH  23  24
HETATM   24  C9  UNL     1      26.805   6.754  48.729  1.00  0.00     0.191 C 
BRANCH  24  25
HETATM   25  O1  UNL     1      27.694   7.609  49.396  1.00  0.00    -0.397 OA
HETATM   26  H13 UNL     1      28.034   7.190  50.231  1.00  0.00     0.209 HD
ENDBRANCH  24  25
ENDBRANCH  23  24
ENDBRANCH  22  23
ENDBRANCH  21  22
ENDBRANCH   6  21
BRANCH   1  27
HETATM   27  N1  UNL     1      21.170   7.863  50.808  1.00  0.00     0.123 N 
HETATM   28  C1  UNL     1      20.253   7.975  49.712  1.00  0.00     0.312 C 
HETATM   29  H4  UNL     1      20.763   8.030  51.735  1.00  0.00     0.320 HD
ENDBRANCH   1  27
TORSDOF 8
ENDMDL
MODEL 9
REMARK VINA RESULT:      -7.0      3.651      7.061
REMARK  8 active torsions:
REMARK  status: ('A' for Active; 'I' for Inactive)
REMARK    1  A    between atoms: N1_2  and  C2_3 
REMARK    2  A    between atoms: C5_8  and  C6_9 
REMARK    3  A    between atoms: C6_9  and  C7_10 
REMARK    4  A    between atoms: C7_10  and  C8_11 
REMARK    5  A    between atoms: C8_11  and  C9_12 
REMARK    6  A    between atoms: C9_12  and  O1_13 
REMARK    7  A    between atoms: C10_14  and  C11_15 
REMARK    8  A    between atoms: C15_19  and  O2_20 
ROOT
HETATM    1  C2  UNL     1      22.670   7.103  50.262  1.00  0.00     0.446 C 
HETATM    2  N2  UNL     1      21.409   6.839  50.970  1.00  0.00    -0.232 NA
HETATM    3  C3  UNL     1      21.019   5.608  51.013  1.00  0.00     0.191 C 
HETATM    4  N3  UNL     1      21.151   4.201  50.720  1.00  0.00    -0.399 NA
HETATM    5  C4  UNL     1      22.094   3.517  51.191  1.00  0.00     0.340 C 
HETATM    6  C5  UNL     1      22.728   2.230  51.281  1.00  0.00    -0.002 C 
HETATM    7  C10 UNL     1      23.929   2.218  52.067  1.00  0.00     0.075 C 
HETATM    8  N4  UNL     1      24.205   3.354  52.507  1.00  0.00    -0.258 NA
HETATM    9  C17 UNL     1      23.714   4.610  52.473  1.00  0.00     0.134 C 
HETATM   10  C18 UNL     1      23.868   5.682  51.721  1.00  0.00     0.106 C 
HETATM   11  N5  UNL     1      23.759   6.986  51.180  1.00  0.00    -0.351 N 
HETATM   12  H21 UNL     1      24.466   7.704  51.502  1.00  0.00     0.162 HD
ENDROOT
BRANCH   7  13
HETATM   13  C11 UNL     1      24.837   1.171  52.396  1.00  0.00    -0.004 A 
HETATM   14  C12 UNL     1      25.963   0.651  51.835  1.00  0.00     0.014 A 
HETATM   15  C13 UNL     1      26.810  -0.343  52.242  1.00  0.00     0.004 A 
HETATM   16  C14 UNL     1      26.462  -0.927  53.438  1.00  0.00     0.036 A 
HETATM   17  C15 UNL     1      25.357  -0.529  54.140  1.00  0.00     0.066 A 
HETATM   18  C16 UNL     1      24.602   0.488  53.599  1.00  0.00     0.050 A 
BRANCH  17  19
HETATM   19  O2  UNL     1      25.068  -1.154  55.326  1.00  0.00    -0.361 OA
HETATM   20  H17 UNL     1      25.743  -1.221  56.098  1.00  0.00     0.217 HD
ENDBRANCH  17  19
ENDBRANCH   7  13
BRANCH   6  21
HETATM   21  C6  UNL     1      22.509   1.047  50.806  1.00  0.00     0.011 C 
BRANCH  21  22
HETATM   22  C7  UNL     1      21.442   0.378  51.529  1.00  0.00    -0.001 C 
BRANCH  22  23
HETATM   23  C8  UNL     1      21.090  -0.161  52.669  1.00  0.00    -0.001 C 
BRANCH  23  24
HETATM   24  C9  UNL     1      20.988  -0.734  53.983  1.00  0.00     0.191 C 
BRANCH  24  25
HETATM   25  O1  UNL     1      20.533   0.213  54.912  1.00  0.00    -0.397 OA
HETATM   26  H13 UNL     1      21.122   1.014  54.925  1.00  0.00     0.209 HD
ENDBRANCH  24  25
ENDBRANCH  23  24
ENDBRANCH  22  23
ENDBRANCH  21  22
ENDBRANCH   6  21
BRANCH   1  27
HETATM   27  N1  UNL     1      22.552   8.434  49.711  1.00  0.00     0.123 N 
HETATM   28  C1  UNL     1      23.755   8.887  49.078  1.00  0.00     0.312 C 
HETATM   29  H4  UNL     1      21.693   8.580  49.170  1.00  0.00     0.320 HD
ENDBRANCH   1  27
TORSDOF 8
ENDMDL
