MODEL 1
REMARK VINA RESULT:      -7.5      0.000      0.000
REMARK  5 active torsions:
REMARK  status: ('A' for Active; 'I' for Inactive)
REMARK    1  A    between atoms: C2_2  and  C3_3 
REMARK    2  A    between atoms: C3_3  and  C4_4 
REMARK    3  A    between atoms: C4_4  and  N1_5 
REMARK    4  A    between atoms: N1_5  and  C5_6 
REMARK    5  A    between atoms: C5_6  and  N2_7 
ROOT
HETATM    1  N2  UNL     1      25.892   1.772  51.698  1.00  0.00    -0.383 N 
HETATM    2  C6  UNL     1      26.428   0.448  51.886  1.00  0.00     0.235 C 
HETATM    3  C7  UNL     1      26.083  -0.581  52.612  1.00  0.00     0.126 C 
HETATM    4  F1  UNL     1      26.928  -1.655  52.449  1.00  0.00    -0.242 F 
HETATM    5  C8  UNL     1      25.342  -1.422  53.532  1.00  0.00     0.037 C 
HETATM    6  C9  UNL     1      24.363  -0.526  53.800  1.00  0.00     0.141 C 
HETATM    7  O1  UNL     1      23.654   0.683  53.726  1.00  0.00    -0.321 OA
HETATM    8  C10 UNL     1      23.101   0.987  52.459  1.00  0.00     0.104 A 
HETATM    9  C11 UNL     1      21.933   0.235  52.306  1.00  0.00     0.069 A 
HETATM   10 CL1  UNL     1      21.224  -0.885  53.444  1.00  0.00    -0.081 Cl
HETATM   11  C12 UNL     1      21.161   0.324  51.136  1.00  0.00     0.033 A 
HETATM   12  C13 UNL     1      21.547   1.164  50.108  1.00  0.00    -0.060 A 
HETATM   13  C14 UNL     1      20.801   1.332  48.833  1.00  0.00     0.048 C 
HETATM   14  C15 UNL     1      22.713   1.875  50.334  1.00  0.00     0.018 A 
HETATM   15  C16 UNL     1      23.500   1.825  51.451  1.00  0.00    -0.005 A 
HETATM   16  C17 UNL     1      24.706   2.650  51.514  1.00  0.00     0.160 C 
ENDROOT
BRANCH   1  17
HETATM   17  C5  UNL     1      27.165   2.515  51.698  1.00  0.00     0.241 C 
BRANCH  17  18
HETATM   18  N1  UNL     1      27.613   2.540  53.073  1.00  0.00    -0.377 N 
HETATM   19  H6  UNL     1      26.913   2.642  53.863  1.00  0.00     0.161 HD
BRANCH  18  20
HETATM   20  C4  UNL     1      28.837   2.458  53.753  1.00  0.00     0.136 C 
BRANCH  20  21
HETATM   21  C3  UNL     1      29.097   1.266  54.275  1.00  0.00    -0.134 C 
BRANCH  21  22
HETATM   22  C2  UNL     1      29.127  -0.052  54.434  1.00  0.00     0.068 C 
HETATM   23  C1  UNL     1      29.936  -0.966  53.600  1.00  0.00     0.024 C 
ENDBRANCH  21  22
ENDBRANCH  20  21
ENDBRANCH  18  20
ENDBRANCH  17  18
ENDBRANCH   1  17
TORSDOF 5
ENDMDL
MODEL 2
REMARK VINA RESULT:      -7.2      3.358      6.250
REMARK  5 active torsions:
REMARK  status: ('A' for Active; 'I' for Inactive)
REMARK    1  A    between atoms: C2_2  and  C3_3 
REMARK    2  A    between atoms: C3_3  and  C4_4 
REMARK    3  A    between atoms: C4_4  and  N1_5 
REMARK    4  A    between atoms: N1_5  and  C5_6 
REMARK    5  A    between atoms: C5_6  and  N2_7 
ROOT
HETATM    1  N2  UNL     1      21.630   1.494  51.741  1.00  0.00    -0.383 N 
HETATM    2  C6  UNL     1      21.415   1.262  50.335  1.00  0.00     0.235 C 
HETATM    3  C7  UNL     1      21.929   1.753  49.239  1.00  0.00     0.126 C 
HETATM    4  F1  UNL     1      21.389   1.199  48.102  1.00  0.00    -0.242 F 
HETATM    5  C8  UNL     1      22.761   2.541  48.350  1.00  0.00     0.037 C 
HETATM    6  C9  UNL     1      23.464   3.172  49.320  1.00  0.00     0.141 C 
HETATM    7  O1  UNL     1      23.862   3.513  50.621  1.00  0.00    -0.321 OA
HETATM    8  C10 UNL     1      24.442   2.463  51.373  1.00  0.00     0.104 A 
HETATM    9  C11 UNL     1      25.767   2.312  50.954  1.00  0.00     0.069 A 
HETATM   10 CL1  UNL     1      26.615   3.232  49.736  1.00  0.00    -0.081 Cl
HETATM   11  C12 UNL     1      26.601   1.336  51.523  1.00  0.00     0.033 A 
HETATM   12  C13 UNL     1      26.123   0.502  52.516  1.00  0.00    -0.060 A 
HETATM   13  C14 UNL     1      26.923  -0.559  53.183  1.00  0.00     0.048 C 
HETATM   14  C15 UNL     1      24.803   0.713  52.877  1.00  0.00     0.018 A 
HETATM   15  C16 UNL     1      23.949   1.645  52.356  1.00  0.00    -0.005 A 
HETATM   16  C17 UNL     1      22.580   1.722  52.861  1.00  0.00     0.160 C 
ENDROOT
BRANCH   1  17
HETATM   17  C5  UNL     1      20.220   1.480  52.172  1.00  0.00     0.241 C 
BRANCH  17  18
HETATM   18  N1  UNL     1      19.883   0.090  52.390  1.00  0.00    -0.377 N 
HETATM   19  H6  UNL     1      19.784  -0.573  51.569  1.00  0.00     0.161 HD
BRANCH  18  20
HETATM   20  C4  UNL     1      19.621  -0.740  53.490  1.00  0.00     0.136 C 
BRANCH  20  21
HETATM   21  C3  UNL     1      20.702  -1.265  54.053  1.00  0.00    -0.134 C 
BRANCH  21  22
HETATM   22  C2  UNL     1      21.950  -1.690  54.213  1.00  0.00     0.068 C 
HETATM   23  C1  UNL     1      22.833  -1.261  55.318  1.00  0.00     0.024 C 
ENDBRANCH  21  22
ENDBRANCH  20  21
ENDBRANCH  18  20
ENDBRANCH  17  18
ENDBRANCH   1  17
TORSDOF 5
ENDMDL
MODEL 3
REMARK VINA RESULT:      -7.0      2.152      3.657
REMARK  5 active torsions:
REMARK  status: ('A' for Active; 'I' for Inactive)
REMARK    1  A    between atoms: C2_2  and  C3_3 
REMARK    2  A    between atoms: C3_3  and  C4_4 
REMARK    3  A    between atoms: C4_4  and  N1_5 
REMARK    4  A    between atoms: N1_5  and  C5_6 
REMARK    5  A    between atoms: C5_6  and  N2_7 
ROOT
HETATM    1  N2  UNL     1      25.543   2.060  52.074  1.00  0.00    -0.383 N 
HETATM    2  C6  UNL     1      24.947   3.363  52.228  1.00  0.00     0.235 C 
HETATM    3  C7  UNL     1      23.796   3.886  51.901  1.00  0.00     0.126 C 
HETATM    4  F1  UNL     1      23.686   5.206  52.271  1.00  0.00    -0.242 F 
HETATM    5  C8  UNL     1      22.447   4.012  51.384  1.00  0.00     0.037 C 
HETATM    6  C9  UNL     1      22.315   2.725  50.987  1.00  0.00     0.141 C 
HETATM    7  O1  UNL     1      22.681   1.386  50.782  1.00  0.00    -0.321 OA
HETATM    8  C10 UNL     1      22.909   0.632  51.958  1.00  0.00     0.104 A 
HETATM    9  C11 UNL     1      21.668   0.264  52.483  1.00  0.00     0.069 A 
HETATM   10 CL1  UNL     1      20.085   0.627  51.841  1.00  0.00    -0.081 Cl
HETATM   11  C12 UNL     1      21.575  -0.495  53.661  1.00  0.00     0.033 A 
HETATM   12  C13 UNL     1      22.719  -0.895  54.326  1.00  0.00    -0.060 A 
HETATM   13  C14 UNL     1      22.728  -1.700  55.576  1.00  0.00     0.048 C 
HETATM   14  C15 UNL     1      23.909  -0.492  53.744  1.00  0.00     0.018 A 
HETATM   15  C16 UNL     1      24.056   0.245  52.603  1.00  0.00    -0.005 A 
HETATM   16  C17 UNL     1      25.399   0.582  52.136  1.00  0.00     0.160 C 
ENDROOT
BRANCH   1  17
HETATM   17  C5  UNL     1      26.896   2.494  51.683  1.00  0.00     0.241 C 
BRANCH  17  18
HETATM   18  N1  UNL     1      27.580   2.827  52.913  1.00  0.00    -0.377 N 
HETATM   19  H6  UNL     1      27.236   3.627  53.519  1.00  0.00     0.161 HD
BRANCH  18  20
HETATM   20  C4  UNL     1      28.690   2.353  53.629  1.00  0.00     0.136 C 
BRANCH  20  21
HETATM   21  C3  UNL     1      28.583   1.096  54.040  1.00  0.00    -0.134 C 
BRANCH  21  22
HETATM   22  C2  UNL     1      28.718  -0.225  54.080  1.00  0.00     0.068 C 
HETATM   23  C1  UNL     1      29.919  -0.945  53.606  1.00  0.00     0.024 C 
ENDBRANCH  21  22
ENDBRANCH  20  21
ENDBRANCH  18  20
ENDBRANCH  17  18
ENDBRANCH   1  17
TORSDOF 5
ENDMDL
MODEL 4
REMARK VINA RESULT:      -7.0      1.625      1.986
REMARK  5 active torsions:
REMARK  status: ('A' for Active; 'I' for Inactive)
REMARK    1  A    between atoms: C2_2  and  C3_3 
REMARK    2  A    between atoms: C3_3  and  C4_4 
REMARK    3  A    between atoms: C4_4  and  N1_5 
REMARK    4  A    between atoms: N1_5  and  C5_6 
REMARK    5  A    between atoms: C5_6  and  N2_7 
ROOT
HETATM    1  N2  UNL     1      24.548   2.007  52.931  1.00  0.00    -0.383 N 
HETATM    2  C6  UNL     1      24.619   0.642  53.388  1.00  0.00     0.235 C 
HETATM    3  C7  UNL     1      23.732  -0.263  53.703  1.00  0.00     0.126 C 
HETATM    4  F1  UNL     1      24.301  -1.453  54.092  1.00  0.00    -0.242 F 
HETATM    5  C8  UNL     1      22.452  -0.909  53.918  1.00  0.00     0.037 C 
HETATM    6  C9  UNL     1      21.687   0.134  53.520  1.00  0.00     0.141 C 
HETATM    7  O1  UNL     1      21.393   1.419  53.038  1.00  0.00    -0.321 OA
HETATM    8  C10 UNL     1      21.826   1.686  51.717  1.00  0.00     0.104 A 
HETATM    9  C11 UNL     1      20.917   1.094  50.836  1.00  0.00     0.069 A 
HETATM   10 CL1  UNL     1      19.478   0.187  51.234  1.00  0.00    -0.081 Cl
HETATM   11  C12 UNL     1      21.088   1.188  49.446  1.00  0.00     0.033 A 
HETATM   12  C13 UNL     1      22.167   1.875  48.920  1.00  0.00    -0.060 A 
HETATM   13  C14 UNL     1      22.436   2.034  47.467  1.00  0.00     0.048 C 
HETATM   14  C15 UNL     1      23.022   2.433  49.855  1.00  0.00     0.018 A 
HETATM   15  C16 UNL     1      22.902   2.371  51.216  1.00  0.00    -0.005 A 
HETATM   16  C17 UNL     1      23.908   3.022  52.053  1.00  0.00     0.160 C 
ENDROOT
BRANCH   1  17
HETATM   17  C5  UNL     1      25.632   2.562  53.761  1.00  0.00     0.241 C 
BRANCH  17  18
HETATM   18  N1  UNL     1      26.833   2.477  52.958  1.00  0.00    -0.377 N 
HETATM   19  H6  UNL     1      26.817   2.764  51.938  1.00  0.00     0.161 HD
BRANCH  18  20
HETATM   20  C4  UNL     1      28.167   2.086  53.149  1.00  0.00     0.136 C 
BRANCH  20  21
HETATM   21  C3  UNL     1      28.314   0.906  53.736  1.00  0.00    -0.134 C 
BRANCH  21  22
HETATM   22  C2  UNL     1      28.652  -0.364  53.930  1.00  0.00     0.068 C 
HETATM   23  C1  UNL     1      29.986  -0.919  53.616  1.00  0.00     0.024 C 
ENDBRANCH  21  22
ENDBRANCH  20  21
ENDBRANCH  18  20
ENDBRANCH  17  18
ENDBRANCH   1  17
TORSDOF 5
ENDMDL
MODEL 5
REMARK VINA RESULT:      -6.9      7.511      9.177
REMARK  5 active torsions:
REMARK  status: ('A' for Active; 'I' for Inactive)
REMARK    1  A    between atoms: C2_2  and  C3_3 
REMARK    2  A    between atoms: C3_3  and  C4_4 
REMARK    3  A    between atoms: C4_4  and  N1_5 
REMARK    4  A    between atoms: N1_5  and  C5_6 
REMARK    5  A    between atoms: C5_6  and  N2_7 
ROOT
HETATM    1  N2  UNL     1      31.241   6.321  48.574  1.00  0.00    -0.383 N 
HETATM    2  C6  UNL     1      31.388   7.527  49.350  1.00  0.00     0.235 C 
HETATM    3  C7  UNL     1      30.864   8.721  49.290  1.00  0.00     0.126 C 
HETATM    4  F1  UNL     1      31.327   9.557  50.279  1.00  0.00    -0.242 F 
HETATM    5  C8  UNL     1      30.047   9.838  48.855  1.00  0.00     0.037 C 
HETATM    6  C9  UNL     1      29.420   9.185  47.849  1.00  0.00     0.141 C 
HETATM    7  O1  UNL     1      29.091   8.115  47.002  1.00  0.00    -0.321 OA
HETATM    8  C10 UNL     1      28.478   7.007  47.633  1.00  0.00     0.104 A 
HETATM    9  C11 UNL     1      27.133   7.318  47.843  1.00  0.00     0.069 A 
HETATM   10 CL1  UNL     1      26.295   8.790  47.413  1.00  0.00    -0.081 Cl
HETATM   11  C12 UNL     1      26.264   6.404  48.460  1.00  0.00     0.033 A 
HETATM   12  C13 UNL     1      26.729   5.169  48.873  1.00  0.00    -0.060 A 
HETATM   13  C14 UNL     1      25.892   4.131  49.531  1.00  0.00     0.048 C 
HETATM   14  C15 UNL     1      28.071   4.934  48.630  1.00  0.00     0.018 A 
HETATM   15  C16 UNL     1      28.959   5.787  48.035  1.00  0.00    -0.005 A 
HETATM   16  C17 UNL     1      30.348   5.369  47.863  1.00  0.00     0.160 C 
ENDROOT
BRANCH   1  17
HETATM   17  C5  UNL     1      32.662   5.934  48.517  1.00  0.00     0.241 C 
BRANCH  17  18
HETATM   18  N1  UNL     1      32.678   4.503  48.310  1.00  0.00    -0.377 N 
HETATM   19  H6  UNL     1      31.871   3.903  48.645  1.00  0.00     0.161 HD
BRANCH  18  20
HETATM   20  C4  UNL     1      33.541   3.562  47.728  1.00  0.00     0.136 C 
BRANCH  20  21
HETATM   21  C3  UNL     1      32.967   2.406  47.422  1.00  0.00    -0.134 C 
BRANCH  21  22
HETATM   22  C2  UNL     1      32.629   1.122  47.474  1.00  0.00     0.068 C 
HETATM   23  C1  UNL     1      31.782   0.451  46.465  1.00  0.00     0.024 C 
ENDBRANCH  21  22
ENDBRANCH  20  21
ENDBRANCH  18  20
ENDBRANCH  17  18
ENDBRANCH   1  17
TORSDOF 5
ENDMDL
MODEL 6
REMARK VINA RESULT:      -6.8      3.420      5.811
REMARK  5 active torsions:
REMARK  status: ('A' for Active; 'I' for Inactive)
REMARK    1  A    between atoms: C2_2  and  C3_3 
REMARK    2  A    between atoms: C3_3  and  C4_4 
REMARK    3  A    between atoms: C4_4  and  N1_5 
REMARK    4  A    between atoms: N1_5  and  C5_6 
REMARK    5  A    between atoms: C5_6  and  N2_7 
ROOT
HETATM    1  N2  UNL     1      25.486   3.619  50.714  1.00  0.00    -0.383 N 
HETATM    2  C6  UNL     1      24.406   4.336  51.344  1.00  0.00     0.235 C 
HETATM    3  C7  UNL     1      23.257   3.989  51.858  1.00  0.00     0.126 C 
HETATM    4  F1  UNL     1      22.552   5.059  52.357  1.00  0.00    -0.242 F 
HETATM    5  C8  UNL     1      22.148   3.167  52.302  1.00  0.00     0.037 C 
HETATM    6  C9  UNL     1      22.683   1.979  51.935  1.00  0.00     0.141 C 
HETATM    7  O1  UNL     1      23.630   1.091  51.404  1.00  0.00    -0.321 OA
HETATM    8  C10 UNL     1      24.863   1.033  52.096  1.00  0.00     0.104 A 
HETATM    9  C11 UNL     1      24.684   0.240  53.232  1.00  0.00     0.069 A 
HETATM   10 CL1  UNL     1      23.228  -0.573  53.751  1.00  0.00    -0.081 Cl
HETATM   11  C12 UNL     1      25.742   0.000  54.124  1.00  0.00     0.033 A 
HETATM   12  C13 UNL     1      26.989   0.550  53.891  1.00  0.00    -0.060 A 
HETATM   13  C14 UNL     1      28.172   0.356  54.771  1.00  0.00     0.048 C 
HETATM   14  C15 UNL     1      27.088   1.322  52.746  1.00  0.00     0.018 A 
HETATM   15  C16 UNL     1      26.093   1.587  51.847  1.00  0.00    -0.005 A 
HETATM   16  C17 UNL     1      26.380   2.431  50.690  1.00  0.00     0.160 C 
ENDROOT
BRANCH   1  17
HETATM   17  C5  UNL     1      25.757   4.569  49.620  1.00  0.00     0.241 C 
BRANCH  17  18
HETATM   18  N1  UNL     1      27.191   4.558  49.428  1.00  0.00    -0.377 N 
HETATM   19  H6  UNL     1      27.823   4.084  50.135  1.00  0.00     0.161 HD
BRANCH  18  20
HETATM   20  C4  UNL     1      28.100   5.041  48.475  1.00  0.00     0.136 C 
BRANCH  20  21
HETATM   21  C3  UNL     1      27.956   6.327  48.180  1.00  0.00    -0.134 C 
BRANCH  21  22
HETATM   22  C2  UNL     1      27.418   7.459  47.741  1.00  0.00     0.068 C 
HETATM   23  C1  UNL     1      25.962   7.688  47.622  1.00  0.00     0.024 C 
ENDBRANCH  21  22
ENDBRANCH  20  21
ENDBRANCH  18  20
ENDBRANCH  17  18
ENDBRANCH   1  17
TORSDOF 5
ENDMDL
MODEL 7
REMARK VINA RESULT:      -6.6      3.405      6.058
REMARK  5 active torsions:
REMARK  status: ('A' for Active; 'I' for Inactive)
REMARK    1  A    between atoms: C2_2  and  C3_3 
REMARK    2  A    between atoms: C3_3  and  C4_4 
REMARK    3  A    between atoms: C4_4  and  N1_5 
REMARK    4  A    between atoms: N1_5  and  C5_6 
REMARK    5  A    between atoms: C5_6  and  N2_7 
ROOT
HETATM    1  N2  UNL     1      25.362   3.802  50.768  1.00  0.00    -0.383 N 
HETATM    2  C6  UNL     1      24.255   4.425  51.449  1.00  0.00     0.235 C 
HETATM    3  C7  UNL     1      23.126   3.993  51.942  1.00  0.00     0.126 C 
HETATM    4  F1  UNL     1      22.377   4.994  52.516  1.00  0.00    -0.242 F 
HETATM    5  C8  UNL     1      22.058   3.094  52.333  1.00  0.00     0.037 C 
HETATM    6  C9  UNL     1      22.642   1.959  51.884  1.00  0.00     0.141 C 
HETATM    7  O1  UNL     1      23.625   1.152  51.290  1.00  0.00    -0.321 OA
HETATM    8  C10 UNL     1      24.864   1.102  51.972  1.00  0.00     0.104 A 
HETATM    9  C11 UNL     1      24.728   0.227  53.052  1.00  0.00     0.069 A 
HETATM   10 CL1  UNL     1      23.312  -0.684  53.519  1.00  0.00    -0.081 Cl
HETATM   11  C12 UNL     1      25.801  -0.025  53.922  1.00  0.00     0.033 A 
HETATM   12  C13 UNL     1      27.021   0.594  53.723  1.00  0.00    -0.060 A 
HETATM   13  C14 UNL     1      28.217   0.394  54.583  1.00  0.00     0.048 C 
HETATM   14  C15 UNL     1      27.077   1.446  52.633  1.00  0.00     0.018 A 
HETATM   15  C16 UNL     1      26.066   1.727  51.758  1.00  0.00    -0.005 A 
HETATM   16  C17 UNL     1      26.307   2.660  50.660  1.00  0.00     0.160 C 
ENDROOT
BRANCH   1  17
HETATM   17  C5  UNL     1      25.584   4.836  49.740  1.00  0.00     0.241 C 
BRANCH  17  18
HETATM   18  N1  UNL     1      25.777   6.077  50.457  1.00  0.00    -0.377 N 
HETATM   19  H6  UNL     1      26.098   6.069  51.468  1.00  0.00     0.161 HD
BRANCH  18  20
HETATM   20  C4  UNL     1      25.654   7.447  50.184  1.00  0.00     0.136 C 
BRANCH  20  21
HETATM   21  C3  UNL     1      24.432   7.934  50.355  1.00  0.00    -0.134 C 
BRANCH  21  22
HETATM   22  C2  UNL     1      23.122   8.108  50.219  1.00  0.00     0.068 C 
HETATM   23  C1  UNL     1      22.182   7.029  49.846  1.00  0.00     0.024 C 
ENDBRANCH  21  22
ENDBRANCH  20  21
ENDBRANCH  18  20
ENDBRANCH  17  18
ENDBRANCH   1  17
TORSDOF 5
ENDMDL
MODEL 8
REMARK VINA RESULT:      -6.5      3.141      4.808
REMARK  5 active torsions:
REMARK  status: ('A' for Active; 'I' for Inactive)
REMARK    1  A    between atoms: C2_2  and  C3_3 
REMARK    2  A    between atoms: C3_3  and  C4_4 
REMARK    3  A    between atoms: C4_4  and  N1_5 
REMARK    4  A    between atoms: N1_5  and  C5_6 
REMARK    5  A    between atoms: C5_6  and  N2_7 
ROOT
HETATM    1  N2  UNL     1      23.989   4.396  51.206  1.00  0.00    -0.383 N 
HETATM    2  C6  UNL     1      25.105   3.843  50.479  1.00  0.00     0.235 C 
HETATM    3  C7  UNL     1      25.988   2.915  50.731  1.00  0.00     0.126 C 
HETATM    4  F1  UNL     1      26.880   2.735  49.699  1.00  0.00    -0.242 F 
HETATM    5  C8  UNL     1      26.705   1.855  51.414  1.00  0.00     0.037 C 
HETATM    6  C9  UNL     1      25.915   1.821  52.512  1.00  0.00     0.141 C 
HETATM    7  O1  UNL     1      24.856   2.178  53.361  1.00  0.00    -0.321 OA
HETATM    8  C10 UNL     1      23.559   1.928  52.852  1.00  0.00     0.104 A 
HETATM    9  C11 UNL     1      23.289   0.565  53.006  1.00  0.00     0.069 A 
HETATM   10 CL1  UNL     1      24.322  -0.657  53.708  1.00  0.00    -0.081 Cl
HETATM   11  C12 UNL     1      22.068   0.015  52.586  1.00  0.00     0.033 A 
HETATM   12  C13 UNL     1      21.103   0.818  52.008  1.00  0.00    -0.060 A 
HETATM   13  C14 UNL     1      19.780   0.335  51.532  1.00  0.00     0.048 C 
HETATM   14  C15 UNL     1      21.443   2.155  51.889  1.00  0.00     0.018 A 
HETATM   15  C16 UNL     1      22.615   2.741  52.280  1.00  0.00    -0.005 A 
HETATM   16  C17 UNL     1      22.802   4.175  52.073  1.00  0.00     0.160 C 
ENDROOT
BRANCH   1  17
HETATM   17  C5  UNL     1      24.212   5.816  50.880  1.00  0.00     0.241 C 
BRANCH  17  18
HETATM   18  N1  UNL     1      23.743   5.993  49.523  1.00  0.00    -0.377 N 
HETATM   19  H6  UNL     1      22.733   5.786  49.273  1.00  0.00     0.161 HD
BRANCH  18  20
HETATM   20  C4  UNL     1      24.286   6.406  48.298  1.00  0.00     0.136 C 
BRANCH  20  21
HETATM   21  C3  UNL     1      25.542   6.828  48.368  1.00  0.00    -0.134 C 
BRANCH  21  22
HETATM   22  C2  UNL     1      26.847   6.844  48.618  1.00  0.00     0.068 C 
HETATM   23  C1  UNL     1      27.742   5.689  48.399  1.00  0.00     0.024 C 
ENDBRANCH  21  22
ENDBRANCH  20  21
ENDBRANCH  18  20
ENDBRANCH  17  18
ENDBRANCH   1  17
TORSDOF 5
ENDMDL
MODEL 9
REMARK VINA RESULT:      -6.4      2.836      5.123
REMARK  5 active torsions:
REMARK  status: ('A' for Active; 'I' for Inactive)
REMARK    1  A    between atoms: C2_2  and  C3_3 
REMARK    2  A    between atoms: C3_3  and  C4_4 
REMARK    3  A    between atoms: C4_4  and  N1_5 
REMARK    4  A    between atoms: N1_5  and  C5_6 
REMARK    5  A    between atoms: C5_6  and  N2_7 
ROOT
HETATM    1  N2  UNL     1      23.970   4.441  51.131  1.00  0.00    -0.383 N 
HETATM    2  C6  UNL     1      25.115   3.898  50.445  1.00  0.00     0.235 C 
HETATM    3  C7  UNL     1      26.013   2.997  50.739  1.00  0.00     0.126 C 
HETATM    4  F1  UNL     1      26.934   2.815  49.733  1.00  0.00    -0.242 F 
HETATM    5  C8  UNL     1      26.737   1.970  51.463  1.00  0.00     0.037 C 
HETATM    6  C9  UNL     1      25.921   1.943  52.543  1.00  0.00     0.141 C 
HETATM    7  O1  UNL     1      24.833   2.293  53.357  1.00  0.00    -0.321 OA
HETATM    8  C10 UNL     1      23.556   2.001  52.823  1.00  0.00     0.104 A 
HETATM    9  C11 UNL     1      23.313   0.637  53.002  1.00  0.00     0.069 A 
HETATM   10 CL1  UNL     1      24.356  -0.545  53.757  1.00  0.00    -0.081 Cl
HETATM   11  C12 UNL     1      22.115   0.049  52.566  1.00  0.00     0.033 A 
HETATM   12  C13 UNL     1      21.147   0.816  51.946  1.00  0.00    -0.060 A 
HETATM   13  C14 UNL     1      19.847   0.291  51.450  1.00  0.00     0.048 C 
HETATM   14  C15 UNL     1      21.459   2.157  51.804  1.00  0.00     0.018 A 
HETATM   15  C16 UNL     1      22.607   2.779  52.210  1.00  0.00    -0.005 A 
HETATM   16  C17 UNL     1      22.767   4.212  51.974  1.00  0.00     0.160 C 
ENDROOT
BRANCH   1  17
HETATM   17  C5  UNL     1      24.168   5.859  50.778  1.00  0.00     0.241 C 
BRANCH  17  18
HETATM   18  N1  UNL     1      24.029   5.935  49.341  1.00  0.00    -0.377 N 
HETATM   19  H6  UNL     1      24.888   5.987  48.721  1.00  0.00     0.161 HD
BRANCH  18  20
HETATM   20  C4  UNL     1      22.978   5.963  48.413  1.00  0.00     0.136 C 
BRANCH  20  21
HETATM   21  C3  UNL     1      22.684   4.784  47.879  1.00  0.00    -0.134 C 
BRANCH  21  22
HETATM   22  C2  UNL     1      22.072   3.626  47.658  1.00  0.00     0.068 C 
HETATM   23  C1  UNL     1      22.535   2.332  48.201  1.00  0.00     0.024 C 
ENDBRANCH  21  22
ENDBRANCH  20  21
ENDBRANCH  18  20
ENDBRANCH  17  18
ENDBRANCH   1  17
TORSDOF 5
ENDMDL
