MODEL 1
REMARK VINA RESULT:      -8.3      0.000      0.000
REMARK  3 active torsions:
REMARK  status: ('A' for Active; 'I' for Inactive)
REMARK    1  A    between atoms: C2_2  and  C3_3 
REMARK    2  A    between atoms: N1_6  and  C6_7 
REMARK    3  A    between atoms: C8_11  and  O1_12 
ROOT
HETATM    1  C6  UNL     1      22.563   2.898  51.280  1.00  0.00     0.149 A 
HETATM    2  N2  UNL     1      21.298   3.239  51.216  1.00  0.00    -0.223 NA
HETATM    3  C7  UNL     1      20.287   2.367  51.729  1.00  0.00     0.233 A 
HETATM    4  N3  UNL     1      20.557   1.235  52.262  1.00  0.00    -0.239 NA
HETATM    5  C8  UNL     1      21.884   0.689  52.415  1.00  0.00     0.194 A 
HETATM    6  C9  UNL     1      22.876   1.666  51.891  1.00  0.00     0.082 A 
HETATM    7  C10 UNL     1      24.180   1.658  51.857  1.00  0.00     0.119 C 
HETATM    8  O2  UNL     1      24.654   2.802  51.262  1.00  0.00    -0.345 OA
HETATM    9  C11 UNL     1      26.040   2.791  50.870  1.00  0.00     0.202 C 
HETATM   10  C12 UNL     1      26.898   2.258  51.967  1.00  0.00     0.202 C 
HETATM   11  O3  UNL     1      26.541   0.873  52.202  1.00  0.00    -0.344 OA
HETATM   12  C13 UNL     1      25.141   0.670  52.338  1.00  0.00     0.124 C 
HETATM   13  C14 UNL     1      25.003  -0.501  52.938  1.00  0.00     0.174 C 
HETATM   14  O4  UNL     1      23.903  -1.207  53.323  1.00  0.00    -0.355 OA
HETATM   15  C15 UNL     1      22.723  -1.017  54.042  1.00  0.00     0.132 C 
HETATM   16  C16 UNL     1      23.003  -1.307  55.507  1.00  0.00     0.040 C 
HETATM   17  C17 UNL     1      22.129   0.337  53.839  1.00  0.00     0.073 C 
HETATM   18  C18 UNL     1      20.794   0.337  54.569  1.00  0.00     0.018 C 
ENDROOT
BRANCH   1  19
HETATM   19  N1  UNL     1      23.294   3.952  50.698  1.00  0.00    -0.311 N 
HETATM   20  C5  UNL     1      23.481   3.886  49.236  1.00  0.00     0.095 A 
HETATM   21  C4  UNL     1      24.089   4.899  48.645  1.00  0.00     0.003 A 
HETATM   22  C3  UNL     1      24.601   6.100  49.321  1.00  0.00     0.056 A 
HETATM   23  C21 UNL     1      24.365   6.066  50.766  1.00  0.00     0.011 A 
HETATM   24  C19 UNL     1      23.773   5.117  51.466  1.00  0.00     0.011 A 
HETATM   25  C20 UNL     1      23.558   5.177  52.937  1.00  0.00     0.068 C 
BRANCH  22  26
HETATM   26  C2  UNL     1      26.020   6.390  48.979  1.00  0.00    -0.024 C 
HETATM   27  C1  UNL     1      27.123   5.716  48.614  1.00  0.00     0.008 C 
ENDBRANCH  22  26
ENDBRANCH   1  19
BRANCH   5  28
HETATM   28  O1  UNL     1      21.909  -0.499  51.669  1.00  0.00    -0.365 OA
HETATM   29  H8  UNL     1      22.472  -0.394  50.851  1.00  0.00     0.213 HD
ENDBRANCH   5  28
TORSDOF 3
ENDMDL
MODEL 2
REMARK VINA RESULT:      -7.9      1.908      5.574
REMARK  3 active torsions:
REMARK  status: ('A' for Active; 'I' for Inactive)
REMARK    1  A    between atoms: C2_2  and  C3_3 
REMARK    2  A    between atoms: N1_6  and  C6_7 
REMARK    3  A    between atoms: C8_11  and  O1_12 
ROOT
HETATM    1  C6  UNL     1      22.255   2.523  51.439  1.00  0.00     0.149 A 
HETATM    2  N2  UNL     1      22.480   3.583  50.700  1.00  0.00    -0.223 NA
HETATM    3  C7  UNL     1      23.772   4.199  50.691  1.00  0.00     0.233 A 
HETATM    4  N3  UNL     1      24.750   3.761  51.390  1.00  0.00    -0.239 NA
HETATM    5  C8  UNL     1      24.693   2.615  52.266  1.00  0.00     0.194 A 
HETATM    6  C9  UNL     1      23.334   2.014  52.193  1.00  0.00     0.082 A 
HETATM    7  C10 UNL     1      22.815   0.952  52.745  1.00  0.00     0.119 C 
HETATM    8  O2  UNL     1      21.501   0.807  52.370  1.00  0.00    -0.345 OA
HETATM    9  C11 UNL     1      20.716  -0.124  53.140  1.00  0.00     0.202 C 
HETATM   10  C12 UNL     1      21.453  -1.405  53.336  1.00  0.00     0.202 C 
HETATM   11  O3  UNL     1      22.640  -1.140  54.124  1.00  0.00    -0.344 OA
HETATM   12  C13 UNL     1      23.400  -0.040  53.642  1.00  0.00     0.124 C 
HETATM   13  C14 UNL     1      24.605  -0.174  54.171  1.00  0.00     0.174 C 
HETATM   14  O4  UNL     1      25.739   0.575  54.065  1.00  0.00    -0.355 OA
HETATM   15  C15 UNL     1      26.544   1.140  53.077  1.00  0.00     0.132 C 
HETATM   16  C16 UNL     1      27.589   0.117  52.667  1.00  0.00     0.040 C 
HETATM   17  C17 UNL     1      25.764   1.649  51.910  1.00  0.00     0.073 C 
HETATM   18  C18 UNL     1      26.760   2.350  50.998  1.00  0.00     0.018 C 
ENDROOT
BRANCH   1  19
HETATM   19  N1  UNL     1      20.910   2.164  51.231  1.00  0.00    -0.311 N 
HETATM   20  C5  UNL     1      19.924   2.773  52.144  1.00  0.00     0.095 A 
HETATM   21  C4  UNL     1      18.645   2.526  51.925  1.00  0.00     0.003 A 
HETATM   22  C3  UNL     1      18.109   1.688  50.842  1.00  0.00     0.056 A 
HETATM   23  C21 UNL     1      19.169   1.135  49.995  1.00  0.00     0.011 A 
HETATM   24  C19 UNL     1      20.471   1.308  50.112  1.00  0.00     0.011 A 
HETATM   25  C20 UNL     1      21.477   0.720  49.188  1.00  0.00     0.068 C 
BRANCH  22  26
HETATM   26  C2  UNL     1      17.165   0.649  51.332  1.00  0.00    -0.024 C 
HETATM   27  C1  UNL     1      17.212  -0.611  51.798  1.00  0.00     0.008 C 
ENDBRANCH  22  26
ENDBRANCH   1  19
BRANCH   5  28
HETATM   28  O1  UNL     1      24.958   3.095  53.558  1.00  0.00    -0.365 OA
HETATM   29  H8  UNL     1      24.578   2.483  54.250  1.00  0.00     0.213 HD
ENDBRANCH   5  28
TORSDOF 3
ENDMDL
MODEL 3
REMARK VINA RESULT:      -7.6      2.472      6.688
REMARK  3 active torsions:
REMARK  status: ('A' for Active; 'I' for Inactive)
REMARK    1  A    between atoms: C2_2  and  C3_3 
REMARK    2  A    between atoms: N1_6  and  C6_7 
REMARK    3  A    between atoms: C8_11  and  O1_12 
ROOT
HETATM    1  C6  UNL     1      23.431   5.026  51.092  1.00  0.00     0.149 A 
HETATM    2  N2  UNL     1      22.264   5.457  51.508  1.00  0.00    -0.223 NA
HETATM    3  C7  UNL     1      21.824   6.780  51.183  1.00  0.00     0.233 A 
HETATM    4  N3  UNL     1      22.530   7.591  50.490  1.00  0.00    -0.239 NA
HETATM    5  C8  UNL     1      23.838   7.299  49.952  1.00  0.00     0.194 A 
HETATM    6  C9  UNL     1      24.207   5.901  50.303  1.00  0.00     0.082 A 
HETATM    7  C10 UNL     1      25.243   5.167  50.005  1.00  0.00     0.119 C 
HETATM    8  O2  UNL     1      25.130   3.920  50.572  1.00  0.00    -0.345 OA
HETATM    9  C11 UNL     1      26.327   3.119  50.597  1.00  0.00     0.202 C 
HETATM   10  C12 UNL     1      27.009   3.142  49.272  1.00  0.00     0.202 C 
HETATM   11  O3  UNL     1      27.444   4.497  48.998  1.00  0.00    -0.344 OA
HETATM   12  C13 UNL     1      26.425   5.465  49.202  1.00  0.00     0.124 C 
HETATM   13  C14 UNL     1      26.815   6.545  48.543  1.00  0.00     0.174 C 
HETATM   14  O4  UNL     1      26.246   7.772  48.380  1.00  0.00    -0.355 OA
HETATM   15  C15 UNL     1      25.024   8.330  48.005  1.00  0.00     0.132 C 
HETATM   16  C16 UNL     1      25.020   8.504  46.497  1.00  0.00     0.040 C 
HETATM   17  C17 UNL     1      23.852   7.541  48.486  1.00  0.00     0.073 C 
HETATM   18  C18 UNL     1      22.612   8.344  48.120  1.00  0.00     0.018 C 
ENDROOT
BRANCH   1  19
HETATM   19  N1  UNL     1      23.567   3.709  51.572  1.00  0.00    -0.311 N 
HETATM   20  C5  UNL     1      24.178   3.561  52.907  1.00  0.00     0.095 A 
HETATM   21  C4  UNL     1      24.244   2.347  53.424  1.00  0.00     0.003 A 
HETATM   22  C3  UNL     1      23.758   1.117  52.782  1.00  0.00     0.056 A 
HETATM   23  C21 UNL     1      23.171   1.374  51.465  1.00  0.00     0.011 A 
HETATM   24  C19 UNL     1      23.048   2.533  50.847  1.00  0.00     0.011 A 
HETATM   25  C20 UNL     1      22.416   2.702  49.511  1.00  0.00     0.068 C 
BRANCH  22  26
HETATM   26  C2  UNL     1      24.786   0.041  52.751  1.00  0.00    -0.024 C 
HETATM   27  C1  UNL     1      26.114  -0.075  52.587  1.00  0.00     0.008 C 
ENDBRANCH  22  26
ENDBRANCH   1  19
BRANCH   5  28
HETATM   28  O1  UNL     1      24.721   8.213  50.547  1.00  0.00    -0.365 OA
HETATM   29  H8  UNL     1      25.575   7.766  50.805  1.00  0.00     0.213 HD
ENDBRANCH   5  28
TORSDOF 3
ENDMDL
MODEL 4
REMARK VINA RESULT:      -7.5      6.848      9.956
REMARK  3 active torsions:
REMARK  status: ('A' for Active; 'I' for Inactive)
REMARK    1  A    between atoms: C2_2  and  C3_3 
REMARK    2  A    between atoms: N1_6  and  C6_7 
REMARK    3  A    between atoms: C8_11  and  O1_12 
ROOT
HETATM    1  C6  UNL     1      29.537   6.646  48.441  1.00  0.00     0.149 A 
HETATM    2  N2  UNL     1      29.075   5.425  48.318  1.00  0.00    -0.223 NA
HETATM    3  C7  UNL     1      27.678   5.159  48.486  1.00  0.00     0.233 A 
HETATM    4  N3  UNL     1      26.829   6.076  48.761  1.00  0.00    -0.239 NA
HETATM    5  C8  UNL     1      27.149   7.472  48.940  1.00  0.00     0.194 A 
HETATM    6  C9  UNL     1      28.606   7.671  48.717  1.00  0.00     0.082 A 
HETATM    7  C10 UNL     1      29.354   8.739  48.709  1.00  0.00     0.119 C 
HETATM    8  O2  UNL     1      30.663   8.410  48.453  1.00  0.00    -0.345 OA
HETATM    9  C11 UNL     1      31.644   9.430  48.725  1.00  0.00     0.202 C 
HETATM   10  C12 UNL     1      31.211  10.744  48.170  1.00  0.00     0.202 C 
HETATM   11  O3  UNL     1      30.003  11.161  48.854  1.00  0.00    -0.344 OA
HETATM   12  C13 UNL     1      29.014  10.144  48.916  1.00  0.00     0.124 C 
HETATM   13  C14 UNL     1      27.874  10.764  49.175  1.00  0.00     0.174 C 
HETATM   14  O4  UNL     1      26.602  10.306  49.343  1.00  0.00    -0.355 OA
HETATM   15  C15 UNL     1      25.680   9.483  48.697  1.00  0.00     0.132 C 
HETATM   16  C16 UNL     1      24.884  10.330  47.719  1.00  0.00     0.040 C 
HETATM   17  C17 UNL     1      26.315   8.305  48.035  1.00  0.00     0.073 C 
HETATM   18  C18 UNL     1      25.178   7.445  47.502  1.00  0.00     0.018 C 
ENDROOT
BRANCH   1  19
HETATM   19  N1  UNL     1      30.926   6.575  48.223  1.00  0.00    -0.311 N 
HETATM   20  C5  UNL     1      31.748   6.178  49.382  1.00  0.00     0.095 A 
HETATM   21  C4  UNL     1      33.046   6.019  49.192  1.00  0.00     0.003 A 
HETATM   22  C3  UNL     1      33.753   6.205  47.916  1.00  0.00     0.056 A 
HETATM   23  C21 UNL     1      32.846   6.596  46.833  1.00  0.00     0.011 A 
HETATM   24  C19 UNL     1      31.542   6.785  46.899  1.00  0.00     0.011 A 
HETATM   25  C20 UNL     1      30.695   7.164  45.736  1.00  0.00     0.068 C 
BRANCH  22  26
HETATM   26  C2  UNL     1      34.927   7.110  48.035  1.00  0.00    -0.024 C 
HETATM   27  C1  UNL     1      35.193   8.425  47.965  1.00  0.00     0.008 C 
ENDBRANCH  22  26
ENDBRANCH   1  19
BRANCH   5  28
HETATM   28  O1  UNL     1      26.798   7.790  50.261  1.00  0.00    -0.365 OA
HETATM   29  H8  UNL     1      26.118   7.149  50.613  1.00  0.00     0.213 HD
ENDBRANCH   5  28
TORSDOF 3
ENDMDL
MODEL 5
REMARK VINA RESULT:      -7.3     10.524     13.997
REMARK  3 active torsions:
REMARK  status: ('A' for Active; 'I' for Inactive)
REMARK    1  A    between atoms: C2_2  and  C3_3 
REMARK    2  A    between atoms: N1_6  and  C6_7 
REMARK    3  A    between atoms: C8_11  and  O1_12 
ROOT
HETATM    1  C6  UNL     1      34.062   6.861  47.039  1.00  0.00     0.149 A 
HETATM    2  N2  UNL     1      34.216   7.373  48.237  1.00  0.00    -0.223 NA
HETATM    3  C7  UNL     1      34.604   8.742  48.394  1.00  0.00     0.233 A 
HETATM    4  N3  UNL     1      34.817   9.518  47.399  1.00  0.00    -0.239 NA
HETATM    5  C8  UNL     1      34.704   9.134  46.012  1.00  0.00     0.194 A 
HETATM    6  C9  UNL     1      34.267   7.714  45.934  1.00  0.00     0.082 A 
HETATM    7  C10 UNL     1      33.976   6.942  44.924  1.00  0.00     0.119 C 
HETATM    8  O2  UNL     1      33.619   5.689  45.363  1.00  0.00    -0.345 OA
HETATM    9  C11 UNL     1      33.581   4.650  44.366  1.00  0.00     0.202 C 
HETATM   10  C12 UNL     1      32.860   5.112  43.146  1.00  0.00     0.202 C 
HETATM   11  O3  UNL     1      33.606   6.204  42.552  1.00  0.00    -0.344 OA
HETATM   12  C13 UNL     1      33.972   7.207  43.489  1.00  0.00     0.124 C 
HETATM   13  C14 UNL     1      34.258   8.283  42.773  1.00  0.00     0.174 C 
HETATM   14  O4  UNL     1      34.663   9.535  43.125  1.00  0.00    -0.355 OA
HETATM   15  C15 UNL     1      34.295  10.560  43.997  1.00  0.00     0.132 C 
HETATM   16  C16 UNL     1      33.291  11.452  43.288  1.00  0.00     0.040 C 
HETATM   17  C17 UNL     1      33.778  10.055  45.303  1.00  0.00     0.073 C 
HETATM   18  C18 UNL     1      33.553  11.279  46.179  1.00  0.00     0.018 C 
ENDROOT
BRANCH   1  19
HETATM   19  N1  UNL     1      33.687   5.517  47.221  1.00  0.00    -0.311 N 
HETATM   20  C5  UNL     1      34.789   4.542  47.337  1.00  0.00     0.095 A 
HETATM   21  C4  UNL     1      34.475   3.284  47.593  1.00  0.00     0.003 A 
HETATM   22  C3  UNL     1      33.113   2.762  47.775  1.00  0.00     0.056 A 
HETATM   23  C21 UNL     1      32.097   3.809  47.642  1.00  0.00     0.011 A 
HETATM   24  C19 UNL     1      32.284   5.090  47.389  1.00  0.00     0.011 A 
HETATM   25  C20 UNL     1      31.187   6.089  47.291  1.00  0.00     0.068 C 
BRANCH  22  26
HETATM   26  C2  UNL     1      32.832   1.578  46.919  1.00  0.00    -0.024 C 
HETATM   27  C1  UNL     1      31.766   0.901  46.460  1.00  0.00     0.008 C 
ENDBRANCH  22  26
ENDBRANCH   1  19
BRANCH   5  28
HETATM   28  O1  UNL     1      35.981   9.296  45.454  1.00  0.00    -0.365 OA
HETATM   29  H8  UNL     1      36.681   9.309  46.165  1.00  0.00     0.213 HD
ENDBRANCH   5  28
TORSDOF 3
ENDMDL
MODEL 6
REMARK VINA RESULT:      -7.2      2.216      5.413
REMARK  3 active torsions:
REMARK  status: ('A' for Active; 'I' for Inactive)
REMARK    1  A    between atoms: C2_2  and  C3_3 
REMARK    2  A    between atoms: N1_6  and  C6_7 
REMARK    3  A    between atoms: C8_11  and  O1_12 
ROOT
HETATM    1  C6  UNL     1      24.127   2.622  50.697  1.00  0.00     0.149 A 
HETATM    2  N2  UNL     1      24.800   3.545  50.052  1.00  0.00    -0.223 NA
HETATM    3  C7  UNL     1      24.229   4.193  48.911  1.00  0.00     0.233 A 
HETATM    4  N3  UNL     1      23.062   3.910  48.469  1.00  0.00    -0.239 NA
HETATM    5  C8  UNL     1      22.178   2.922  49.040  1.00  0.00     0.194 A 
HETATM    6  C9  UNL     1      22.828   2.321  50.236  1.00  0.00     0.082 A 
HETATM    7  C10 UNL     1      22.417   1.442  51.107  1.00  0.00     0.119 C 
HETATM    8  O2  UNL     1      23.392   1.201  52.046  1.00  0.00    -0.345 OA
HETATM    9  C11 UNL     1      23.208   0.036  52.873  1.00  0.00     0.202 C 
HETATM   10  C12 UNL     1      21.812  -0.031  53.392  1.00  0.00     0.202 C 
HETATM   11  O3  UNL     1      20.908  -0.195  52.271  1.00  0.00    -0.344 OA
HETATM   12  C13 UNL     1      21.148   0.729  51.218  1.00  0.00     0.124 C 
HETATM   13  C14 UNL     1      20.043   0.742  50.491  1.00  0.00     0.174 C 
HETATM   14  O4  UNL     1      19.695   1.432  49.368  1.00  0.00    -0.355 OA
HETATM   15  C15 UNL     1      19.687   2.743  48.892  1.00  0.00     0.132 C 
HETATM   16  C16 UNL     1      18.369   3.386  49.285  1.00  0.00     0.040 C 
HETATM   17  C17 UNL     1      20.863   3.537  49.355  1.00  0.00     0.073 C 
HETATM   18  C18 UNL     1      20.780   4.882  48.648  1.00  0.00     0.018 C 
ENDROOT
BRANCH   1  19
HETATM   19  N1  UNL     1      24.951   2.185  51.752  1.00  0.00    -0.311 N 
HETATM   20  C5  UNL     1      25.896   1.097  51.434  1.00  0.00     0.095 A 
HETATM   21  C4  UNL     1      26.742   0.720  52.376  1.00  0.00     0.003 A 
HETATM   22  C3  UNL     1      26.829   1.294  53.727  1.00  0.00     0.056 A 
HETATM   23  C21 UNL     1      25.851   2.364  53.937  1.00  0.00     0.011 A 
HETATM   24  C19 UNL     1      24.961   2.826  53.081  1.00  0.00     0.011 A 
HETATM   25  C20 UNL     1      24.017   3.937  53.377  1.00  0.00     0.068 C 
BRANCH  22  26
HETATM   26  C2  UNL     1      26.784   0.259  54.795  1.00  0.00    -0.024 C 
HETATM   27  C1  UNL     1      25.872  -0.520  55.401  1.00  0.00     0.008 C 
ENDBRANCH  22  26
ENDBRANCH   1  19
BRANCH   5  28
HETATM   28  O1  UNL     1      21.973   1.955  48.044  1.00  0.00    -0.365 OA
HETATM   29  H8  UNL     1      22.495   1.127  48.239  1.00  0.00     0.213 HD
ENDBRANCH   5  28
TORSDOF 3
ENDMDL
MODEL 7
REMARK VINA RESULT:      -7.2      2.505      5.370
REMARK  3 active torsions:
REMARK  status: ('A' for Active; 'I' for Inactive)
REMARK    1  A    between atoms: C2_2  and  C3_3 
REMARK    2  A    between atoms: N1_6  and  C6_7 
REMARK    3  A    between atoms: C8_11  and  O1_12 
ROOT
HETATM    1  C6  UNL     1      24.267   0.252  53.271  1.00  0.00     0.149 A 
HETATM    2  N2  UNL     1      23.604  -0.618  53.995  1.00  0.00    -0.223 NA
HETATM    3  C7  UNL     1      22.175  -0.667  53.939  1.00  0.00     0.233 A 
HETATM    4  N3  UNL     1      21.486   0.118  53.200  1.00  0.00    -0.239 NA
HETATM    5  C8  UNL     1      22.035   1.141  52.342  1.00  0.00     0.194 A 
HETATM    6  C9  UNL     1      23.520   1.105  52.431  1.00  0.00     0.082 A 
HETATM    7  C10 UNL     1      24.451   1.780  51.816  1.00  0.00     0.119 C 
HETATM    8  O2  UNL     1      25.696   1.384  52.244  1.00  0.00    -0.345 OA
HETATM    9  C11 UNL     1      26.795   2.248  51.895  1.00  0.00     0.202 C 
HETATM   10  C12 UNL     1      26.726   2.642  50.460  1.00  0.00     0.202 C 
HETATM   11  O3  UNL     1      25.524   3.427  50.253  1.00  0.00    -0.344 OA
HETATM   12  C13 UNL     1      24.360   2.824  50.800  1.00  0.00     0.124 C 
HETATM   13  C14 UNL     1      23.335   3.407  50.199  1.00  0.00     0.174 C 
HETATM   14  O4  UNL     1      21.988   3.238  50.319  1.00  0.00    -0.355 OA
HETATM   15  C15 UNL     1      21.047   2.209  50.307  1.00  0.00     0.132 C 
HETATM   16  C16 UNL     1      20.606   1.980  48.872  1.00  0.00     0.040 C 
HETATM   17  C17 UNL     1      21.543   0.958  50.952  1.00  0.00     0.073 C 
HETATM   18  C18 UNL     1      20.368  -0.008  50.982  1.00  0.00     0.018 C 
ENDROOT
BRANCH   1  19
HETATM   19  N1  UNL     1      25.632   0.050  53.549  1.00  0.00    -0.311 N 
HETATM   20  C5  UNL     1      26.201   0.853  54.648  1.00  0.00     0.095 A 
HETATM   21  C4  UNL     1      27.456   0.628  54.991  1.00  0.00     0.003 A 
HETATM   22  C3  UNL     1      28.349  -0.361  54.369  1.00  0.00     0.056 A 
HETATM   23  C21 UNL     1      27.688  -1.103  53.293  1.00  0.00     0.011 A 
HETATM   24  C19 UNL     1      26.448  -0.970  52.862  1.00  0.00     0.011 A 
HETATM   25  C20 UNL     1      25.853  -1.787  51.770  1.00  0.00     0.068 C 
BRANCH  22  26
HETATM   26  C2  UNL     1      29.650   0.224  53.947  1.00  0.00    -0.024 C 
HETATM   27  C1  UNL     1      30.680  -0.092  53.144  1.00  0.00     0.008 C 
ENDBRANCH  22  26
ENDBRANCH   1  19
BRANCH   5  28
HETATM   28  O1  UNL     1      21.536   2.363  52.818  1.00  0.00    -0.365 OA
HETATM   29  H8  UNL     1      22.152   3.113  52.588  1.00  0.00     0.213 HD
ENDBRANCH   5  28
TORSDOF 3
ENDMDL
MODEL 8
REMARK VINA RESULT:      -7.1      2.201      4.929
REMARK  3 active torsions:
REMARK  status: ('A' for Active; 'I' for Inactive)
REMARK    1  A    between atoms: C2_2  and  C3_3 
REMARK    2  A    between atoms: N1_6  and  C6_7 
REMARK    3  A    between atoms: C8_11  and  O1_12 
ROOT
HETATM    1  C6  UNL     1      22.907   3.347  50.529  1.00  0.00     0.149 A 
HETATM    2  N2  UNL     1      23.781   4.177  50.012  1.00  0.00    -0.223 NA
HETATM    3  C7  UNL     1      25.138   4.176  50.468  1.00  0.00     0.233 A 
HETATM    4  N3  UNL     1      25.557   3.387  51.384  1.00  0.00    -0.239 NA
HETATM    5  C8  UNL     1      24.744   2.412  52.072  1.00  0.00     0.194 A 
HETATM    6  C9  UNL     1      23.364   2.452  51.519  1.00  0.00     0.082 A 
HETATM    7  C10 UNL     1      22.300   1.741  51.768  1.00  0.00     0.119 C 
HETATM    8  O2  UNL     1      21.246   2.162  50.993  1.00  0.00    -0.345 OA
HETATM    9  C11 UNL     1      19.940   1.690  51.379  1.00  0.00     0.202 C 
HETATM   10  C12 UNL     1      19.965   0.226  51.654  1.00  0.00     0.202 C 
HETATM   11  O3  UNL     1      20.827  -0.016  52.794  1.00  0.00    -0.344 OA
HETATM   12  C13 UNL     1      22.088   0.629  52.691  1.00  0.00     0.124 C 
HETATM   13  C14 UNL     1      22.883   0.009  53.548  1.00  0.00     0.174 C 
HETATM   14  O4  UNL     1      24.192   0.192  53.878  1.00  0.00    -0.355 OA
HETATM   15  C15 UNL     1      25.433   0.316  53.253  1.00  0.00     0.132 C 
HETATM   16  C16 UNL     1      26.022  -1.073  53.078  1.00  0.00     0.040 C 
HETATM   17  C17 UNL     1      25.363   1.065  51.963  1.00  0.00     0.073 C 
HETATM   18  C18 UNL     1      26.797   1.232  51.483  1.00  0.00     0.018 C 
ENDROOT
BRANCH   1  19
HETATM   19  N1  UNL     1      21.683   3.595  49.878  1.00  0.00    -0.311 N 
HETATM   20  C5  UNL     1      20.816   4.621  50.490  1.00  0.00     0.095 A 
HETATM   21  C4  UNL     1      19.699   4.939  49.860  1.00  0.00     0.003 A 
HETATM   22  C3  UNL     1      19.237   4.358  48.591  1.00  0.00     0.056 A 
HETATM   23  C21 UNL     1      20.168   3.354  48.071  1.00  0.00     0.011 A 
HETATM   24  C19 UNL     1      21.306   2.953  48.604  1.00  0.00     0.011 A 
HETATM   25  C20 UNL     1      22.202   1.937  47.991  1.00  0.00     0.068 C 
BRANCH  22  26
HETATM   26  C2  UNL     1      17.838   3.858  48.664  1.00  0.00    -0.024 C 
HETATM   27  C1  UNL     1      17.196   2.692  48.845  1.00  0.00     0.008 C 
ENDBRANCH  22  26
ENDBRANCH   1  19
BRANCH   5  28
HETATM   28  O1  UNL     1      24.752   2.780  53.426  1.00  0.00    -0.365 OA
HETATM   29  H8  UNL     1      24.498   2.009  54.006  1.00  0.00     0.213 HD
ENDBRANCH   5  28
TORSDOF 3
ENDMDL
MODEL 9
REMARK VINA RESULT:      -7.1      7.105     10.242
REMARK  3 active torsions:
REMARK  status: ('A' for Active; 'I' for Inactive)
REMARK    1  A    between atoms: C2_2  and  C3_3 
REMARK    2  A    between atoms: N1_6  and  C6_7 
REMARK    3  A    between atoms: C8_11  and  O1_12 
ROOT
HETATM    1  C6  UNL     1      29.900   6.349  48.163  1.00  0.00     0.149 A 
HETATM    2  N2  UNL     1      29.254   5.209  48.216  1.00  0.00    -0.223 NA
HETATM    3  C7  UNL     1      27.850   5.184  48.494  1.00  0.00     0.233 A 
HETATM    4  N3  UNL     1      27.169   6.246  48.703  1.00  0.00    -0.239 NA
HETATM    5  C8  UNL     1      27.704   7.587  48.693  1.00  0.00     0.194 A 
HETATM    6  C9  UNL     1      29.154   7.530  48.365  1.00  0.00     0.082 A 
HETATM    7  C10 UNL     1      30.049   8.462  48.185  1.00  0.00     0.119 C 
HETATM    8  O2  UNL     1      31.273   7.906  47.897  1.00  0.00    -0.345 OA
HETATM    9  C11 UNL     1      32.411   8.785  47.988  1.00  0.00     0.202 C 
HETATM   10  C12 UNL     1      32.138  10.080  47.302  1.00  0.00     0.202 C 
HETATM   11  O3  UNL     1      31.059  10.754  47.998  1.00  0.00    -0.344 OA
HETATM   12  C13 UNL     1      29.937   9.916  48.239  1.00  0.00     0.124 C 
HETATM   13  C14 UNL     1      28.924  10.732  48.484  1.00  0.00     0.174 C 
HETATM   14  O4  UNL     1      27.614  10.499  48.778  1.00  0.00    -0.355 OA
HETATM   15  C15 UNL     1      26.535   9.762  48.290  1.00  0.00     0.132 C 
HETATM   16  C16 UNL     1      25.803  10.609  47.263  1.00  0.00     0.040 C 
HETATM   17  C17 UNL     1      26.938   8.434  47.741  1.00  0.00     0.073 C 
HETATM   18  C18 UNL     1      25.650   7.707  47.382  1.00  0.00     0.018 C 
ENDROOT
BRANCH   1  19
HETATM   19  N1  UNL     1      31.243   6.039  47.877  1.00  0.00    -0.311 N 
HETATM   20  C5  UNL     1      31.621   6.031  46.451  1.00  0.00     0.095 A 
HETATM   21  C4  UNL     1      32.891   5.827  46.151  1.00  0.00     0.003 A 
HETATM   22  C3  UNL     1      33.974   5.605  47.120  1.00  0.00     0.056 A 
HETATM   23  C21 UNL     1      33.493   5.634  48.503  1.00  0.00     0.011 A 
HETATM   24  C19 UNL     1      32.259   5.827  48.927  1.00  0.00     0.011 A 
HETATM   25  C20 UNL     1      31.865   5.860  50.360  1.00  0.00     0.068 C 
BRANCH  22  26
HETATM   26  C2  UNL     1      34.776   4.389  46.817  1.00  0.00    -0.024 C 
HETATM   27  C1  UNL     1      35.128   3.659  45.745  1.00  0.00     0.008 C 
ENDBRANCH  22  26
ENDBRANCH   1  19
BRANCH   5  28
HETATM   28  O1  UNL     1      27.503   8.101  49.983  1.00  0.00    -0.365 OA
HETATM   29  H8  UNL     1      28.340   8.516  50.335  1.00  0.00     0.213 HD
ENDBRANCH   5  28
TORSDOF 3
ENDMDL
