MODEL 1
REMARK VINA RESULT:      -8.9      0.000      0.000
REMARK  6 active torsions:
REMARK  status: ('A' for Active; 'I' for Inactive)
REMARK    1  A    between atoms: C2_2  and  C3_3 
REMARK    2  A    between atoms: C3_3  and  O1_4 
REMARK    3  A    between atoms: O1_4  and  C4_5 
REMARK    4  A    between atoms: C4_5  and  C5_6 
REMARK    5  A    between atoms: C11_15  and  N3_16 
REMARK    6  A    between atoms: N3_16  and  C12_17 
ROOT
HETATM    1  C5  UNL     1      22.894   0.975  51.643  1.00  0.00     0.082 C 
HETATM    2  C6  UNL     1      22.723   0.289  52.687  1.00  0.00     0.025 A 
HETATM    3  O2  UNL     1      21.424   0.294  52.488  1.00  0.00     0.000 OA
HETATM    4  C7  UNL     1      20.480  -0.158  53.080  1.00  0.00     0.030 A 
HETATM    5  C8  UNL     1      20.982  -0.749  54.135  1.00  0.00     0.020 A 
HETATM    6  C9  UNL     1      22.343  -0.932  54.620  1.00  0.00     0.070 A 
HETATM    7  N1  UNL     1      22.884  -1.544  55.675  1.00  0.00    -0.241 NA
HETATM    8  C10 UNL     1      24.278  -1.447  55.660  1.00  0.00     0.236 A 
HETATM    9  N2  UNL     1      25.156  -0.838  54.748  1.00  0.00    -0.223 NA
HETATM   10  C11 UNL     1      24.574  -0.209  53.666  1.00  0.00     0.143 A 
HETATM   11  C18 UNL     1      23.266  -0.360  53.797  1.00  0.00     0.052 A 
HETATM   12  C19 UNL     1      20.503   0.585  51.836  1.00  0.00     0.191 A 
HETATM   13  O3  UNL     1      21.737   0.673  51.019  1.00  0.00    -0.351 OA
ENDROOT
BRANCH  10  14
HETATM   14  N3  UNL     1      25.658   0.141  52.973  1.00  0.00    -0.340 N 
HETATM   15  H12 UNL     1      25.248   0.649  52.171  1.00  0.00     0.167 HD
BRANCH  14  16
HETATM   16  C12 UNL     1      27.031  -0.212  53.269  1.00  0.00     0.033 A 
HETATM   17  C13 UNL     1      27.463  -1.421  52.833  1.00  0.00     0.032 A 
HETATM   18  C14 UNL     1      28.772  -1.866  53.064  1.00  0.00     0.044 A 
HETATM   19  C15 UNL     1      29.525  -0.944  53.762  1.00  0.00     0.116 A 
HETATM   20  F1  UNL     1      30.829  -1.279  54.043  1.00  0.00    -0.206 F 
HETATM   21  C16 UNL     1      29.144   0.290  54.227  1.00  0.00     0.044 A 
HETATM   22  C17 UNL     1      27.825   0.667  53.962  1.00  0.00     0.032 A 
ENDBRANCH  14  16
ENDBRANCH  10  14
BRANCH   1  23
HETATM   23  C4  UNL     1      24.118   1.677  51.645  1.00  0.00     0.233 C 
BRANCH  23  24
HETATM   24  O1  UNL     1      24.340   2.648  50.680  1.00  0.00    -0.385 OA
BRANCH  24  25
HETATM   25  C3  UNL     1      25.420   3.431  50.722  1.00  0.00     0.167 C 
BRANCH  25  26
HETATM   26  C2  UNL     1      26.510   3.163  49.717  1.00  0.00     0.022 C 
HETATM   27  C1  UNL     1      26.932   4.500  49.062  1.00  0.00     0.007 C 
ENDBRANCH  25  26
ENDBRANCH  24  25
ENDBRANCH  23  24
ENDBRANCH   1  23
TORSDOF 6
ENDMDL
MODEL 2
REMARK VINA RESULT:      -8.7      3.049      5.874
REMARK  6 active torsions:
REMARK  status: ('A' for Active; 'I' for Inactive)
REMARK    1  A    between atoms: C2_2  and  C3_3 
REMARK    2  A    between atoms: C3_3  and  O1_4 
REMARK    3  A    between atoms: O1_4  and  C4_5 
REMARK    4  A    between atoms: C4_5  and  C5_6 
REMARK    5  A    between atoms: C11_15  and  N3_16 
REMARK    6  A    between atoms: N3_16  and  C12_17 
ROOT
HETATM    1  C5  UNL     1      27.511   2.251  53.216  1.00  0.00     0.082 C 
HETATM    2  C6  UNL     1      27.850   1.038  53.264  1.00  0.00     0.025 A 
HETATM    3  O2  UNL     1      28.963   1.364  53.882  1.00  0.00     0.000 OA
HETATM    4  C7  UNL     1      29.908   0.747  54.297  1.00  0.00     0.030 A 
HETATM    5  C8  UNL     1      29.664  -0.504  53.998  1.00  0.00     0.020 A 
HETATM    6  C9  UNL     1      28.547  -1.172  53.341  1.00  0.00     0.070 A 
HETATM    7  N1  UNL     1      28.262  -2.440  53.043  1.00  0.00    -0.241 NA
HETATM    8  C10 UNL     1      27.016  -2.549  52.420  1.00  0.00     0.236 A 
HETATM    9  N2  UNL     1      26.062  -1.576  52.078  1.00  0.00    -0.223 NA
HETATM   10  C11 UNL     1      26.379  -0.270  52.394  1.00  0.00     0.143 A 
HETATM   11  C18 UNL     1      27.572  -0.297  52.965  1.00  0.00     0.052 A 
HETATM   12  C19 UNL     1      29.649   2.171  54.368  1.00  0.00     0.191 A 
HETATM   13  O3  UNL     1      28.274   2.708  54.230  1.00  0.00    -0.351 OA
ENDROOT
BRANCH  10  14
HETATM   14  N3  UNL     1      25.247   0.347  52.054  1.00  0.00    -0.340 N 
HETATM   15  H12 UNL     1      25.539   0.895  51.227  1.00  0.00     0.167 HD
BRANCH  14  16
HETATM   16  C12 UNL     1      23.983   0.297  52.759  1.00  0.00     0.033 A 
HETATM   17  C13 UNL     1      23.907  -0.537  53.826  1.00  0.00     0.032 A 
HETATM   18  C14 UNL     1      22.733  -0.665  54.581  1.00  0.00     0.044 A 
HETATM   19  C15 UNL     1      21.714   0.137  54.110  1.00  0.00     0.116 A 
HETATM   20  F1  UNL     1      20.514   0.090  54.780  1.00  0.00    -0.206 F 
HETATM   21  C16 UNL     1      21.733   0.997  53.040  1.00  0.00     0.044 A 
HETATM   22  C17 UNL     1      22.935   1.073  52.333  1.00  0.00     0.032 A 
ENDBRANCH  14  16
ENDBRANCH  10  14
BRANCH   1  23
HETATM   23  C4  UNL     1      26.575   2.516  52.194  1.00  0.00     0.233 C 
BRANCH  23  24
HETATM   24  O1  UNL     1      27.031   2.726  50.900  1.00  0.00    -0.385 OA
BRANCH  24  25
HETATM   25  C3  UNL     1      26.329   3.455  50.029  1.00  0.00     0.167 C 
BRANCH  25  26
HETATM   26  C2  UNL     1      27.102   4.312  49.061  1.00  0.00     0.022 C 
HETATM   27  C1  UNL     1      26.398   5.683  48.928  1.00  0.00     0.007 C 
ENDBRANCH  25  26
ENDBRANCH  24  25
ENDBRANCH  23  24
ENDBRANCH   1  23
TORSDOF 6
ENDMDL
MODEL 3
REMARK VINA RESULT:      -8.3      3.480      5.761
REMARK  6 active torsions:
REMARK  status: ('A' for Active; 'I' for Inactive)
REMARK    1  A    between atoms: C2_2  and  C3_3 
REMARK    2  A    between atoms: C3_3  and  O1_4 
REMARK    3  A    between atoms: O1_4  and  C4_5 
REMARK    4  A    between atoms: C4_5  and  C5_6 
REMARK    5  A    between atoms: C11_15  and  N3_16 
REMARK    6  A    between atoms: N3_16  and  C12_17 
ROOT
HETATM    1  C5  UNL     1      26.751   1.766  52.453  1.00  0.00     0.082 C 
HETATM    2  C6  UNL     1      25.852   1.038  52.955  1.00  0.00     0.025 A 
HETATM    3  O2  UNL     1      26.682   0.647  53.896  1.00  0.00     0.000 OA
HETATM    4  C7  UNL     1      26.601  -0.107  54.829  1.00  0.00     0.030 A 
HETATM    5  C8  UNL     1      25.384  -0.587  54.784  1.00  0.00     0.020 A 
HETATM    6  C9  UNL     1      24.253  -0.352  53.895  1.00  0.00     0.070 A 
HETATM    7  N1  UNL     1      23.002  -0.808  53.837  1.00  0.00    -0.241 NA
HETATM    8  C10 UNL     1      22.298  -0.230  52.777  1.00  0.00     0.236 A 
HETATM    9  N2  UNL     1      22.686   0.714  51.811  1.00  0.00    -0.223 NA
HETATM   10  C11 UNL     1      23.987   1.170  51.890  1.00  0.00     0.143 A 
HETATM   11  C18 UNL     1      24.545   0.549  52.916  1.00  0.00     0.052 A 
HETATM   12  C19 UNL     1      27.726   0.707  54.411  1.00  0.00     0.191 A 
HETATM   13  O3  UNL     1      27.531   1.894  53.546  1.00  0.00    -0.351 OA
ENDROOT
BRANCH  10  14
HETATM   14  N3  UNL     1      23.978   2.103  50.938  1.00  0.00    -0.340 N 
HETATM   15  H12 UNL     1      24.536   1.656  50.190  1.00  0.00     0.167 HD
BRANCH  14  16
HETATM   16  C12 UNL     1      23.397   3.427  51.023  1.00  0.00     0.033 A 
HETATM   17  C13 UNL     1      22.686   3.856  49.950  1.00  0.00     0.032 A 
HETATM   18  C14 UNL     1      22.080   5.121  49.923  1.00  0.00     0.044 A 
HETATM   19  C15 UNL     1      22.297   5.832  51.085  1.00  0.00     0.116 A 
HETATM   20  F1  UNL     1      21.744   7.089  51.166  1.00  0.00    -0.206 F 
HETATM   21  C16 UNL     1      23.004   5.451  52.198  1.00  0.00     0.044 A 
HETATM   22  C17 UNL     1      23.581   4.180  52.155  1.00  0.00     0.032 A 
ENDBRANCH  14  16
ENDBRANCH  10  14
BRANCH   1  23
HETATM   23  C4  UNL     1      26.520   2.058  51.092  1.00  0.00     0.233 C 
BRANCH  23  24
HETATM   24  O1  UNL     1      26.964   3.268  50.578  1.00  0.00    -0.385 OA
BRANCH  24  25
HETATM   25  C3  UNL     1      26.718   3.614  49.312  1.00  0.00     0.167 C 
BRANCH  25  26
HETATM   26  C2  UNL     1      26.937   5.055  48.932  1.00  0.00     0.022 C 
HETATM   27  C1  UNL     1      25.787   5.911  49.514  1.00  0.00     0.007 C 
ENDBRANCH  25  26
ENDBRANCH  24  25
ENDBRANCH  23  24
ENDBRANCH   1  23
TORSDOF 6
ENDMDL
MODEL 4
REMARK VINA RESULT:      -8.3      3.196      5.335
REMARK  6 active torsions:
REMARK  status: ('A' for Active; 'I' for Inactive)
REMARK    1  A    between atoms: C2_2  and  C3_3 
REMARK    2  A    between atoms: C3_3  and  O1_4 
REMARK    3  A    between atoms: O1_4  and  C4_5 
REMARK    4  A    between atoms: C4_5  and  C5_6 
REMARK    5  A    between atoms: C11_15  and  N3_16 
REMARK    6  A    between atoms: N3_16  and  C12_17 
ROOT
HETATM    1  C5  UNL     1      25.220   0.008  53.581  1.00  0.00     0.082 C 
HETATM    2  C6  UNL     1      23.971  -0.153  53.598  1.00  0.00     0.025 A 
HETATM    3  O2  UNL     1      24.067  -0.860  54.701  1.00  0.00     0.000 OA
HETATM    4  C7  UNL     1      23.279  -1.430  55.408  1.00  0.00     0.030 A 
HETATM    5  C8  UNL     1      22.111  -1.243  54.846  1.00  0.00     0.020 A 
HETATM    6  C9  UNL     1      21.682  -0.520  53.656  1.00  0.00     0.070 A 
HETATM    7  N1  UNL     1      20.504  -0.295  53.074  1.00  0.00    -0.241 NA
HETATM    8  C10 UNL     1      20.641   0.505  51.937  1.00  0.00     0.236 A 
HETATM    9  N2  UNL     1      21.775   1.085  51.343  1.00  0.00    -0.223 NA
HETATM   10  C11 UNL     1      22.984   0.838  51.962  1.00  0.00     0.143 A 
HETATM   11  C18 UNL     1      22.725   0.071  53.008  1.00  0.00     0.052 A 
HETATM   12  C19 UNL     1      24.714  -1.302  55.564  1.00  0.00     0.191 A 
HETATM   13  O3  UNL     1      25.464  -0.217  54.889  1.00  0.00    -0.351 OA
ENDROOT
BRANCH  10  14
HETATM   14  N3  UNL     1      23.795   1.606  51.234  1.00  0.00    -0.340 N 
HETATM   15  H12 UNL     1      24.418   0.909  50.794  1.00  0.00     0.167 HD
BRANCH  14  16
HETATM   16  C12 UNL     1      23.810   3.054  51.185  1.00  0.00     0.033 A 
HETATM   17  C13 UNL     1      23.639   3.710  52.360  1.00  0.00     0.032 A 
HETATM   18  C14 UNL     1      23.635   5.110  52.431  1.00  0.00     0.044 A 
HETATM   19  C15 UNL     1      23.823   5.699  51.198  1.00  0.00     0.116 A 
HETATM   20  F1  UNL     1      23.838   7.074  51.152  1.00  0.00    -0.206 F 
HETATM   21  C16 UNL     1      24.000   5.090  49.980  1.00  0.00     0.044 A 
HETATM   22  C17 UNL     1      23.992   3.693  49.985  1.00  0.00     0.032 A 
ENDBRANCH  14  16
ENDBRANCH  10  14
BRANCH   1  23
HETATM   23  C4  UNL     1      25.715   0.312  52.295  1.00  0.00     0.233 C 
BRANCH  23  24
HETATM   24  O1  UNL     1      26.942   0.948  52.178  1.00  0.00    -0.385 OA
BRANCH  24  25
HETATM   25  C3  UNL     1      27.160   2.140  52.739  1.00  0.00     0.167 C 
BRANCH  25  26
HETATM   26  C2  UNL     1      28.439   2.318  53.514  1.00  0.00     0.022 C 
HETATM   27  C1  UNL     1      29.100   0.935  53.721  1.00  0.00     0.007 C 
ENDBRANCH  25  26
ENDBRANCH  24  25
ENDBRANCH  23  24
ENDBRANCH   1  23
TORSDOF 6
ENDMDL
MODEL 5
REMARK VINA RESULT:      -8.0      3.492      7.150
REMARK  6 active torsions:
REMARK  status: ('A' for Active; 'I' for Inactive)
REMARK    1  A    between atoms: C2_2  and  C3_3 
REMARK    2  A    between atoms: C3_3  and  O1_4 
REMARK    3  A    between atoms: O1_4  and  C4_5 
REMARK    4  A    between atoms: C4_5  and  C5_6 
REMARK    5  A    between atoms: C11_15  and  N3_16 
REMARK    6  A    between atoms: N3_16  and  C12_17 
ROOT
HETATM    1  C5  UNL     1      25.136  -0.183  53.815  1.00  0.00     0.082 C 
HETATM    2  C6  UNL     1      25.728   0.680  53.113  1.00  0.00     0.025 A 
HETATM    3  O2  UNL     1      26.835   0.489  53.795  1.00  0.00     0.000 OA
HETATM    4  C7  UNL     1      27.939   0.964  53.759  1.00  0.00     0.030 A 
HETATM    5  C8  UNL     1      27.901   1.860  52.805  1.00  0.00     0.020 A 
HETATM    6  C9  UNL     1      26.856   2.291  51.885  1.00  0.00     0.070 A 
HETATM    7  N1  UNL     1      26.794   3.181  50.895  1.00  0.00    -0.241 NA
HETATM    8  C10 UNL     1      25.532   3.188  50.294  1.00  0.00     0.236 A 
HETATM    9  N2  UNL     1      24.375   2.436  50.559  1.00  0.00    -0.223 NA
HETATM   10  C11 UNL     1      24.462   1.522  51.590  1.00  0.00     0.143 A 
HETATM   11  C18 UNL     1      25.688   1.616  52.078  1.00  0.00     0.052 A 
HETATM   12  C19 UNL     1      27.426  -0.082  54.622  1.00  0.00     0.191 A 
HETATM   13  O3  UNL     1      26.220  -0.859  54.249  1.00  0.00    -0.351 OA
ENDROOT
BRANCH  10  14
HETATM   14  N3  UNL     1      23.274   0.925  51.490  1.00  0.00    -0.340 N 
HETATM   15  H12 UNL     1      23.536  -0.074  51.444  1.00  0.00     0.167 HD
BRANCH  14  16
HETATM   16  C12 UNL     1      21.982   1.571  51.382  1.00  0.00     0.033 A 
HETATM   17  C13 UNL     1      21.143   1.112  50.420  1.00  0.00     0.032 A 
HETATM   18  C14 UNL     1      19.869   1.663  50.226  1.00  0.00     0.044 A 
HETATM   19  C15 UNL     1      19.600   2.688  51.108  1.00  0.00     0.116 A 
HETATM   20  F1  UNL     1      18.373   3.301  51.007  1.00  0.00    -0.206 F 
HETATM   21  C16 UNL     1      20.406   3.194  52.098  1.00  0.00     0.044 A 
HETATM   22  C17 UNL     1      21.661   2.598  52.234  1.00  0.00     0.032 A 
ENDBRANCH  14  16
ENDBRANCH  10  14
BRANCH   1  23
HETATM   23  C4  UNL     1      23.734  -0.024  53.809  1.00  0.00     0.233 C 
BRANCH  23  24
HETATM   24  O1  UNL     1      22.931  -1.134  53.595  1.00  0.00    -0.385 OA
BRANCH  24  25
HETATM   25  C3  UNL     1      21.845  -1.357  54.340  1.00  0.00     0.167 C 
BRANCH  25  26
HETATM   26  C2  UNL     1      20.830  -0.249  54.434  1.00  0.00     0.022 C 
HETATM   27  C1  UNL     1      19.679  -0.532  53.440  1.00  0.00     0.007 C 
ENDBRANCH  25  26
ENDBRANCH  24  25
ENDBRANCH  23  24
ENDBRANCH   1  23
TORSDOF 6
ENDMDL
MODEL 6
REMARK VINA RESULT:      -8.0      2.213      4.938
REMARK  6 active torsions:
REMARK  status: ('A' for Active; 'I' for Inactive)
REMARK    1  A    between atoms: C2_2  and  C3_3 
REMARK    2  A    between atoms: C3_3  and  O1_4 
REMARK    3  A    between atoms: O1_4  and  C4_5 
REMARK    4  A    between atoms: C4_5  and  C5_6 
REMARK    5  A    between atoms: C11_15  and  N3_16 
REMARK    6  A    between atoms: N3_16  and  C12_17 
ROOT
HETATM    1  C5  UNL     1      22.758   2.850  52.278  1.00  0.00     0.082 C 
HETATM    2  C6  UNL     1      23.439   3.300  51.318  1.00  0.00     0.025 A 
HETATM    3  O2  UNL     1      22.351   3.773  50.754  1.00  0.00     0.000 OA
HETATM    4  C7  UNL     1      22.120   4.368  49.736  1.00  0.00     0.030 A 
HETATM    5  C8  UNL     1      23.280   4.504  49.143  1.00  0.00     0.020 A 
HETATM    6  C9  UNL     1      24.635   4.109  49.504  1.00  0.00     0.070 A 
HETATM    7  N1  UNL     1      25.832   4.251  48.934  1.00  0.00    -0.241 NA
HETATM    8  C10 UNL     1      26.843   3.701  49.727  1.00  0.00     0.236 A 
HETATM    9  N2  UNL     1      26.795   3.056  50.974  1.00  0.00    -0.223 NA
HETATM   10  C11 UNL     1      25.545   2.918  51.544  1.00  0.00     0.143 A 
HETATM   11  C18 UNL     1      24.682   3.463  50.703  1.00  0.00     0.052 A 
HETATM   12  C19 UNL     1      21.200   3.960  50.779  1.00  0.00     0.191 A 
HETATM   13  O3  UNL     1      21.682   3.653  52.147  1.00  0.00    -0.351 OA
ENDROOT
BRANCH  10  14
HETATM   14  N3  UNL     1      25.871   2.392  52.726  1.00  0.00    -0.340 N 
HETATM   15  H12 UNL     1      25.219   2.876  53.366  1.00  0.00     0.167 HD
BRANCH  14  16
HETATM   16  C12 UNL     1      26.941   1.454  52.995  1.00  0.00     0.033 A 
HETATM   17  C13 UNL     1      26.719   0.157  52.664  1.00  0.00     0.032 A 
HETATM   18  C14 UNL     1      27.684  -0.836  52.881  1.00  0.00     0.044 A 
HETATM   19  C15 UNL     1      28.837  -0.334  53.448  1.00  0.00     0.116 A 
HETATM   20  F1  UNL     1      29.854  -1.225  53.703  1.00  0.00    -0.206 F 
HETATM   21  C16 UNL     1      29.118   0.963  53.802  1.00  0.00     0.044 A 
HETATM   22  C17 UNL     1      28.110   1.898  53.559  1.00  0.00     0.032 A 
ENDBRANCH  14  16
ENDBRANCH  10  14
BRANCH   1  23
HETATM   23  C4  UNL     1      23.405   1.799  52.962  1.00  0.00     0.233 C 
BRANCH  23  24
HETATM   24  O1  UNL     1      23.226   0.497  52.519  1.00  0.00    -0.385 OA
BRANCH  24  25
HETATM   25  C3  UNL     1      22.122  -0.192  52.821  1.00  0.00     0.167 C 
BRANCH  25  26
HETATM   26  C2  UNL     1      21.682  -0.199  54.261  1.00  0.00     0.022 C 
HETATM   27  C1  UNL     1      22.523  -1.239  55.040  1.00  0.00     0.007 C 
ENDBRANCH  25  26
ENDBRANCH  24  25
ENDBRANCH  23  24
ENDBRANCH   1  23
TORSDOF 6
ENDMDL
MODEL 7
REMARK VINA RESULT:      -7.9      3.347      6.074
REMARK  6 active torsions:
REMARK  status: ('A' for Active; 'I' for Inactive)
REMARK    1  A    between atoms: C2_2  and  C3_3 
REMARK    2  A    between atoms: C3_3  and  O1_4 
REMARK    3  A    between atoms: O1_4  and  C4_5 
REMARK    4  A    between atoms: C4_5  and  C5_6 
REMARK    5  A    between atoms: C11_15  and  N3_16 
REMARK    6  A    between atoms: N3_16  and  C12_17 
ROOT
HETATM    1  C5  UNL     1      27.179   2.149  52.228  1.00  0.00     0.082 C 
HETATM    2  C6  UNL     1      26.804   1.307  53.088  1.00  0.00     0.025 A 
HETATM    3  O2  UNL     1      28.011   1.287  53.607  1.00  0.00     0.000 OA
HETATM    4  C7  UNL     1      28.527   0.691  54.515  1.00  0.00     0.030 A 
HETATM    5  C8  UNL     1      27.588  -0.080  55.003  1.00  0.00     0.020 A 
HETATM    6  C9  UNL     1      26.184  -0.277  54.663  1.00  0.00     0.070 A 
HETATM    7  N1  UNL     1      25.203  -1.035  55.152  1.00  0.00    -0.241 NA
HETATM    8  C10 UNL     1      24.005  -0.824  54.465  1.00  0.00     0.236 A 
HETATM    9  N2  UNL     1      23.689   0.026  53.392  1.00  0.00    -0.223 NA
HETATM   10  C11 UNL     1      24.721   0.800  52.900  1.00  0.00     0.143 A 
HETATM   11  C18 UNL     1      25.792   0.506  53.619  1.00  0.00     0.052 A 
HETATM   12  C19 UNL     1      29.106   1.685  53.634  1.00  0.00     0.191 A 
HETATM   13  O3  UNL     1      28.250   2.638  52.887  1.00  0.00    -0.351 OA
ENDROOT
BRANCH  10  14
HETATM   14  N3  UNL     1      24.067   1.542  52.005  1.00  0.00    -0.340 N 
HETATM   15  H12 UNL     1      24.842   2.008  51.503  1.00  0.00     0.167 HD
BRANCH  14  16
HETATM   16  C12 UNL     1      22.632   1.689  51.880  1.00  0.00     0.033 A 
HETATM   17  C13 UNL     1      22.082   2.816  52.397  1.00  0.00     0.032 A 
HETATM   18  C14 UNL     1      20.703   3.062  52.333  1.00  0.00     0.044 A 
HETATM   19  C15 UNL     1      20.017   2.047  51.699  1.00  0.00     0.116 A 
HETATM   20  F1  UNL     1      18.654   2.188  51.579  1.00  0.00    -0.206 F 
HETATM   21  C16 UNL     1      20.518   0.889  51.158  1.00  0.00     0.044 A 
HETATM   22  C17 UNL     1      21.899   0.710  51.259  1.00  0.00     0.032 A 
ENDBRANCH  14  16
ENDBRANCH  10  14
BRANCH   1  23
HETATM   23  C4  UNL     1      26.359   2.160  51.080  1.00  0.00     0.233 C 
BRANCH  23  24
HETATM   24  O1  UNL     1      25.790   3.357  50.669  1.00  0.00    -0.385 OA
BRANCH  24  25
HETATM   25  C3  UNL     1      25.360   3.524  49.416  1.00  0.00     0.167 C 
BRANCH  25  26
HETATM   26  C2  UNL     1      23.955   4.035  49.228  1.00  0.00     0.022 C 
HETATM   27  C1  UNL     1      23.107   2.938  48.543  1.00  0.00     0.007 C 
ENDBRANCH  25  26
ENDBRANCH  24  25
ENDBRANCH  23  24
ENDBRANCH   1  23
TORSDOF 6
ENDMDL
MODEL 8
REMARK VINA RESULT:      -7.9      3.126      6.338
REMARK  6 active torsions:
REMARK  status: ('A' for Active; 'I' for Inactive)
REMARK    1  A    between atoms: C2_2  and  C3_3 
REMARK    2  A    between atoms: C3_3  and  O1_4 
REMARK    3  A    between atoms: O1_4  and  C4_5 
REMARK    4  A    between atoms: C4_5  and  C5_6 
REMARK    5  A    between atoms: C11_15  and  N3_16 
REMARK    6  A    between atoms: N3_16  and  C12_17 
ROOT
HETATM    1  C5  UNL     1      26.522   3.029  50.191  1.00  0.00     0.082 C 
HETATM    2  C6  UNL     1      25.574   3.817  50.450  1.00  0.00     0.025 A 
HETATM    3  O2  UNL     1      26.125   4.743  49.698  1.00  0.00     0.000 OA
HETATM    4  C7  UNL     1      25.836   5.873  49.406  1.00  0.00     0.030 A 
HETATM    5  C8  UNL     1      24.721   6.123  50.047  1.00  0.00     0.020 A 
HETATM    6  C9  UNL     1      23.879   5.326  50.929  1.00  0.00     0.070 A 
HETATM    7  N1  UNL     1      22.735   5.545  51.576  1.00  0.00    -0.241 NA
HETATM    8  C10 UNL     1      22.324   4.412  52.284  1.00  0.00     0.236 A 
HETATM    9  N2  UNL     1      22.902   3.137  52.410  1.00  0.00    -0.223 NA
HETATM   10  C11 UNL     1      24.089   2.934  51.733  1.00  0.00     0.143 A 
HETATM   11  C18 UNL     1      24.373   4.069  51.116  1.00  0.00     0.052 A 
HETATM   12  C19 UNL     1      26.969   5.082  48.970  1.00  0.00     0.191 A 
HETATM   13  O3  UNL     1      26.944   3.602  49.044  1.00  0.00    -0.351 OA
ENDROOT
BRANCH  10  14
HETATM   14  N3  UNL     1      24.285   1.636  51.965  1.00  0.00    -0.340 N 
HETATM   15  H12 UNL     1      25.211   1.475  51.533  1.00  0.00     0.167 HD
BRANCH  14  16
HETATM   16  C12 UNL     1      23.357   0.714  52.587  1.00  0.00     0.033 A 
HETATM   17  C13 UNL     1      23.788   0.062  53.696  1.00  0.00     0.032 A 
HETATM   18  C14 UNL     1      22.974  -0.854  54.378  1.00  0.00     0.044 A 
HETATM   19  C15 UNL     1      21.732  -0.991  53.794  1.00  0.00     0.116 A 
HETATM   20  F1  UNL     1      20.851  -1.865  54.385  1.00  0.00    -0.206 F 
HETATM   21  C16 UNL     1      21.242  -0.360  52.677  1.00  0.00     0.044 A 
HETATM   22  C17 UNL     1      22.108   0.538  52.048  1.00  0.00     0.032 A 
ENDBRANCH  14  16
ENDBRANCH  10  14
BRANCH   1  23
HETATM   23  C4  UNL     1      26.672   2.015  51.160  1.00  0.00     0.233 C 
BRANCH  23  24
HETATM   24  O1  UNL     1      27.598   2.188  52.179  1.00  0.00    -0.385 OA
BRANCH  24  25
HETATM   25  C3  UNL     1      27.572   1.423  53.273  1.00  0.00     0.167 C 
BRANCH  25  26
HETATM   26  C2  UNL     1      27.766  -0.059  53.088  1.00  0.00     0.022 C 
HETATM   27  C1  UNL     1      29.180  -0.449  53.580  1.00  0.00     0.007 C 
ENDBRANCH  25  26
ENDBRANCH  24  25
ENDBRANCH  23  24
ENDBRANCH   1  23
TORSDOF 6
ENDMDL
MODEL 9
REMARK VINA RESULT:      -7.7      3.273      5.829
REMARK  6 active torsions:
REMARK  status: ('A' for Active; 'I' for Inactive)
REMARK    1  A    between atoms: C2_2  and  C3_3 
REMARK    2  A    between atoms: C3_3  and  O1_4 
REMARK    3  A    between atoms: O1_4  and  C4_5 
REMARK    4  A    between atoms: C4_5  and  C5_6 
REMARK    5  A    between atoms: C11_15  and  N3_16 
REMARK    6  A    between atoms: N3_16  and  C12_17 
ROOT
HETATM    1  C5  UNL     1      24.462   1.199  52.747  1.00  0.00     0.082 C 
HETATM    2  C6  UNL     1      23.530   1.362  51.915  1.00  0.00     0.025 A 
HETATM    3  O2  UNL     1      22.895   0.322  52.408  1.00  0.00     0.000 OA
HETATM    4  C7  UNL     1      21.863  -0.236  52.147  1.00  0.00     0.030 A 
HETATM    5  C8  UNL     1      21.362   0.418  51.130  1.00  0.00     0.020 A 
HETATM    6  C9  UNL     1      21.807   1.585  50.380  1.00  0.00     0.070 A 
HETATM    7  N1  UNL     1      21.311   2.283  49.357  1.00  0.00    -0.241 NA
HETATM    8  C10 UNL     1      22.138   3.360  49.026  1.00  0.00     0.236 A 
HETATM    9  N2  UNL     1      23.351   3.802  49.580  1.00  0.00    -0.223 NA
HETATM   10  C11 UNL     1      23.846   3.063  50.637  1.00  0.00     0.143 A 
HETATM   11  C18 UNL     1      22.989   2.078  50.846  1.00  0.00     0.052 A 
HETATM   12  C19 UNL     1      22.819  -0.535  53.195  1.00  0.00     0.191 A 
HETATM   13  O3  UNL     1      23.780   0.489  53.669  1.00  0.00    -0.351 OA
ENDROOT
BRANCH  10  14
HETATM   14  N3  UNL     1      24.901   3.803  50.980  1.00  0.00    -0.340 N 
HETATM   15  H12 UNL     1      24.880   3.745  52.012  1.00  0.00     0.167 HD
BRANCH  14  16
HETATM   16  C12 UNL     1      25.764   4.554  50.091  1.00  0.00     0.033 A 
HETATM   17  C13 UNL     1      25.478   5.869  49.922  1.00  0.00     0.032 A 
HETATM   18  C14 UNL     1      26.246   6.690  49.085  1.00  0.00     0.044 A 
HETATM   19  C15 UNL     1      27.284   6.007  48.486  1.00  0.00     0.116 A 
HETATM   20  F1  UNL     1      28.104   6.720  47.643  1.00  0.00    -0.206 F 
HETATM   21  C16 UNL     1      27.621   4.683  48.619  1.00  0.00     0.044 A 
HETATM   22  C17 UNL     1      26.812   3.924  49.468  1.00  0.00     0.032 A 
ENDBRANCH  14  16
ENDBRANCH  10  14
BRANCH   1  23
HETATM   23  C4  UNL     1      25.675   1.787  52.330  1.00  0.00     0.233 C 
BRANCH  23  24
HETATM   24  O1  UNL     1      26.611   2.151  53.287  1.00  0.00    -0.385 OA
BRANCH  24  25
HETATM   25  C3  UNL     1      27.849   1.649  53.271  1.00  0.00     0.167 C 
BRANCH  25  26
HETATM   26  C2  UNL     1      28.123   0.455  54.147  1.00  0.00     0.022 C 
HETATM   27  C1  UNL     1      29.479  -0.169  53.740  1.00  0.00     0.007 C 
ENDBRANCH  25  26
ENDBRANCH  24  25
ENDBRANCH  23  24
ENDBRANCH   1  23
TORSDOF 6
ENDMDL
