MODEL 1
REMARK VINA RESULT:      -8.9      0.000      0.000
REMARK  5 active torsions:
REMARK  status: ('A' for Active; 'I' for Inactive)
REMARK    1  A    between atoms: C14_14  and  C15_15 
REMARK    2  A    between atoms: C15_15  and  C16_16 
REMARK    3  A    between atoms: C20_21  and  O1_22 
REMARK    4  A    between atoms: C26_28  and  C27_29 
REMARK    5  A    between atoms: C27_29  and  N2_30 
ROOT
HETATM    1  C1  UNL     1      22.807   2.528  49.438  1.00  0.00     0.021 C 
HETATM    2  C2  UNL     1      23.580   3.555  49.715  1.00  0.00    -0.045 C 
HETATM    3  C3  UNL     1      23.282   4.875  49.163  1.00  0.00    -0.021 A 
HETATM    4  C4  UNL     1      23.121   4.800  47.801  1.00  0.00     0.012 A 
HETATM    5  C5  UNL     1      22.813   5.836  46.969  1.00  0.00     0.001 A 
HETATM    6  C6  UNL     1      22.646   7.071  47.528  1.00  0.00     0.001 A 
HETATM    7  C7  UNL     1      22.806   7.164  48.901  1.00  0.00     0.010 A 
HETATM    8  C8  UNL     1      23.123   6.117  49.794  1.00  0.00    -0.024 A 
HETATM    9  C9  UNL     1      23.199   6.741  51.151  1.00  0.00     0.120 C 
HETATM   10  C10 UNL     1      23.466   5.841  52.264  1.00  0.00     0.028 C 
HETATM   11  C11 UNL     1      23.472   4.620  52.748  1.00  0.00     0.024 C 
HETATM   12  C12 UNL     1      23.389   3.211  53.049  1.00  0.00    -0.009 C 
HETATM   13  C13 UNL     1      24.691   2.978  52.810  1.00  0.00    -0.026 C 
HETATM   14  C14 UNL     1      24.969   2.721  51.532  1.00  0.00    -0.053 C 
HETATM   15  C22 UNL     1      24.656   3.857  50.584  1.00  0.00     0.071 C 
HETATM   16  C23 UNL     1      25.796   3.985  49.540  1.00  0.00    -0.016 C 
HETATM   17  C24 UNL     1      26.383   5.154  49.171  1.00  0.00    -0.018 C 
HETATM   18  C25 UNL     1      25.677   6.207  49.945  1.00  0.00     0.068 C 
HETATM   19  C26 UNL     1      25.593   7.499  50.215  1.00  0.00     0.019 C 
HETATM   20  N3  UNL     1      24.358   7.679  50.991  1.00  0.00    -0.385 N 
HETATM   21  H27 UNL     1      24.222   8.551  51.530  1.00  0.00     0.160 HD
ENDROOT
BRANCH  14  22
HETATM   22  C15 UNL     1      25.506   1.349  51.224  1.00  0.00     0.077 C 
BRANCH  22  23
HETATM   23  C16 UNL     1      26.204   0.786  52.405  1.00  0.00    -0.018 A 
HETATM   24  C17 UNL     1      27.515   1.163  52.715  1.00  0.00     0.029 A 
HETATM   25  C18 UNL     1      28.217   0.670  53.799  1.00  0.00     0.117 A 
HETATM   26  N1  UNL     1      27.577  -0.232  54.597  1.00  0.00    -0.270 NA
HETATM   27  C19 UNL     1      26.307  -0.612  54.315  1.00  0.00     0.153 A 
HETATM   28  C20 UNL     1      25.573  -0.140  53.239  1.00  0.00     0.092 A 
BRANCH  28  29
HETATM   29  O1  UNL     1      24.284  -0.545  52.978  1.00  0.00    -0.354 OA
HETATM   30  C21 UNL     1      23.221  -0.513  53.885  1.00  0.00     0.210 C 
ENDBRANCH  28  29
ENDBRANCH  22  23
ENDBRANCH  14  22
BRANCH  19  31
HETATM   31  C27 UNL     1      26.149   8.900  49.959  1.00  0.00     0.319 C 
BRANCH  31  32
HETATM   32  N2  UNL     1      27.380   9.025  50.718  1.00  0.00     0.083 N 
HETATM   33  H25 UNL     1      28.115   8.355  50.422  1.00  0.00     0.313 HD
HETATM   34  H26 UNL     1      27.205   9.027  51.750  1.00  0.00     0.313 HD
ENDBRANCH  31  32
ENDBRANCH  19  31
TORSDOF 5
ENDMDL
MODEL 2
REMARK VINA RESULT:      -8.8      1.894      2.921
REMARK  5 active torsions:
REMARK  status: ('A' for Active; 'I' for Inactive)
REMARK    1  A    between atoms: C14_14  and  C15_15 
REMARK    2  A    between atoms: C15_15  and  C16_16 
REMARK    3  A    between atoms: C20_21  and  O1_22 
REMARK    4  A    between atoms: C26_28  and  C27_29 
REMARK    5  A    between atoms: C27_29  and  N2_30 
ROOT
HETATM    1  C1  UNL     1      21.244   0.954  49.232  1.00  0.00     0.021 C 
HETATM    2  C2  UNL     1      21.844   1.978  49.797  1.00  0.00    -0.045 C 
HETATM    3  C3  UNL     1      21.822   3.292  49.159  1.00  0.00    -0.021 A 
HETATM    4  C4  UNL     1      22.244   3.199  47.856  1.00  0.00     0.012 A 
HETATM    5  C5  UNL     1      22.326   4.226  46.962  1.00  0.00     0.001 A 
HETATM    6  C6  UNL     1      21.958   5.471  47.388  1.00  0.00     0.001 A 
HETATM    7  C7  UNL     1      21.530   5.581  48.701  1.00  0.00     0.010 A 
HETATM    8  C8  UNL     1      21.430   4.545  49.655  1.00  0.00    -0.024 A 
HETATM    9  C9  UNL     1      20.940   5.187  50.913  1.00  0.00     0.120 C 
HETATM   10  C10 UNL     1      20.705   4.301  52.044  1.00  0.00     0.028 C 
HETATM   11  C11 UNL     1      20.492   3.086  52.497  1.00  0.00     0.024 C 
HETATM   12  C12 UNL     1      20.271   1.683  52.749  1.00  0.00    -0.009 C 
HETATM   13  C13 UNL     1      21.551   1.436  53.078  1.00  0.00    -0.026 C 
HETATM   14  C14 UNL     1      22.335   1.157  52.036  1.00  0.00    -0.053 C 
HETATM   15  C22 UNL     1      22.462   2.283  51.034  1.00  0.00     0.071 C 
HETATM   16  C23 UNL     1      23.936   2.387  50.562  1.00  0.00    -0.016 C 
HETATM   17  C24 UNL     1      24.639   3.545  50.462  1.00  0.00    -0.018 C 
HETATM   18  C25 UNL     1      23.688   4.615  50.860  1.00  0.00     0.068 C 
HETATM   19  C26 UNL     1      23.516   5.911  51.058  1.00  0.00     0.019 C 
HETATM   20  N3  UNL     1      22.073   6.113  51.244  1.00  0.00    -0.385 N 
HETATM   21  H27 UNL     1      21.735   6.993  51.668  1.00  0.00     0.160 HD
ENDROOT
BRANCH  14  22
HETATM   22  C15 UNL     1      22.932  -0.223  51.995  1.00  0.00     0.077 C 
BRANCH  22  23
HETATM   23  C16 UNL     1      23.615  -0.534  53.273  1.00  0.00    -0.018 A 
HETATM   24  C17 UNL     1      22.902  -1.042  54.365  1.00  0.00     0.029 A 
HETATM   25  C18 UNL     1      23.482  -1.348  55.582  1.00  0.00     0.117 A 
HETATM   26  N1  UNL     1      24.824  -1.137  55.703  1.00  0.00    -0.270 NA
HETATM   27  C19 UNL     1      25.534  -0.646  54.657  1.00  0.00     0.153 A 
HETATM   28  C20 UNL     1      24.988  -0.327  53.425  1.00  0.00     0.092 A 
BRANCH  28  29
HETATM   29  O1  UNL     1      25.735   0.170  52.382  1.00  0.00    -0.354 OA
HETATM   30  C21 UNL     1      26.837   1.021  52.502  1.00  0.00     0.210 C 
ENDBRANCH  28  29
ENDBRANCH  22  23
ENDBRANCH  14  22
BRANCH  19  31
HETATM   31  C27 UNL     1      24.147   7.304  51.044  1.00  0.00     0.319 C 
BRANCH  31  32
HETATM   32  N2  UNL     1      25.588   7.128  51.014  1.00  0.00     0.083 N 
HETATM   33  H25 UNL     1      25.971   6.722  51.890  1.00  0.00     0.313 HD
HETATM   34  H26 UNL     1      26.082   7.997  50.704  1.00  0.00     0.313 HD
ENDBRANCH  31  32
ENDBRANCH  19  31
TORSDOF 5
ENDMDL
MODEL 3
REMARK VINA RESULT:      -8.7      3.628      5.905
REMARK  5 active torsions:
REMARK  status: ('A' for Active; 'I' for Inactive)
REMARK    1  A    between atoms: C14_14  and  C15_15 
REMARK    2  A    between atoms: C15_15  and  C16_16 
REMARK    3  A    between atoms: C20_21  and  O1_22 
REMARK    4  A    between atoms: C26_28  and  C27_29 
REMARK    5  A    between atoms: C27_29  and  N2_30 
ROOT
HETATM    1  C1  UNL     1      25.800   8.058  46.496  1.00  0.00     0.021 C 
HETATM    2  C2  UNL     1      26.879   7.870  47.223  1.00  0.00    -0.045 C 
HETATM    3  C3  UNL     1      28.124   8.558  46.889  1.00  0.00    -0.021 A 
HETATM    4  C4  UNL     1      28.443   8.357  45.568  1.00  0.00     0.012 A 
HETATM    5  C5  UNL     1      29.524   8.871  44.915  1.00  0.00     0.001 A 
HETATM    6  C6  UNL     1      30.381   9.662  45.627  1.00  0.00     0.001 A 
HETATM    7  C7  UNL     1      30.074   9.874  46.961  1.00  0.00     0.010 A 
HETATM    8  C8  UNL     1      28.967   9.361  47.672  1.00  0.00    -0.024 A 
HETATM    9  C9  UNL     1      29.106   9.865  49.073  1.00  0.00     0.120 C 
HETATM   10  C10 UNL     1      28.041   9.509  49.999  1.00  0.00     0.028 C 
HETATM   11  C11 UNL     1      26.806   9.103  50.193  1.00  0.00     0.024 C 
HETATM   12  C12 UNL     1      25.435   8.657  50.150  1.00  0.00    -0.009 C 
HETATM   13  C13 UNL     1      25.745   7.359  50.321  1.00  0.00    -0.026 C 
HETATM   14  C14 UNL     1      26.022   6.715  49.187  1.00  0.00    -0.053 C 
HETATM   15  C22 UNL     1      27.228   7.249  48.447  1.00  0.00     0.071 C 
HETATM   16  C23 UNL     1      28.062   6.062  47.898  1.00  0.00    -0.016 C 
HETATM   17  C24 UNL     1      29.412   5.950  47.999  1.00  0.00    -0.018 C 
HETATM   18  C25 UNL     1      29.857   7.188  48.690  1.00  0.00     0.068 C 
HETATM   19  C26 UNL     1      30.884   7.863  49.177  1.00  0.00     0.019 C 
HETATM   20  N3  UNL     1      30.377   9.201  49.510  1.00  0.00    -0.385 N 
HETATM   21  H27 UNL     1      30.929   9.808  50.140  1.00  0.00     0.160 HD
ENDROOT
BRANCH  14  22
HETATM   22  C15 UNL     1      25.089   5.600  48.802  1.00  0.00     0.077 C 
BRANCH  22  23
HETATM   23  C16 UNL     1      25.188   4.480  49.768  1.00  0.00    -0.018 A 
HETATM   24  C17 UNL     1      26.379   3.762  49.919  1.00  0.00     0.029 A 
HETATM   25  C18 UNL     1      26.531   2.708  50.800  1.00  0.00     0.117 A 
HETATM   26  N1  UNL     1      25.448   2.365  51.554  1.00  0.00    -0.270 NA
HETATM   27  C19 UNL     1      24.283   3.047  51.424  1.00  0.00     0.153 A 
HETATM   28  C20 UNL     1      24.094   4.107  50.553  1.00  0.00     0.092 A 
BRANCH  28  29
HETATM   29  O1  UNL     1      22.899   4.781  50.444  1.00  0.00    -0.354 OA
HETATM   30  C21 UNL     1      22.387   5.689  51.375  1.00  0.00     0.210 C 
ENDBRANCH  28  29
ENDBRANCH  22  23
ENDBRANCH  14  22
BRANCH  19  31
HETATM   31  C27 UNL     1      32.394   7.901  49.418  1.00  0.00     0.319 C 
BRANCH  31  32
HETATM   32  N2  UNL     1      33.037   8.026  48.123  1.00  0.00     0.083 N 
HETATM   33  H25 UNL     1      32.390   8.326  47.369  1.00  0.00     0.313 HD
HETATM   34  H26 UNL     1      33.598   7.176  47.881  1.00  0.00     0.313 HD
ENDBRANCH  31  32
ENDBRANCH  19  31
TORSDOF 5
ENDMDL
MODEL 4
REMARK VINA RESULT:      -8.2      6.477      8.443
REMARK  5 active torsions:
REMARK  status: ('A' for Active; 'I' for Inactive)
REMARK    1  A    between atoms: C14_14  and  C15_15 
REMARK    2  A    between atoms: C15_15  and  C16_16 
REMARK    3  A    between atoms: C20_21  and  O1_22 
REMARK    4  A    between atoms: C26_28  and  C27_29 
REMARK    5  A    between atoms: C27_29  and  N2_30 
ROOT
HETATM    1  C1  UNL     1      28.514   5.530  48.351  1.00  0.00     0.021 C 
HETATM    2  C2  UNL     1      29.170   6.581  47.913  1.00  0.00    -0.045 C 
HETATM    3  C3  UNL     1      28.547   7.903  47.933  1.00  0.00    -0.021 A 
HETATM    4  C4  UNL     1      27.319   7.864  47.319  1.00  0.00     0.012 A 
HETATM    5  C5  UNL     1      26.456   8.910  47.179  1.00  0.00     0.001 A 
HETATM    6  C6  UNL     1      26.834  10.119  47.691  1.00  0.00     0.001 A 
HETATM    7  C7  UNL     1      28.071  10.176  48.313  1.00  0.00     0.010 A 
HETATM    8  C8  UNL     1      28.991   9.117  48.479  1.00  0.00    -0.024 A 
HETATM    9  C9  UNL     1      30.169   9.701  49.191  1.00  0.00     0.120 C 
HETATM   10  C10 UNL     1      31.245   8.779  49.526  1.00  0.00     0.028 C 
HETATM   11  C11 UNL     1      31.651   7.545  49.718  1.00  0.00     0.024 C 
HETATM   12  C12 UNL     1      31.855   6.125  49.875  1.00  0.00    -0.009 C 
HETATM   13  C13 UNL     1      32.368   5.959  48.643  1.00  0.00    -0.026 C 
HETATM   14  C14 UNL     1      31.450   5.754  47.698  1.00  0.00    -0.053 C 
HETATM   15  C22 UNL     1      30.487   6.905  47.505  1.00  0.00     0.071 C 
HETATM   16  C23 UNL     1      30.238   7.117  45.989  1.00  0.00    -0.016 C 
HETATM   17  C24 UNL     1      30.252   8.321  45.361  1.00  0.00    -0.018 C 
HETATM   18  C25 UNL     1      30.515   9.317  46.432  1.00  0.00     0.068 C 
HETATM   19  C26 UNL     1      30.697  10.594  46.720  1.00  0.00     0.019 C 
HETATM   20  N3  UNL     1      30.670  10.694  48.186  1.00  0.00    -0.385 N 
HETATM   21  H27 UNL     1      31.048  11.542  48.642  1.00  0.00     0.160 HD
ENDROOT
BRANCH  14  22
HETATM   22  C15 UNL     1      31.484   4.418  47.007  1.00  0.00     0.077 C 
BRANCH  22  23
HETATM   23  C16 UNL     1      32.784   4.219  46.322  1.00  0.00    -0.018 A 
HETATM   24  C17 UNL     1      33.074   4.875  45.121  1.00  0.00     0.029 A 
HETATM   25  C18 UNL     1      34.265   4.727  44.436  1.00  0.00     0.117 A 
HETATM   26  N1  UNL     1      35.195   3.891  44.979  1.00  0.00    -0.270 NA
HETATM   27  C19 UNL     1      34.936   3.244  46.142  1.00  0.00     0.153 A 
HETATM   28  C20 UNL     1      33.755   3.368  46.855  1.00  0.00     0.092 A 
BRANCH  28  29
HETATM   29  O1  UNL     1      33.521   2.699  48.035  1.00  0.00    -0.354 OA
HETATM   30  C21 UNL     1      33.116   1.366  48.149  1.00  0.00     0.210 C 
ENDBRANCH  28  29
ENDBRANCH  22  23
ENDBRANCH  14  22
BRANCH  19  31
HETATM   31  C27 UNL     1      30.789  12.027  46.192  1.00  0.00     0.319 C 
BRANCH  31  32
HETATM   32  N2  UNL     1      30.356  12.911  47.259  1.00  0.00     0.083 N 
HETATM   33  H25 UNL     1      31.133  13.450  47.687  1.00  0.00     0.313 HD
HETATM   34  H26 UNL     1      29.754  12.416  47.958  1.00  0.00     0.313 HD
ENDBRANCH  31  32
ENDBRANCH  19  31
TORSDOF 5
ENDMDL
MODEL 5
REMARK VINA RESULT:      -8.2      1.749      2.601
REMARK  5 active torsions:
REMARK  status: ('A' for Active; 'I' for Inactive)
REMARK    1  A    between atoms: C14_14  and  C15_15 
REMARK    2  A    between atoms: C15_15  and  C16_16 
REMARK    3  A    between atoms: C20_21  and  O1_22 
REMARK    4  A    between atoms: C26_28  and  C27_29 
REMARK    5  A    between atoms: C27_29  and  N2_30 
ROOT
HETATM    1  C1  UNL     1      22.284   3.916  48.785  1.00  0.00     0.021 C 
HETATM    2  C2  UNL     1      23.297   4.675  49.141  1.00  0.00    -0.045 C 
HETATM    3  C3  UNL     1      23.446   6.018  48.585  1.00  0.00    -0.021 A 
HETATM    4  C4  UNL     1      23.386   5.979  47.213  1.00  0.00     0.012 A 
HETATM    5  C5  UNL     1      23.465   7.051  46.374  1.00  0.00     0.001 A 
HETATM    6  C6  UNL     1      23.620   8.287  46.934  1.00  0.00     0.001 A 
HETATM    7  C7  UNL     1      23.684   8.344  48.317  1.00  0.00     0.010 A 
HETATM    8  C8  UNL     1      23.605   7.260  49.219  1.00  0.00    -0.024 A 
HETATM    9  C9  UNL     1      23.745   7.849  50.586  1.00  0.00     0.120 C 
HETATM   10  C10 UNL     1      23.642   6.922  51.704  1.00  0.00     0.028 C 
HETATM   11  C11 UNL     1      23.250   5.757  52.169  1.00  0.00     0.024 C 
HETATM   12  C12 UNL     1      22.734   4.438  52.442  1.00  0.00    -0.009 C 
HETATM   13  C13 UNL     1      23.926   3.832  52.309  1.00  0.00    -0.026 C 
HETATM   14  C14 UNL     1      24.224   3.490  51.055  1.00  0.00    -0.053 C 
HETATM   15  C22 UNL     1      24.338   4.659  50.101  1.00  0.00     0.071 C 
HETATM   16  C23 UNL     1      25.549   4.437  49.159  1.00  0.00    -0.016 C 
HETATM   17  C24 UNL     1      26.481   5.378  48.857  1.00  0.00    -0.018 C 
HETATM   18  C25 UNL     1      26.051   6.600  49.585  1.00  0.00     0.068 C 
HETATM   19  C26 UNL     1      26.326   7.862  49.865  1.00  0.00     0.019 C 
HETATM   20  N3  UNL     1      25.136   8.404  50.537  1.00  0.00    -0.385 N 
HETATM   21  H27 UNL     1      25.216   9.284  51.075  1.00  0.00     0.160 HD
ENDROOT
BRANCH  14  22
HETATM   22  C15 UNL     1      24.360   2.019  50.775  1.00  0.00     0.077 C 
BRANCH  22  23
HETATM   23  C16 UNL     1      23.294   1.255  51.465  1.00  0.00    -0.018 A 
HETATM   24  C17 UNL     1      22.003   1.175  50.931  1.00  0.00     0.029 A 
HETATM   25  C18 UNL     1      20.968   0.482  51.530  1.00  0.00     0.117 A 
HETATM   26  N1  UNL     1      21.243  -0.153  52.705  1.00  0.00    -0.270 NA
HETATM   27  C19 UNL     1      22.486  -0.089  53.242  1.00  0.00     0.153 A 
HETATM   28  C20 UNL     1      23.546   0.596  52.671  1.00  0.00     0.092 A 
BRANCH  28  29
HETATM   29  O1  UNL     1      24.799   0.642  53.239  1.00  0.00    -0.354 OA
HETATM   30  C21 UNL     1      25.777  -0.351  53.138  1.00  0.00     0.210 C 
ENDBRANCH  28  29
ENDBRANCH  22  23
ENDBRANCH  14  22
BRANCH  19  31
HETATM   31  C27 UNL     1      27.286   9.037  49.676  1.00  0.00     0.319 C 
BRANCH  31  32
HETATM   32  N2  UNL     1      27.775   9.414  50.990  1.00  0.00     0.083 N 
HETATM   33  H25 UNL     1      28.061   8.603  51.571  1.00  0.00     0.313 HD
HETATM   34  H26 UNL     1      27.120  10.070  51.478  1.00  0.00     0.313 HD
ENDBRANCH  31  32
ENDBRANCH  19  31
TORSDOF 5
ENDMDL
MODEL 6
REMARK VINA RESULT:      -8.2      2.770      4.692
REMARK  5 active torsions:
REMARK  status: ('A' for Active; 'I' for Inactive)
REMARK    1  A    between atoms: C14_14  and  C15_15 
REMARK    2  A    between atoms: C15_15  and  C16_16 
REMARK    3  A    between atoms: C20_21  and  O1_22 
REMARK    4  A    between atoms: C26_28  and  C27_29 
REMARK    5  A    between atoms: C27_29  and  N2_30 
ROOT
HETATM    1  C1  UNL     1      24.169   6.212  51.583  1.00  0.00     0.021 C 
HETATM    2  C2  UNL     1      23.229   5.398  51.156  1.00  0.00    -0.045 C 
HETATM    3  C3  UNL     1      22.154   5.894  50.299  1.00  0.00    -0.021 A 
HETATM    4  C4  UNL     1      21.559   6.995  50.866  1.00  0.00     0.012 A 
HETATM    5  C5  UNL     1      20.539   7.724  50.329  1.00  0.00     0.001 A 
HETATM    6  C6  UNL     1      20.051   7.335  49.114  1.00  0.00     0.001 A 
HETATM    7  C7  UNL     1      20.640   6.225  48.529  1.00  0.00     0.010 A 
HETATM    8  C8  UNL     1      21.696   5.446  49.051  1.00  0.00    -0.024 A 
HETATM    9  C9  UNL     1      21.944   4.363  48.051  1.00  0.00     0.120 C 
HETATM   10  C10 UNL     1      23.038   3.448  48.345  1.00  0.00     0.028 C 
HETATM   11  C11 UNL     1      24.147   3.193  49.002  1.00  0.00     0.024 C 
HETATM   12  C12 UNL     1      25.332   3.147  49.823  1.00  0.00    -0.009 C 
HETATM   13  C13 UNL     1      24.747   2.445  50.809  1.00  0.00    -0.026 C 
HETATM   14  C14 UNL     1      24.115   3.199  51.709  1.00  0.00    -0.053 C 
HETATM   15  C22 UNL     1      22.965   4.006  51.149  1.00  0.00     0.071 C 
HETATM   16  C23 UNL     1      21.777   3.968  52.144  1.00  0.00    -0.016 C 
HETATM   17  C24 UNL     1      20.483   3.738  51.800  1.00  0.00    -0.018 C 
HETATM   18  C25 UNL     1      20.494   3.577  50.323  1.00  0.00     0.068 C 
HETATM   19  C26 UNL     1      19.774   3.335  49.242  1.00  0.00     0.019 C 
HETATM   20  N3  UNL     1      20.649   3.607  48.093  1.00  0.00    -0.385 N 
HETATM   21  H27 UNL     1      20.391   3.240  47.162  1.00  0.00     0.160 HD
ENDROOT
BRANCH  14  22
HETATM   22  C15 UNL     1      24.656   3.164  53.112  1.00  0.00     0.077 C 
BRANCH  22  23
HETATM   23  C16 UNL     1      24.982   1.774  53.511  1.00  0.00    -0.018 A 
HETATM   24  C17 UNL     1      24.036   0.749  53.391  1.00  0.00     0.029 A 
HETATM   25  C18 UNL     1      24.280  -0.563  53.748  1.00  0.00     0.117 A 
HETATM   26  N1  UNL     1      25.517  -0.854  54.243  1.00  0.00    -0.270 NA
HETATM   27  C19 UNL     1      26.449   0.123  54.369  1.00  0.00     0.153 A 
HETATM   28  C20 UNL     1      26.240   1.448  54.021  1.00  0.00     0.092 A 
BRANCH  28  29
HETATM   29  O1  UNL     1      27.206   2.418  54.160  1.00  0.00    -0.354 OA
HETATM   30  C21 UNL     1      28.474   2.396  53.572  1.00  0.00     0.210 C 
ENDBRANCH  28  29
ENDBRANCH  22  23
ENDBRANCH  14  22
BRANCH  19  31
HETATM   31  C27 UNL     1      18.392   3.025  48.665  1.00  0.00     0.319 C 
BRANCH  31  32
HETATM   32  N2  UNL     1      18.554   2.810  47.239  1.00  0.00     0.083 N 
HETATM   33  H25 UNL     1      17.672   2.922  46.703  1.00  0.00     0.313 HD
HETATM   34  H26 UNL     1      19.061   1.918  47.033  1.00  0.00     0.313 HD
ENDBRANCH  31  32
ENDBRANCH  19  31
TORSDOF 5
ENDMDL
MODEL 7
REMARK VINA RESULT:      -8.0      2.420      4.183
REMARK  5 active torsions:
REMARK  status: ('A' for Active; 'I' for Inactive)
REMARK    1  A    between atoms: C14_14  and  C15_15 
REMARK    2  A    between atoms: C15_15  and  C16_16 
REMARK    3  A    between atoms: C20_21  and  O1_22 
REMARK    4  A    between atoms: C26_28  and  C27_29 
REMARK    5  A    between atoms: C27_29  and  N2_30 
ROOT
HETATM    1  C1  UNL     1      25.846   3.323  49.333  1.00  0.00     0.021 C 
HETATM    2  C2  UNL     1      24.759   4.038  49.519  1.00  0.00    -0.045 C 
HETATM    3  C3  UNL     1      24.684   5.412  49.027  1.00  0.00    -0.021 A 
HETATM    4  C4  UNL     1      25.766   6.137  49.464  1.00  0.00     0.012 A 
HETATM    5  C5  UNL     1      26.028   7.443  49.175  1.00  0.00     0.001 A 
HETATM    6  C6  UNL     1      25.139   8.109  48.379  1.00  0.00     0.001 A 
HETATM    7  C7  UNL     1      24.042   7.392  47.931  1.00  0.00     0.010 A 
HETATM    8  C8  UNL     1      23.736   6.041  48.206  1.00  0.00    -0.024 A 
HETATM    9  C9  UNL     1      22.444   5.760  47.509  1.00  0.00     0.120 C 
HETATM   10  C10 UNL     1      21.941   4.396  47.603  1.00  0.00     0.028 C 
HETATM   11  C11 UNL     1      22.171   3.125  47.840  1.00  0.00     0.024 C 
HETATM   12  C12 UNL     1      22.667   1.803  48.140  1.00  0.00    -0.009 C 
HETATM   13  C13 UNL     1      22.258   1.829  49.420  1.00  0.00    -0.026 C 
HETATM   14  C14 UNL     1      23.135   2.381  50.258  1.00  0.00    -0.053 C 
HETATM   15  C22 UNL     1      23.434   3.837  49.977  1.00  0.00     0.071 C 
HETATM   16  C23 UNL     1      23.508   4.615  51.316  1.00  0.00    -0.016 C 
HETATM   17  C24 UNL     1      22.908   5.811  51.554  1.00  0.00    -0.018 C 
HETATM   18  C25 UNL     1      22.238   6.172  50.278  1.00  0.00     0.068 C 
HETATM   19  C26 UNL     1      21.483   7.056  49.649  1.00  0.00     0.019 C 
HETATM   20  N3  UNL     1      21.503   6.679  48.229  1.00  0.00    -0.385 N 
HETATM   21  H27 UNL     1      20.783   7.063  47.593  1.00  0.00     0.160 HD
ENDROOT
BRANCH  14  22
HETATM   22  C15 UNL     1      23.714   1.480  51.314  1.00  0.00     0.077 C 
BRANCH  22  23
HETATM   23  C16 UNL     1      22.670   1.076  52.285  1.00  0.00    -0.018 A 
HETATM   24  C17 UNL     1      21.428   1.720  52.318  1.00  0.00     0.029 A 
HETATM   25  C18 UNL     1      20.418   1.390  53.201  1.00  0.00     0.117 A 
HETATM   26  N1  UNL     1      20.666   0.377  54.081  1.00  0.00    -0.270 NA
HETATM   27  C19 UNL     1      21.863  -0.261  54.067  1.00  0.00     0.153 A 
HETATM   28  C20 UNL     1      22.897   0.043  53.197  1.00  0.00     0.092 A 
BRANCH  28  29
HETATM   29  O1  UNL     1      24.101  -0.624  53.207  1.00  0.00    -0.354 OA
HETATM   30  C21 UNL     1      25.083  -0.517  54.195  1.00  0.00     0.210 C 
ENDBRANCH  28  29
ENDBRANCH  22  23
ENDBRANCH  14  22
BRANCH  19  31
HETATM   31  C27 UNL     1      20.710   8.373  49.734  1.00  0.00     0.319 C 
BRANCH  31  32
HETATM   32  N2  UNL     1      19.296   8.050  49.684  1.00  0.00     0.083 N 
HETATM   33  H25 UNL     1      18.798   8.243  50.574  1.00  0.00     0.313 HD
HETATM   34  H26 UNL     1      19.127   7.088  49.308  1.00  0.00     0.313 HD
ENDBRANCH  31  32
ENDBRANCH  19  31
TORSDOF 5
ENDMDL
MODEL 8
REMARK VINA RESULT:      -7.9      3.607      7.392
REMARK  5 active torsions:
REMARK  status: ('A' for Active; 'I' for Inactive)
REMARK    1  A    between atoms: C14_14  and  C15_15 
REMARK    2  A    between atoms: C15_15  and  C16_16 
REMARK    3  A    between atoms: C20_21  and  O1_22 
REMARK    4  A    between atoms: C26_28  and  C27_29 
REMARK    5  A    between atoms: C27_29  and  N2_30 
ROOT
HETATM    1  C1  UNL     1      24.528   3.122  51.684  1.00  0.00     0.021 C 
HETATM    2  C2  UNL     1      23.340   2.712  51.297  1.00  0.00    -0.045 C 
HETATM    3  C3  UNL     1      22.606   1.725  52.086  1.00  0.00    -0.021 A 
HETATM    4  C4  UNL     1      23.393   0.625  52.329  1.00  0.00     0.012 A 
HETATM    5  C5  UNL     1      23.036  -0.474  53.052  1.00  0.00     0.001 A 
HETATM    6  C6  UNL     1      21.780  -0.501  53.591  1.00  0.00     0.001 A 
HETATM    7  C7  UNL     1      20.974   0.600  53.353  1.00  0.00     0.010 A 
HETATM    8  C8  UNL     1      21.306   1.755  52.612  1.00  0.00    -0.024 A 
HETATM    9  C9  UNL     1      20.092   2.627  52.640  1.00  0.00     0.120 C 
HETATM   10  C10 UNL     1      20.207   3.919  51.978  1.00  0.00     0.028 C 
HETATM   11  C11 UNL     1      20.970   4.877  51.502  1.00  0.00     0.024 C 
HETATM   12  C12 UNL     1      22.003   5.783  51.061  1.00  0.00    -0.009 C 
HETATM   13  C13 UNL     1      21.974   5.357  49.786  1.00  0.00    -0.026 C 
HETATM   14  C14 UNL     1      22.754   4.303  49.549  1.00  0.00    -0.053 C 
HETATM   15  C22 UNL     1      22.373   3.059  50.322  1.00  0.00     0.071 C 
HETATM   16  C23 UNL     1      22.493   1.821  49.396  1.00  0.00    -0.016 C 
HETATM   17  C24 UNL     1      21.560   0.839  49.290  1.00  0.00    -0.018 C 
HETATM   18  C25 UNL     1      20.488   1.212  50.248  1.00  0.00     0.068 C 
HETATM   19  C26 UNL     1      19.310   0.892  50.754  1.00  0.00     0.019 C 
HETATM   20  N3  UNL     1      19.096   1.785  51.900  1.00  0.00    -0.385 N 
HETATM   21  H27 UNL     1      18.142   1.896  52.285  1.00  0.00     0.160 HD
ENDROOT
BRANCH  14  22
HETATM   22  C15 UNL     1      23.899   4.514  48.597  1.00  0.00     0.077 C 
BRANCH  22  23
HETATM   23  C16 UNL     1      24.496   5.858  48.789  1.00  0.00    -0.018 A 
HETATM   24  C17 UNL     1      25.368   6.113  49.853  1.00  0.00     0.029 A 
HETATM   25  C18 UNL     1      25.953   7.344  50.084  1.00  0.00     0.117 A 
HETATM   26  N1  UNL     1      25.649   8.350  49.217  1.00  0.00    -0.270 NA
HETATM   27  C19 UNL     1      24.805   8.126  48.179  1.00  0.00     0.153 A 
HETATM   28  C20 UNL     1      24.202   6.908  47.916  1.00  0.00     0.092 A 
BRANCH  28  29
HETATM   29  O1  UNL     1      23.350   6.710  46.853  1.00  0.00    -0.354 OA
HETATM   30  C21 UNL     1      22.163   7.409  46.620  1.00  0.00     0.210 C 
ENDBRANCH  28  29
ENDBRANCH  22  23
ENDBRANCH  14  22
BRANCH  19  31
HETATM   31  C27 UNL     1      18.137  -0.090  50.748  1.00  0.00     0.319 C 
BRANCH  31  32
HETATM   32  N2  UNL     1      17.381   0.144  49.531  1.00  0.00     0.083 N 
HETATM   33  H25 UNL     1      16.395   0.417  49.705  1.00  0.00     0.313 HD
HETATM   34  H26 UNL     1      17.484  -0.643  48.849  1.00  0.00     0.313 HD
ENDBRANCH  31  32
ENDBRANCH  19  31
TORSDOF 5
ENDMDL
MODEL 9
REMARK VINA RESULT:      -7.6      4.011      8.018
REMARK  5 active torsions:
REMARK  status: ('A' for Active; 'I' for Inactive)
REMARK    1  A    between atoms: C14_14  and  C15_15 
REMARK    2  A    between atoms: C15_15  and  C16_16 
REMARK    3  A    between atoms: C20_21  and  O1_22 
REMARK    4  A    between atoms: C26_28  and  C27_29 
REMARK    5  A    between atoms: C27_29  and  N2_30 
ROOT
HETATM    1  C1  UNL     1      24.370   3.235  51.196  1.00  0.00     0.021 C 
HETATM    2  C2  UNL     1      23.173   2.727  51.004  1.00  0.00    -0.045 C 
HETATM    3  C3  UNL     1      22.636   1.731  51.930  1.00  0.00    -0.021 A 
HETATM    4  C4  UNL     1      23.530   0.702  52.098  1.00  0.00     0.012 A 
HETATM    5  C5  UNL     1      23.364  -0.382  52.908  1.00  0.00     0.001 A 
HETATM    6  C6  UNL     1      22.205  -0.468  53.626  1.00  0.00     0.001 A 
HETATM    7  C7  UNL     1      21.292   0.561  53.466  1.00  0.00     0.010 A 
HETATM    8  C8  UNL     1      21.427   1.699  52.640  1.00  0.00    -0.024 A 
HETATM    9  C9  UNL     1      20.167   2.486  52.812  1.00  0.00     0.120 C 
HETATM   10  C10 UNL     1      20.089   3.748  52.090  1.00  0.00     0.028 C 
HETATM   11  C11 UNL     1      20.701   4.731  51.470  1.00  0.00     0.024 C 
HETATM   12  C12 UNL     1      21.589   5.682  50.847  1.00  0.00    -0.009 C 
HETATM   13  C13 UNL     1      21.410   5.193  49.607  1.00  0.00    -0.026 C 
HETATM   14  C14 UNL     1      22.225   4.184  49.300  1.00  0.00    -0.053 C 
HETATM   15  C22 UNL     1      22.053   2.957  50.169  1.00  0.00     0.071 C 
HETATM   16  C23 UNL     1      22.131   1.686  49.284  1.00  0.00    -0.016 C 
HETATM   17  C24 UNL     1      21.269   0.638  49.355  1.00  0.00    -0.018 C 
HETATM   18  C25 UNL     1      20.321   0.984  50.445  1.00  0.00     0.068 C 
HETATM   19  C26 UNL     1      19.255   0.609  51.130  1.00  0.00     0.019 C 
HETATM   20  N3  UNL     1      19.141   1.542  52.260  1.00  0.00    -0.385 N 
HETATM   21  H27 UNL     1      18.247   1.606  52.776  1.00  0.00     0.160 HD
ENDROOT
BRANCH  14  22
HETATM   22  C15 UNL     1      23.201   4.426  48.182  1.00  0.00     0.077 C 
BRANCH  22  23
HETATM   23  C16 UNL     1      22.485   4.687  46.911  1.00  0.00    -0.018 A 
HETATM   24  C17 UNL     1      21.844   3.653  46.219  1.00  0.00     0.029 A 
HETATM   25  C18 UNL     1      21.164   3.835  45.030  1.00  0.00     0.117 A 
HETATM   26  N1  UNL     1      21.127   5.099  44.521  1.00  0.00    -0.270 NA
HETATM   27  C19 UNL     1      21.740   6.117  45.174  1.00  0.00     0.153 A 
HETATM   28  C20 UNL     1      22.431   5.972  46.366  1.00  0.00     0.092 A 
BRANCH  28  29
HETATM   29  O1  UNL     1      23.044   7.025  47.007  1.00  0.00    -0.354 OA
HETATM   30  C21 UNL     1      24.178   7.705  46.554  1.00  0.00     0.210 C 
ENDBRANCH  28  29
ENDBRANCH  22  23
ENDBRANCH  14  22
BRANCH  19  31
HETATM   31  C27 UNL     1      18.170  -0.450  51.336  1.00  0.00     0.319 C 
BRANCH  31  32
HETATM   32  N2  UNL     1      18.066  -0.694  52.763  1.00  0.00     0.083 N 
HETATM   33  H25 UNL     1      18.454  -1.612  53.052  1.00  0.00     0.313 HD
HETATM   34  H26 UNL     1      17.099  -0.515  53.121  1.00  0.00     0.313 HD
ENDBRANCH  31  32
ENDBRANCH  19  31
TORSDOF 5
ENDMDL
