MODEL 1
REMARK VINA RESULT:      -7.8      0.000      0.000
REMARK  8 active torsions:
REMARK  status: ('A' for Active; 'I' for Inactive)
REMARK    1  A    between atoms: N1_2  and  C3_4 
REMARK    2  A    between atoms: C3_4  and  C4_5 
REMARK    3  A    between atoms: C5_6  and  C6_7 
REMARK       I    between atoms: C6_7  and  N2_9 
REMARK    4  A    between atoms: N2_9  and  C7_10 
REMARK    5  A    between atoms: C12_16  and  N4_17 
REMARK    6  A    between atoms: N4_17  and  C13_18 
REMARK    7  A    between atoms: C16_21  and  O2_22 
REMARK    8  A    between atoms: O2_22  and  C17_23 
ROOT
HETATM    1  C7  UNL     1      25.810   2.491  51.933  1.00  0.00     0.098 C 
HETATM    2  C8  UNL     1      25.808   1.221  52.211  1.00  0.00    -0.021 C 
HETATM    3  C9  UNL     1      26.780   0.273  51.617  1.00  0.00     0.044 C 
HETATM    4  C10 UNL     1      27.263  -0.676  52.689  1.00  0.00     0.051 C 
HETATM    5  C11 UNL     1      26.731  -0.378  54.041  1.00  0.00     0.086 C 
HETATM    6  N3  UNL     1      25.607   0.213  54.354  1.00  0.00    -0.276 NA
HETATM    7  C12 UNL     1      24.864   0.581  53.137  1.00  0.00     0.236 C 
ENDROOT
BRANCH   7   8
HETATM    8  N4  UNL     1      23.663   1.290  53.410  1.00  0.00    -0.364 N 
HETATM    9  H19 UNL     1      23.692   2.146  53.999  1.00  0.00     0.162 HD
BRANCH   8  10
HETATM   10  C13 UNL     1      22.376   0.882  52.897  1.00  0.00     0.031 A 
HETATM   11  C14 UNL     1      21.441   0.280  53.739  1.00  0.00     0.032 A 
HETATM   12  C15 UNL     1      20.221  -0.073  53.147  1.00  0.00     0.041 A 
HETATM   13  C16 UNL     1      19.906   0.145  51.794  1.00  0.00     0.091 A 
HETATM   14  C21 UNL     1      20.900   0.742  51.062  1.00  0.00     0.069 A 
HETATM   15 CL1  UNL     1      20.536   1.020  49.396  1.00  0.00    -0.081 Cl
HETATM   16  C22 UNL     1      22.125   1.125  51.541  1.00  0.00     0.056 A 
BRANCH  13  17
HETATM   17  O2  UNL     1      18.652  -0.311  51.562  1.00  0.00    -0.342 OA
BRANCH  17  18
HETATM   18  C17 UNL     1      17.445   0.279  51.318  1.00  0.00     0.154 C 
HETATM   19  C18 UNL     1      17.071  -0.032  49.866  1.00  0.00     0.061 C 
HETATM   20  C19 UNL     1      16.576   1.287  49.383  1.00  0.00     0.170 C 
HETATM   21  O3  UNL     1      17.248   2.272  50.092  1.00  0.00    -0.389 OA
HETATM   22  C20 UNL     1      17.517   1.794  51.342  1.00  0.00     0.200 C 
ENDBRANCH  17  18
ENDBRANCH  13  17
ENDBRANCH   8  10
ENDBRANCH   7   8
BRANCH   1  23
HETATM   23  N2  UNL     1      26.658   3.230  51.068  1.00  0.00    -0.333 N 
HETATM   24  C6  UNL     1      26.374   3.675  49.734  1.00  0.00     0.244 C 
HETATM   25  O1  UNL     1      25.224   3.352  49.326  1.00  0.00    -0.268 OA
HETATM   26  H11 UNL     1      27.612   3.503  51.407  1.00  0.00     0.168 HD
BRANCH  24  27
HETATM   27  C5  UNL     1      27.334   4.417  48.967  1.00  0.00     0.072 C 
HETATM   28  C4  UNL     1      27.116   5.654  48.610  1.00  0.00     0.008 C 
BRANCH  28  29
HETATM   29  C3  UNL     1      26.077   6.668  48.756  1.00  0.00     0.299 C 
BRANCH  29  30
HETATM   30  N1  UNL     1      26.022   7.201  50.108  1.00  0.00     0.083 N 
HETATM   31  C1  UNL     1      24.727   6.949  50.718  1.00  0.00     0.309 C 
HETATM   32  C2  UNL     1      26.266   8.632  49.991  1.00  0.00     0.309 C 
ENDBRANCH  29  30
ENDBRANCH  28  29
ENDBRANCH  24  27
ENDBRANCH   1  23
TORSDOF 8
ENDMDL
MODEL 2
REMARK VINA RESULT:      -7.6      3.722      8.808
REMARK  8 active torsions:
REMARK  status: ('A' for Active; 'I' for Inactive)
REMARK    1  A    between atoms: N1_2  and  C3_4 
REMARK    2  A    between atoms: C3_4  and  C4_5 
REMARK    3  A    between atoms: C5_6  and  C6_7 
REMARK       I    between atoms: C6_7  and  N2_9 
REMARK    4  A    between atoms: N2_9  and  C7_10 
REMARK    5  A    between atoms: C12_16  and  N4_17 
REMARK    6  A    between atoms: N4_17  and  C13_18 
REMARK    7  A    between atoms: C16_21  and  O2_22 
REMARK    8  A    between atoms: O2_22  and  C17_23 
ROOT
HETATM    1  C7  UNL     1      24.349   2.864  52.311  1.00  0.00     0.098 C 
HETATM    2  C8  UNL     1      23.313   3.221  51.611  1.00  0.00    -0.021 C 
HETATM    3  C9  UNL     1      22.537   2.263  50.789  1.00  0.00     0.044 C 
HETATM    4  C10 UNL     1      21.062   2.541  50.966  1.00  0.00     0.051 C 
HETATM    5  C11 UNL     1      20.765   3.607  51.953  1.00  0.00     0.086 C 
HETATM    6  N3  UNL     1      21.518   4.619  52.300  1.00  0.00    -0.276 NA
HETATM    7  C12 UNL     1      22.788   4.593  51.556  1.00  0.00     0.236 C 
ENDROOT
BRANCH   7   8
HETATM    8  N4  UNL     1      23.681   5.630  51.939  1.00  0.00    -0.364 N 
HETATM    9  H19 UNL     1      23.839   5.828  52.947  1.00  0.00     0.162 HD
BRANCH   8  10
HETATM   10  C13 UNL     1      24.404   6.437  50.984  1.00  0.00     0.031 A 
HETATM   11  C14 UNL     1      24.093   7.788  50.825  1.00  0.00     0.032 A 
HETATM   12  C15 UNL     1      24.856   8.485  49.880  1.00  0.00     0.041 A 
HETATM   13  C16 UNL     1      25.883   7.909  49.111  1.00  0.00     0.091 A 
HETATM   14  C21 UNL     1      26.099   6.576  49.350  1.00  0.00     0.069 A 
HETATM   15 CL1  UNL     1      27.357   5.845  48.417  1.00  0.00    -0.081 Cl
HETATM   16  C22 UNL     1      25.413   5.803  50.249  1.00  0.00     0.056 A 
BRANCH  13  17
HETATM   17  O2  UNL     1      26.409   8.862  48.306  1.00  0.00    -0.342 OA
BRANCH  17  18
HETATM   18  C17 UNL     1      27.569   9.582  48.300  1.00  0.00     0.154 C 
HETATM   19  C18 UNL     1      28.445   9.026  47.173  1.00  0.00     0.061 C 
HETATM   20  C19 UNL     1      29.782   8.953  47.827  1.00  0.00     0.170 C 
HETATM   21  O3  UNL     1      29.574   8.738  49.182  1.00  0.00    -0.389 OA
HETATM   22  C20 UNL     1      28.409   9.351  49.541  1.00  0.00     0.200 C 
ENDBRANCH  17  18
ENDBRANCH  13  17
ENDBRANCH   8  10
ENDBRANCH   7   8
BRANCH   1  23
HETATM   23  N2  UNL     1      24.952   1.588  52.454  1.00  0.00    -0.333 N 
HETATM   24  C6  UNL     1      26.164   1.120  51.845  1.00  0.00     0.244 C 
HETATM   25  O1  UNL     1      26.725   1.978  51.110  1.00  0.00    -0.268 OA
HETATM   26  H11 UNL     1      24.489   0.875  53.068  1.00  0.00     0.168 HD
BRANCH  24  27
HETATM   27  C5  UNL     1      26.659  -0.207  52.077  1.00  0.00     0.072 C 
HETATM   28  C4  UNL     1      27.220  -0.540  53.208  1.00  0.00     0.008 C 
BRANCH  28  29
HETATM   29  C3  UNL     1      27.554   0.077  54.487  1.00  0.00     0.299 C 
BRANCH  29  30
HETATM   30  N1  UNL     1      28.935   0.530  54.530  1.00  0.00     0.083 N 
HETATM   31  C1  UNL     1      29.060   1.880  54.003  1.00  0.00     0.309 C 
HETATM   32  C2  UNL     1      29.697  -0.411  53.719  1.00  0.00     0.309 C 
ENDBRANCH  29  30
ENDBRANCH  28  29
ENDBRANCH  24  27
ENDBRANCH   1  23
TORSDOF 8
ENDMDL
MODEL 3
REMARK VINA RESULT:      -7.5      4.325      9.861
REMARK  8 active torsions:
REMARK  status: ('A' for Active; 'I' for Inactive)
REMARK    1  A    between atoms: N1_2  and  C3_4 
REMARK    2  A    between atoms: C3_4  and  C4_5 
REMARK    3  A    between atoms: C5_6  and  C6_7 
REMARK       I    between atoms: C6_7  and  N2_9 
REMARK    4  A    between atoms: N2_9  and  C7_10 
REMARK    5  A    between atoms: C12_16  and  N4_17 
REMARK    6  A    between atoms: N4_17  and  C13_18 
REMARK    7  A    between atoms: C16_21  and  O2_22 
REMARK    8  A    between atoms: O2_22  and  C17_23 
ROOT
HETATM    1  C7  UNL     1      24.499   3.149  51.003  1.00  0.00     0.098 C 
HETATM    2  C8  UNL     1      23.996   3.560  49.876  1.00  0.00    -0.021 C 
HETATM    3  C9  UNL     1      23.262   2.661  48.955  1.00  0.00     0.044 C 
HETATM    4  C10 UNL     1      22.042   3.382  48.428  1.00  0.00     0.051 C 
HETATM    5  C11 UNL     1      21.841   4.730  49.012  1.00  0.00     0.086 C 
HETATM    6  N3  UNL     1      22.745   5.544  49.493  1.00  0.00    -0.276 NA
HETATM    7  C12 UNL     1      24.085   4.944  49.389  1.00  0.00     0.236 C 
ENDROOT
BRANCH   7   8
HETATM    8  N4  UNL     1      25.105   5.753  49.959  1.00  0.00    -0.364 N 
HETATM    9  H19 UNL     1      24.968   6.167  50.902  1.00  0.00     0.162 HD
BRANCH   8  10
HETATM   10  C13 UNL     1      26.353   6.031  49.288  1.00  0.00     0.031 A 
HETATM   11  C14 UNL     1      27.182   4.985  48.881  1.00  0.00     0.032 A 
HETATM   12  C15 UNL     1      28.366   5.358  48.232  1.00  0.00     0.041 A 
HETATM   13  C16 UNL     1      28.744   6.689  47.980  1.00  0.00     0.091 A 
HETATM   14  C21 UNL     1      27.854   7.633  48.425  1.00  0.00     0.069 A 
HETATM   15 CL1  UNL     1      28.298   9.276  48.125  1.00  0.00    -0.081 Cl
HETATM   16  C22 UNL     1      26.672   7.376  49.068  1.00  0.00     0.056 A 
BRANCH  13  17
HETATM   17  O2  UNL     1      29.936   6.686  47.337  1.00  0.00    -0.342 OA
BRANCH  17  18
HETATM   18  C17 UNL     1      31.231   6.900  47.714  1.00  0.00     0.154 C 
HETATM   19  C18 UNL     1      32.003   5.604  47.449  1.00  0.00     0.061 C 
HETATM   20  C19 UNL     1      32.819   5.470  48.689  1.00  0.00     0.170 C 
HETATM   21  O3  UNL     1      32.109   6.062  49.723  1.00  0.00    -0.389 OA
HETATM   22  C20 UNL     1      31.383   7.097  49.209  1.00  0.00     0.200 C 
ENDBRANCH  17  18
ENDBRANCH  13  17
ENDBRANCH   8  10
ENDBRANCH   7   8
BRANCH   1  23
HETATM   23  N2  UNL     1      24.483   1.857  51.587  1.00  0.00    -0.333 N 
HETATM   24  C6  UNL     1      24.942   1.481  52.893  1.00  0.00     0.244 C 
HETATM   25  O1  UNL     1      25.402   2.445  53.565  1.00  0.00    -0.268 OA
HETATM   26  H11 UNL     1      24.097   1.055  51.031  1.00  0.00     0.168 HD
BRANCH  24  27
HETATM   27  C5  UNL     1      24.868   0.124  53.355  1.00  0.00     0.072 C 
HETATM   28  C4  UNL     1      25.873  -0.700  53.225  1.00  0.00     0.008 C 
BRANCH  28  29
HETATM   29  C3  UNL     1      27.232  -0.692  52.694  1.00  0.00     0.299 C 
BRANCH  29  30
HETATM   30  N1  UNL     1      28.221  -0.446  53.731  1.00  0.00     0.083 N 
HETATM   31  C1  UNL     1      28.636   0.947  53.739  1.00  0.00     0.309 C 
HETATM   32  C2  UNL     1      29.350  -1.318  53.432  1.00  0.00     0.309 C 
ENDBRANCH  29  30
ENDBRANCH  28  29
ENDBRANCH  24  27
ENDBRANCH   1  23
TORSDOF 8
ENDMDL
MODEL 4
REMARK VINA RESULT:      -7.4      4.059      6.909
REMARK  8 active torsions:
REMARK  status: ('A' for Active; 'I' for Inactive)
REMARK    1  A    between atoms: N1_2  and  C3_4 
REMARK    2  A    between atoms: C3_4  and  C4_5 
REMARK    3  A    between atoms: C5_6  and  C6_7 
REMARK       I    between atoms: C6_7  and  N2_9 
REMARK    4  A    between atoms: N2_9  and  C7_10 
REMARK    5  A    between atoms: C12_16  and  N4_17 
REMARK    6  A    between atoms: N4_17  and  C13_18 
REMARK    7  A    between atoms: C16_21  and  O2_22 
REMARK    8  A    between atoms: O2_22  and  C17_23 
ROOT
HETATM    1  C7  UNL     1      27.909   5.779  48.214  1.00  0.00     0.098 C 
HETATM    2  C8  UNL     1      26.909   6.217  48.920  1.00  0.00    -0.021 C 
HETATM    3  C9  UNL     1      26.806   7.626  49.368  1.00  0.00     0.044 C 
HETATM    4  C10 UNL     1      25.381   8.099  49.187  1.00  0.00     0.051 C 
HETATM    5  C11 UNL     1      24.493   7.100  48.546  1.00  0.00     0.086 C 
HETATM    6  N3  UNL     1      24.597   5.796  48.567  1.00  0.00    -0.276 NA
HETATM    7  C12 UNL     1      25.775   5.387  49.349  1.00  0.00     0.236 C 
ENDROOT
BRANCH   7   8
HETATM    8  N4  UNL     1      25.982   3.981  49.351  1.00  0.00    -0.364 N 
HETATM    9  H19 UNL     1      26.499   3.535  48.568  1.00  0.00     0.162 HD
BRANCH   8  10
HETATM   10  C13 UNL     1      25.510   3.119  50.409  1.00  0.00     0.031 A 
HETATM   11  C14 UNL     1      24.171   3.155  50.802  1.00  0.00     0.032 A 
HETATM   12  C15 UNL     1      23.811   2.276  51.831  1.00  0.00     0.041 A 
HETATM   13  C16 UNL     1      24.702   1.391  52.463  1.00  0.00     0.091 A 
HETATM   14  C21 UNL     1      25.990   1.443  51.997  1.00  0.00     0.069 A 
HETATM   15 CL1  UNL     1      27.104   0.363  52.759  1.00  0.00    -0.081 Cl
HETATM   16  C22 UNL     1      26.446   2.262  50.999  1.00  0.00     0.056 A 
BRANCH  13  17
HETATM   17  O2  UNL     1      24.023   0.691  53.404  1.00  0.00    -0.342 OA
BRANCH  17  18
HETATM   18  C17 UNL     1      23.683  -0.621  53.567  1.00  0.00     0.154 C 
HETATM   19  C18 UNL     1      22.165  -0.724  53.389  1.00  0.00     0.061 C 
HETATM   20  C19 UNL     1      21.782  -1.624  54.513  1.00  0.00     0.170 C 
HETATM   21  O3  UNL     1      22.695  -1.426  55.538  1.00  0.00    -0.389 OA
HETATM   22  C20 UNL     1      23.902  -1.113  54.984  1.00  0.00     0.200 C 
ENDBRANCH  17  18
ENDBRANCH  13  17
ENDBRANCH   8  10
ENDBRANCH   7   8
BRANCH   1  23
HETATM   23  N2  UNL     1      29.053   6.466  47.736  1.00  0.00    -0.333 N 
HETATM   24  C6  UNL     1      30.412   6.309  48.169  1.00  0.00     0.244 C 
HETATM   25  O1  UNL     1      30.558   5.445  49.078  1.00  0.00    -0.268 OA
HETATM   26  H11 UNL     1      28.935   7.182  46.978  1.00  0.00     0.168 HD
BRANCH  24  27
HETATM   27  C5  UNL     1      31.479   7.080  47.595  1.00  0.00     0.072 C 
HETATM   28  C4  UNL     1      32.563   6.514  47.137  1.00  0.00     0.008 C 
BRANCH  28  29
HETATM   29  C3  UNL     1      33.121   5.173  46.996  1.00  0.00     0.299 C 
BRANCH  29  30
HETATM   30  N1  UNL     1      33.955   4.809  48.130  1.00  0.00     0.083 N 
HETATM   31  C1  UNL     1      34.900   5.868  48.447  1.00  0.00     0.309 C 
HETATM   32  C2  UNL     1      34.656   3.592  47.745  1.00  0.00     0.309 C 
ENDBRANCH  29  30
ENDBRANCH  28  29
ENDBRANCH  24  27
ENDBRANCH   1  23
TORSDOF 8
ENDMDL
MODEL 5
REMARK VINA RESULT:      -7.4      4.641      7.721
REMARK  8 active torsions:
REMARK  status: ('A' for Active; 'I' for Inactive)
REMARK    1  A    between atoms: N1_2  and  C3_4 
REMARK    2  A    between atoms: C3_4  and  C4_5 
REMARK    3  A    between atoms: C5_6  and  C6_7 
REMARK       I    between atoms: C6_7  and  N2_9 
REMARK    4  A    between atoms: N2_9  and  C7_10 
REMARK    5  A    between atoms: C12_16  and  N4_17 
REMARK    6  A    between atoms: N4_17  and  C13_18 
REMARK    7  A    between atoms: C16_21  and  O2_22 
REMARK    8  A    between atoms: O2_22  and  C17_23 
ROOT
HETATM    1  C7  UNL     1      26.438   6.970  49.278  1.00  0.00     0.098 C 
HETATM    2  C8  UNL     1      25.153   7.081  49.446  1.00  0.00    -0.021 C 
HETATM    3  C9  UNL     1      24.538   8.237  50.140  1.00  0.00     0.044 C 
HETATM    4  C10 UNL     1      23.305   8.671  49.380  1.00  0.00     0.051 C 
HETATM    5  C11 UNL     1      23.077   7.917  48.124  1.00  0.00     0.086 C 
HETATM    6  N3  UNL     1      23.448   6.696  47.836  1.00  0.00    -0.276 NA
HETATM    7  C12 UNL     1      24.170   6.097  48.971  1.00  0.00     0.236 C 
ENDROOT
BRANCH   7   8
HETATM    8  N4  UNL     1      24.661   4.793  48.694  1.00  0.00    -0.364 N 
HETATM    9  H19 UNL     1      24.768   4.480  47.709  1.00  0.00     0.162 HD
BRANCH   8  10
HETATM   10  C13 UNL     1      25.035   3.859  49.731  1.00  0.00     0.031 A 
HETATM   11  C14 UNL     1      26.339   3.367  49.798  1.00  0.00     0.032 A 
HETATM   12  C15 UNL     1      26.604   2.474  50.844  1.00  0.00     0.041 A 
HETATM   13  C16 UNL     1      25.653   2.065  51.794  1.00  0.00     0.091 A 
HETATM   14  C21 UNL     1      24.405   2.611  51.630  1.00  0.00     0.069 A 
HETATM   15 CL1  UNL     1      23.219   2.122  52.787  1.00  0.00    -0.081 Cl
HETATM   16  C22 UNL     1      24.042   3.491  50.645  1.00  0.00     0.056 A 
BRANCH  13  17
HETATM   17  O2  UNL     1      26.244   1.205  52.657  1.00  0.00    -0.342 OA
BRANCH  17  18
HETATM   18  C17 UNL     1      26.857   1.331  53.871  1.00  0.00     0.154 C 
HETATM   19  C18 UNL     1      28.360   1.151  53.643  1.00  0.00     0.061 C 
HETATM   20  C19 UNL     1      28.741   0.259  54.775  1.00  0.00     0.170 C 
HETATM   21  O3  UNL     1      27.637  -0.524  55.081  1.00  0.00    -0.389 OA
HETATM   22  C20 UNL     1      26.510   0.202  54.823  1.00  0.00     0.200 C 
ENDBRANCH  17  18
ENDBRANCH  13  17
ENDBRANCH   8  10
ENDBRANCH   7   8
BRANCH   1  23
HETATM   23  N2  UNL     1      27.485   7.838  49.679  1.00  0.00    -0.333 N 
HETATM   24  C6  UNL     1      28.115   8.867  48.903  1.00  0.00     0.244 C 
HETATM   25  O1  UNL     1      27.647   8.979  47.736  1.00  0.00    -0.268 OA
HETATM   26  H11 UNL     1      27.872   7.749  50.650  1.00  0.00     0.168 HD
BRANCH  24  27
HETATM   27  C5  UNL     1      29.174   9.674  49.440  1.00  0.00     0.072 C 
HETATM   28  C4  UNL     1      30.424   9.454  49.133  1.00  0.00     0.008 C 
BRANCH  28  29
HETATM   29  C3  UNL     1      31.203   8.535  48.311  1.00  0.00     0.299 C 
BRANCH  29  30
HETATM   30  N1  UNL     1      31.765   7.446  49.094  1.00  0.00     0.083 N 
HETATM   31  C1  UNL     1      33.129   7.155  48.684  1.00  0.00     0.309 C 
HETATM   32  C2  UNL     1      30.902   6.295  48.868  1.00  0.00     0.309 C 
ENDBRANCH  29  30
ENDBRANCH  28  29
ENDBRANCH  24  27
ENDBRANCH   1  23
TORSDOF 8
ENDMDL
MODEL 6
REMARK VINA RESULT:      -7.3      3.733      5.996
REMARK  8 active torsions:
REMARK  status: ('A' for Active; 'I' for Inactive)
REMARK    1  A    between atoms: N1_2  and  C3_4 
REMARK    2  A    between atoms: C3_4  and  C4_5 
REMARK    3  A    between atoms: C5_6  and  C6_7 
REMARK       I    between atoms: C6_7  and  N2_9 
REMARK    4  A    between atoms: N2_9  and  C7_10 
REMARK    5  A    between atoms: C12_16  and  N4_17 
REMARK    6  A    between atoms: N4_17  and  C13_18 
REMARK    7  A    between atoms: C16_21  and  O2_22 
REMARK    8  A    between atoms: O2_22  and  C17_23 
ROOT
HETATM    1  C7  UNL     1      24.443   2.346  53.169  1.00  0.00     0.098 C 
HETATM    2  C8  UNL     1      23.660   1.333  52.942  1.00  0.00    -0.021 C 
HETATM    3  C9  UNL     1      24.074  -0.067  53.197  1.00  0.00     0.044 C 
HETATM    4  C10 UNL     1      22.928  -0.810  53.845  1.00  0.00     0.051 C 
HETATM    5  C11 UNL     1      21.748   0.039  54.136  1.00  0.00     0.086 C 
HETATM    6  N3  UNL     1      21.364   1.126  53.519  1.00  0.00    -0.276 NA
HETATM    7  C12 UNL     1      22.291   1.449  52.422  1.00  0.00     0.236 C 
ENDROOT
BRANCH   7   8
HETATM    8  N4  UNL     1      21.966   2.662  51.756  1.00  0.00    -0.364 N 
HETATM    9  H19 UNL     1      21.741   3.511  52.310  1.00  0.00     0.162 HD
BRANCH   8  10
HETATM   10  C13 UNL     1      21.937   2.783  50.317  1.00  0.00     0.031 A 
HETATM   11  C14 UNL     1      23.125   2.778  49.586  1.00  0.00     0.032 A 
HETATM   12  C15 UNL     1      22.991   2.893  48.196  1.00  0.00     0.041 A 
HETATM   13  C16 UNL     1      21.759   3.008  47.528  1.00  0.00     0.091 A 
HETATM   14  C21 UNL     1      20.659   3.003  48.347  1.00  0.00     0.069 A 
HETATM   15 CL1  UNL     1      19.133   3.144  47.547  1.00  0.00    -0.081 Cl
HETATM   16  C22 UNL     1      20.680   2.896  49.712  1.00  0.00     0.056 A 
BRANCH  13  17
HETATM   17  O2  UNL     1      21.995   3.097  46.197  1.00  0.00    -0.342 OA
BRANCH  17  18
HETATM   18  C17 UNL     1      21.898   4.093  45.268  1.00  0.00     0.154 C 
HETATM   19  C18 UNL     1      21.646   5.400  46.026  1.00  0.00     0.061 C 
HETATM   20  C19 UNL     1      20.574   6.032  45.206  1.00  0.00     0.170 C 
HETATM   21  O3  UNL     1      19.836   5.012  44.624  1.00  0.00    -0.389 OA
HETATM   22  C20 UNL     1      20.671   3.958  44.388  1.00  0.00     0.200 C 
ENDBRANCH  17  18
ENDBRANCH  13  17
ENDBRANCH   8  10
ENDBRANCH   7   8
BRANCH   1  23
HETATM   23  N2  UNL     1      25.771   2.374  53.667  1.00  0.00    -0.333 N 
HETATM   24  C6  UNL     1      26.990   2.307  52.913  1.00  0.00     0.244 C 
HETATM   25  O1  UNL     1      26.811   2.219  51.667  1.00  0.00    -0.268 OA
HETATM   26  H11 UNL     1      25.922   2.452  54.702  1.00  0.00     0.168 HD
BRANCH  24  27
HETATM   27  C5  UNL     1      28.274   2.342  53.554  1.00  0.00     0.072 C 
HETATM   28  C4  UNL     1      28.779   1.286  54.133  1.00  0.00     0.008 C 
BRANCH  28  29
HETATM   29  C3  UNL     1      28.418  -0.107  54.374  1.00  0.00     0.299 C 
BRANCH  29  30
HETATM   30  N1  UNL     1      28.528  -0.914  53.170  1.00  0.00     0.083 N 
HETATM   31  C1  UNL     1      27.291  -1.632  52.906  1.00  0.00     0.309 C 
HETATM   32  C2  UNL     1      29.624  -1.845  53.402  1.00  0.00     0.309 C 
ENDBRANCH  29  30
ENDBRANCH  28  29
ENDBRANCH  24  27
ENDBRANCH   1  23
TORSDOF 8
ENDMDL
MODEL 7
REMARK VINA RESULT:      -7.3      4.972      8.100
REMARK  8 active torsions:
REMARK  status: ('A' for Active; 'I' for Inactive)
REMARK    1  A    between atoms: N1_2  and  C3_4 
REMARK    2  A    between atoms: C3_4  and  C4_5 
REMARK    3  A    between atoms: C5_6  and  C6_7 
REMARK       I    between atoms: C6_7  and  N2_9 
REMARK    4  A    between atoms: N2_9  and  C7_10 
REMARK    5  A    between atoms: C12_16  and  N4_17 
REMARK    6  A    between atoms: N4_17  and  C13_18 
REMARK    7  A    between atoms: C16_21  and  O2_22 
REMARK    8  A    between atoms: O2_22  and  C17_23 
ROOT
HETATM    1  C7  UNL     1      28.411   7.046  48.471  1.00  0.00     0.098 C 
HETATM    2  C8  UNL     1      27.381   7.673  48.959  1.00  0.00    -0.021 C 
HETATM    3  C9  UNL     1      27.509   8.924  49.744  1.00  0.00     0.044 C 
HETATM    4  C10 UNL     1      26.431   9.891  49.310  1.00  0.00     0.051 C 
HETATM    5  C11 UNL     1      25.599   9.399  48.185  1.00  0.00     0.086 C 
HETATM    6  N3  UNL     1      25.332   8.161  47.859  1.00  0.00    -0.276 NA
HETATM    7  C12 UNL     1      25.990   7.231  48.792  1.00  0.00     0.236 C 
ENDROOT
BRANCH   7   8
HETATM    8  N4  UNL     1      25.794   5.865  48.449  1.00  0.00    -0.364 N 
HETATM    9  H19 UNL     1      25.699   5.593  47.451  1.00  0.00     0.162 HD
BRANCH   8  10
HETATM   10  C13 UNL     1      25.728   4.811  49.433  1.00  0.00     0.031 A 
HETATM   11  C14 UNL     1      26.708   3.818  49.469  1.00  0.00     0.032 A 
HETATM   12  C15 UNL     1      26.558   2.845  50.465  1.00  0.00     0.041 A 
HETATM   13  C16 UNL     1      25.506   2.823  51.397  1.00  0.00     0.091 A 
HETATM   14  C21 UNL     1      24.603   3.846  51.267  1.00  0.00     0.069 A 
HETATM   15 CL1  UNL     1      23.300   3.840  52.403  1.00  0.00    -0.081 Cl
HETATM   16  C22 UNL     1      24.656   4.845  50.332  1.00  0.00     0.056 A 
BRANCH  13  17
HETATM   17  O2  UNL     1      25.671   1.753  52.211  1.00  0.00    -0.342 OA
BRANCH  17  18
HETATM   18  C17 UNL     1      26.748   1.041  52.658  1.00  0.00     0.154 C 
HETATM   19  C18 UNL     1      26.694  -0.335  51.988  1.00  0.00     0.061 C 
HETATM   20  C19 UNL     1      27.009  -1.245  53.124  1.00  0.00     0.170 C 
HETATM   21  O3  UNL     1      26.554  -0.639  54.285  1.00  0.00    -0.389 OA
HETATM   22  C20 UNL     1      26.662   0.713  54.136  1.00  0.00     0.200 C 
ENDBRANCH  17  18
ENDBRANCH  13  17
ENDBRANCH   8  10
ENDBRANCH   7   8
BRANCH   1  23
HETATM   23  N2  UNL     1      29.790   7.361  48.555  1.00  0.00    -0.333 N 
HETATM   24  C6  UNL     1      30.873   6.475  48.872  1.00  0.00     0.244 C 
HETATM   25  O1  UNL     1      30.508   5.286  49.089  1.00  0.00    -0.268 OA
HETATM   26  H11 UNL     1      30.097   8.348  48.372  1.00  0.00     0.168 HD
BRANCH  24  27
HETATM   27  C5  UNL     1      32.232   6.935  48.927  1.00  0.00     0.072 C 
HETATM   28  C4  UNL     1      33.155   6.437  48.148  1.00  0.00     0.008 C 
BRANCH  28  29
HETATM   29  C3  UNL     1      33.274   5.432  47.097  1.00  0.00     0.299 C 
BRANCH  29  30
HETATM   30  N1  UNL     1      33.346   4.085  47.640  1.00  0.00     0.083 N 
HETATM   31  C1  UNL     1      34.701   3.562  47.566  1.00  0.00     0.309 C 
HETATM   32  C2  UNL     1      32.437   3.275  46.838  1.00  0.00     0.309 C 
ENDBRANCH  29  30
ENDBRANCH  28  29
ENDBRANCH  24  27
ENDBRANCH   1  23
TORSDOF 8
ENDMDL
MODEL 8
REMARK VINA RESULT:      -7.2      3.449      9.562
REMARK  8 active torsions:
REMARK  status: ('A' for Active; 'I' for Inactive)
REMARK    1  A    between atoms: N1_2  and  C3_4 
REMARK    2  A    between atoms: C3_4  and  C4_5 
REMARK    3  A    between atoms: C5_6  and  C6_7 
REMARK       I    between atoms: C6_7  and  N2_9 
REMARK    4  A    between atoms: N2_9  and  C7_10 
REMARK    5  A    between atoms: C12_16  and  N4_17 
REMARK    6  A    between atoms: N4_17  and  C13_18 
REMARK    7  A    between atoms: C16_21  and  O2_22 
REMARK    8  A    between atoms: O2_22  and  C17_23 
ROOT
HETATM    1  C7  UNL     1      23.744   2.167  50.739  1.00  0.00     0.098 C 
HETATM    2  C8  UNL     1      24.679   2.623  51.519  1.00  0.00    -0.021 C 
HETATM    3  C9  UNL     1      24.547   2.641  52.995  1.00  0.00     0.044 C 
HETATM    4  C10 UNL     1      25.855   2.200  53.613  1.00  0.00     0.051 C 
HETATM    5  C11 UNL     1      26.879   1.788  52.624  1.00  0.00     0.086 C 
HETATM    6  N3  UNL     1      27.011   2.186  51.385  1.00  0.00    -0.276 NA
HETATM    7  C12 UNL     1      25.961   3.160  51.043  1.00  0.00     0.236 C 
ENDROOT
BRANCH   7   8
HETATM    8  N4  UNL     1      26.009   3.580  49.686  1.00  0.00    -0.364 N 
HETATM    9  H19 UNL     1      25.636   2.959  48.941  1.00  0.00     0.162 HD
BRANCH   8  10
HETATM   10  C13 UNL     1      26.553   4.853  49.277  1.00  0.00     0.031 A 
HETATM   11  C14 UNL     1      27.768   4.914  48.595  1.00  0.00     0.032 A 
HETATM   12  C15 UNL     1      28.206   6.195  48.235  1.00  0.00     0.041 A 
HETATM   13  C16 UNL     1      27.504   7.379  48.519  1.00  0.00     0.091 A 
HETATM   14  C21 UNL     1      26.324   7.199  49.194  1.00  0.00     0.069 A 
HETATM   15 CL1  UNL     1      25.443   8.642  49.553  1.00  0.00    -0.081 Cl
HETATM   16  C22 UNL     1      25.806   5.995  49.591  1.00  0.00     0.056 A 
BRANCH  13  17
HETATM   17  O2  UNL     1      28.207   8.428  48.029  1.00  0.00    -0.342 OA
BRANCH  17  18
HETATM   18  C17 UNL     1      29.533   8.748  47.961  1.00  0.00     0.154 C 
HETATM   19  C18 UNL     1      29.899   9.456  49.269  1.00  0.00     0.061 C 
HETATM   20  C19 UNL     1      30.726  10.597  48.784  1.00  0.00     0.170 C 
HETATM   21  O3  UNL     1      30.275  10.930  47.515  1.00  0.00    -0.389 OA
HETATM   22  C20 UNL     1      29.830   9.794  46.904  1.00  0.00     0.200 C 
ENDBRANCH  17  18
ENDBRANCH  13  17
ENDBRANCH   8  10
ENDBRANCH   7   8
BRANCH   1  23
HETATM   23  N2  UNL     1      22.475   1.624  51.064  1.00  0.00    -0.333 N 
HETATM   24  C6  UNL     1      21.281   2.338  51.415  1.00  0.00     0.244 C 
HETATM   25  O1  UNL     1      21.424   3.593  51.418  1.00  0.00    -0.268 OA
HETATM   26  H11 UNL     1      22.353   0.582  51.058  1.00  0.00     0.168 HD
BRANCH  24  27
HETATM   27  C5  UNL     1      20.058   1.654  51.727  1.00  0.00     0.072 C 
HETATM   28  C4  UNL     1      19.947   0.900  52.787  1.00  0.00     0.008 C 
BRANCH  28  29
HETATM   29  C3  UNL     1      20.768   0.467  53.913  1.00  0.00     0.299 C 
BRANCH  29  30
HETATM   30  N1  UNL     1      21.512  -0.745  53.608  1.00  0.00     0.083 N 
HETATM   31  C1  UNL     1      21.000  -1.877  54.364  1.00  0.00     0.309 C 
HETATM   32  C2  UNL     1      22.898  -0.472  53.966  1.00  0.00     0.309 C 
ENDBRANCH  29  30
ENDBRANCH  28  29
ENDBRANCH  24  27
ENDBRANCH   1  23
TORSDOF 8
ENDMDL
MODEL 9
REMARK VINA RESULT:      -7.2      4.807      8.620
REMARK  8 active torsions:
REMARK  status: ('A' for Active; 'I' for Inactive)
REMARK    1  A    between atoms: N1_2  and  C3_4 
REMARK    2  A    between atoms: C3_4  and  C4_5 
REMARK    3  A    between atoms: C5_6  and  C6_7 
REMARK       I    between atoms: C6_7  and  N2_9 
REMARK    4  A    between atoms: N2_9  and  C7_10 
REMARK    5  A    between atoms: C12_16  and  N4_17 
REMARK    6  A    between atoms: N4_17  and  C13_18 
REMARK    7  A    between atoms: C16_21  and  O2_22 
REMARK    8  A    between atoms: O2_22  and  C17_23 
ROOT
HETATM    1  C7  UNL     1      30.272   6.842  47.218  1.00  0.00     0.098 C 
HETATM    2  C8  UNL     1      30.008   7.597  48.243  1.00  0.00    -0.021 C 
HETATM    3  C9  UNL     1      31.059   8.087  49.165  1.00  0.00     0.044 C 
HETATM    4  C10 UNL     1      30.791   9.537  49.495  1.00  0.00     0.051 C 
HETATM    5  C11 UNL     1      29.634  10.115  48.769  1.00  0.00     0.086 C 
HETATM    6  N3  UNL     1      28.579   9.495  48.308  1.00  0.00    -0.276 NA
HETATM    7  C12 UNL     1      28.659   8.055  48.604  1.00  0.00     0.236 C 
ENDROOT
BRANCH   7   8
HETATM    8  N4  UNL     1      27.572   7.313  48.067  1.00  0.00    -0.364 N 
HETATM    9  H19 UNL     1      27.195   7.556  47.130  1.00  0.00     0.162 HD
BRANCH   8  10
HETATM   10  C13 UNL     1      26.952   6.211  48.765  1.00  0.00     0.031 A 
HETATM   11  C14 UNL     1      27.470   4.921  48.644  1.00  0.00     0.032 A 
HETATM   12  C15 UNL     1      26.803   3.923  49.366  1.00  0.00     0.041 A 
HETATM   13  C16 UNL     1      25.679   4.152  50.179  1.00  0.00     0.091 A 
HETATM   14  C21 UNL     1      25.258   5.456  50.221  1.00  0.00     0.069 A 
HETATM   15 CL1  UNL     1      23.876   5.762  51.214  1.00  0.00    -0.081 Cl
HETATM   16  C22 UNL     1      25.836   6.505  49.556  1.00  0.00     0.056 A 
BRANCH  13  17
HETATM   17  O2  UNL     1      25.293   2.975  50.727  1.00  0.00    -0.342 OA
BRANCH  17  18
HETATM   18  C17 UNL     1      25.381   2.420  51.971  1.00  0.00     0.154 C 
HETATM   19  C18 UNL     1      26.266   1.175  51.854  1.00  0.00     0.061 C 
HETATM   20  C19 UNL     1      25.509   0.180  52.664  1.00  0.00     0.170 C 
HETATM   21  O3  UNL     1      24.164   0.508  52.581  1.00  0.00    -0.389 OA
HETATM   22  C20 UNL     1      24.059   1.863  52.460  1.00  0.00     0.200 C 
ENDBRANCH  17  18
ENDBRANCH  13  17
ENDBRANCH   8  10
ENDBRANCH   7   8
BRANCH   1  23
HETATM   23  N2  UNL     1      31.515   6.336  46.760  1.00  0.00    -0.333 N 
HETATM   24  C6  UNL     1      32.064   5.029  46.983  1.00  0.00     0.244 C 
HETATM   25  O1  UNL     1      31.316   4.276  47.667  1.00  0.00    -0.268 OA
HETATM   26  H11 UNL     1      32.136   6.959  46.187  1.00  0.00     0.168 HD
BRANCH  24  27
HETATM   27  C5  UNL     1      33.346   4.651  46.459  1.00  0.00     0.072 C 
HETATM   28  C4  UNL     1      34.442   4.807  47.152  1.00  0.00     0.008 C 
BRANCH  28  29
HETATM   29  C3  UNL     1      34.845   5.307  48.462  1.00  0.00     0.299 C 
BRANCH  29  30
HETATM   30  N1  UNL     1      35.605   6.543  48.362  1.00  0.00     0.083 N 
HETATM   31  C1  UNL     1      36.665   6.587  49.357  1.00  0.00     0.309 C 
HETATM   32  C2  UNL     1      34.653   7.625  48.576  1.00  0.00     0.309 C 
ENDBRANCH  29  30
ENDBRANCH  28  29
ENDBRANCH  24  27
ENDBRANCH   1  23
TORSDOF 8
ENDMDL
