MODEL 1
REMARK VINA RESULT:      -8.0      0.000      0.000
REMARK  7 active torsions:
REMARK  status: ('A' for Active; 'I' for Inactive)
REMARK    1  A    between atoms: O1_2  and  C2_3 
REMARK    2  A    between atoms: C5_6  and  C6_7 
REMARK    3  A    between atoms: C12_14  and  N1_15 
REMARK    4  A    between atoms: C15_18  and  C16_19 
REMARK    5  A    between atoms: C16_19  and  C17_20 
REMARK    6  A    between atoms: C17_20  and  C18_21 
REMARK    7  A    between atoms: C18_21  and  O4_23 
ROOT
HETATM    1  C6  UNL     1      24.442   2.555  50.721  1.00  0.00    -0.011 A 
HETATM    2  C7  UNL     1      24.837   3.453  49.716  1.00  0.00     0.008 A 
HETATM    3  C8  UNL     1      23.973   3.644  48.589  1.00  0.00    -0.011 A 
HETATM    4  C9  UNL     1      23.003   2.811  48.910  1.00  0.00     0.042 A 
HETATM    5  C10 UNL     1      22.194   1.945  49.432  1.00  0.00     0.031 A 
HETATM    6  C11 UNL     1      23.263   2.107  50.257  1.00  0.00     0.121 A 
HETATM    7  O2  UNL     1      22.579   1.319  51.148  1.00  0.00    -0.317 OA
HETATM    8  C12 UNL     1      21.581   2.287  51.658  1.00  0.00     0.143 C 
HETATM    9  C13 UNL     1      21.609   3.709  51.358  1.00  0.00    -0.005 C 
HETATM   10  C14 UNL     1      21.867   4.245  52.715  1.00  0.00     0.053 C 
HETATM   11  C15 UNL     1      21.500   4.699  50.321  1.00  0.00    -0.044 C 
HETATM   12  C19 UNL     1      21.228   4.343  48.917  1.00  0.00    -0.064 C 
HETATM   13  C20 UNL     1      20.690   5.445  48.042  1.00  0.00     0.045 C 
HETATM   14  C21 UNL     1      21.585   2.892  48.819  1.00  0.00     0.014 A 
HETATM   15  C22 UNL     1      20.280   2.740  48.868  1.00  0.00    -0.036 A 
HETATM   16  C23 UNL     1      20.928   1.321  48.990  1.00  0.00     0.053 A 
ENDROOT
BRANCH   1  17
HETATM   17  C5  UNL     1      25.234   2.254  51.880  1.00  0.00    -0.027 A 
HETATM   18  C4  UNL     1      25.043   2.509  53.193  1.00  0.00     0.015 A 
HETATM   19  C3  UNL     1      25.926   2.149  54.184  1.00  0.00     0.037 A 
HETATM   20  C2  UNL     1      27.060   1.495  53.789  1.00  0.00     0.068 A 
HETATM   21  C25 UNL     1      27.349   1.185  52.464  1.00  0.00     0.037 A 
HETATM   22  C24 UNL     1      26.405   1.581  51.506  1.00  0.00     0.015 A 
BRANCH  20  23
HETATM   23  O1  UNL     1      27.991   1.104  54.740  1.00  0.00    -0.356 OA
HETATM   24  C1  UNL     1      28.846  -0.025  54.521  1.00  0.00     0.210 C 
ENDBRANCH  20  23
ENDBRANCH   1  17
BRANCH   8  25
HETATM   25  N1  UNL     1      20.507   1.863  52.494  1.00  0.00    -0.380 N 
HETATM   26  H8  UNL     1      19.573   1.990  52.025  1.00  0.00     0.158 HD
HETATM   27  H9  UNL     1      20.470   1.454  53.475  1.00  0.00     0.158 HD
ENDBRANCH   8  25
BRANCH  11  28
HETATM   28  C16 UNL     1      21.640   6.112  50.600  1.00  0.00     0.050 C 
BRANCH  28  29
HETATM   29  C17 UNL     1      22.848   6.790  50.020  1.00  0.00     0.114 C 
BRANCH  29  30
HETATM   30  C18 UNL     1      23.893   6.779  51.077  1.00  0.00     0.139 C 
HETATM   31  O3  UNL     1      25.113   7.013  50.817  1.00  0.00    -0.650 OA
BRANCH  30  32
HETATM   32  O4  UNL     1      24.427   6.654  52.330  1.00  0.00    -0.776 OA
HETATM   33  H17 UNL     1      25.139   7.288  52.649  1.00  0.00     0.167 HD
ENDBRANCH  30  32
ENDBRANCH  29  30
ENDBRANCH  28  29
ENDBRANCH  11  28
TORSDOF 7
ENDMDL
MODEL 2
REMARK VINA RESULT:      -8.0      2.797      4.736
REMARK  7 active torsions:
REMARK  status: ('A' for Active; 'I' for Inactive)
REMARK    1  A    between atoms: O1_2  and  C2_3 
REMARK    2  A    between atoms: C5_6  and  C6_7 
REMARK    3  A    between atoms: C12_14  and  N1_15 
REMARK    4  A    between atoms: C15_18  and  C16_19 
REMARK    5  A    between atoms: C16_19  and  C17_20 
REMARK    6  A    between atoms: C17_20  and  C18_21 
REMARK    7  A    between atoms: C18_21  and  O4_23 
ROOT
HETATM    1  C6  UNL     1      24.352   3.101  49.618  1.00  0.00    -0.011 A 
HETATM    2  C7  UNL     1      23.259   2.788  48.792  1.00  0.00     0.008 A 
HETATM    3  C8  UNL     1      22.294   1.841  49.262  1.00  0.00    -0.011 A 
HETATM    4  C9  UNL     1      22.825   1.543  50.431  1.00  0.00     0.042 A 
HETATM    5  C10 UNL     1      23.530   1.417  51.510  1.00  0.00     0.031 A 
HETATM    6  C11 UNL     1      24.127   2.327  50.693  1.00  0.00     0.121 A 
HETATM    7  O2  UNL     1      24.983   2.567  51.738  1.00  0.00    -0.317 OA
HETATM    8  C12 UNL     1      24.119   3.386  52.618  1.00  0.00     0.143 C 
HETATM    9  C13 UNL     1      22.818   3.897  52.221  1.00  0.00    -0.005 C 
HETATM   10  C14 UNL     1      23.106   5.350  52.235  1.00  0.00     0.053 C 
HETATM   11  C15 UNL     1      21.476   3.544  51.841  1.00  0.00    -0.044 C 
HETATM   12  C19 UNL     1      21.013   2.147  51.791  1.00  0.00    -0.064 C 
HETATM   13  C20 UNL     1      19.522   1.936  51.836  1.00  0.00     0.045 C 
HETATM   14  C21 UNL     1      22.269   1.334  51.724  1.00  0.00     0.014 A 
HETATM   15  C22 UNL     1      22.007   1.132  52.997  1.00  0.00    -0.036 A 
HETATM   16  C23 UNL     1      23.433   0.557  52.709  1.00  0.00     0.053 A 
ENDROOT
BRANCH   1  17
HETATM   17  C5  UNL     1      25.401   4.008  49.246  1.00  0.00    -0.027 A 
HETATM   18  C4  UNL     1      26.737   3.845  49.140  1.00  0.00     0.015 A 
HETATM   19  C3  UNL     1      27.608   4.844  48.772  1.00  0.00     0.037 A 
HETATM   20  C2  UNL     1      27.061   6.068  48.504  1.00  0.00     0.068 A 
HETATM   21  C25 UNL     1      25.699   6.338  48.584  1.00  0.00     0.037 A 
HETATM   22  C24 UNL     1      24.869   5.274  48.964  1.00  0.00     0.015 A 
BRANCH  20  23
HETATM   23  O1  UNL     1      27.885   7.118  48.128  1.00  0.00    -0.356 OA
HETATM   24  C1  UNL     1      29.311   6.981  48.130  1.00  0.00     0.210 C 
ENDBRANCH  20  23
ENDBRANCH   1  17
BRANCH   8  25
HETATM   25  N1  UNL     1      24.528   3.724  53.940  1.00  0.00    -0.380 N 
HETATM   26  H8  UNL     1      23.768   4.228  54.468  1.00  0.00     0.158 HD
HETATM   27  H9  UNL     1      25.431   3.571  54.482  1.00  0.00     0.158 HD
ENDBRANCH   8  25
BRANCH  11  28
HETATM   28  C16 UNL     1      20.493   4.549  51.497  1.00  0.00     0.050 C 
BRANCH  28  29
HETATM   29  C17 UNL     1      20.422   4.945  50.050  1.00  0.00     0.114 C 
BRANCH  29  30
HETATM   30  C18 UNL     1      18.993   5.228  49.754  1.00  0.00     0.139 C 
HETATM   31  O3  UNL     1      18.054   4.746  50.458  1.00  0.00    -0.650 OA
BRANCH  30  32
HETATM   32  O4  UNL     1      17.916   5.761  49.101  1.00  0.00    -0.776 OA
HETATM   33  H17 UNL     1      17.548   5.320  48.274  1.00  0.00     0.167 HD
ENDBRANCH  30  32
ENDBRANCH  29  30
ENDBRANCH  28  29
ENDBRANCH  11  28
TORSDOF 7
ENDMDL
MODEL 3
REMARK VINA RESULT:      -8.0      8.160     10.546
REMARK  7 active torsions:
REMARK  status: ('A' for Active; 'I' for Inactive)
REMARK    1  A    between atoms: O1_2  and  C2_3 
REMARK    2  A    between atoms: C5_6  and  C6_7 
REMARK    3  A    between atoms: C12_14  and  N1_15 
REMARK    4  A    between atoms: C15_18  and  C16_19 
REMARK    5  A    between atoms: C16_19  and  C17_20 
REMARK    6  A    between atoms: C17_20  and  C18_21 
REMARK    7  A    between atoms: C18_21  and  O4_23 
ROOT
HETATM    1  C6  UNL     1      29.332   8.061  46.865  1.00  0.00    -0.011 A 
HETATM    2  C7  UNL     1      30.028   7.661  45.713  1.00  0.00     0.008 A 
HETATM    3  C8  UNL     1      31.006   8.549  45.160  1.00  0.00    -0.011 A 
HETATM    4  C9  UNL     1      30.897   9.554  46.007  1.00  0.00     0.042 A 
HETATM    5  C10 UNL     1      30.610  10.394  46.949  1.00  0.00     0.031 A 
HETATM    6  C11 UNL     1      29.849   9.277  47.104  1.00  0.00     0.121 A 
HETATM    7  O2  UNL     1      29.444   9.830  48.293  1.00  0.00    -0.317 OA
HETATM    8  C12 UNL     1      30.635   9.574  49.134  1.00  0.00     0.143 C 
HETATM    9  C13 UNL     1      31.753   8.743  48.719  1.00  0.00    -0.005 C 
HETATM   10  C14 UNL     1      31.623   7.641  49.700  1.00  0.00     0.053 C 
HETATM   11  C15 UNL     1      32.835   8.603  47.782  1.00  0.00    -0.044 C 
HETATM   12  C19 UNL     1      33.120   9.615  46.749  1.00  0.00    -0.064 C 
HETATM   13  C20 UNL     1      34.505   9.590  46.157  1.00  0.00     0.045 C 
HETATM   14  C21 UNL     1      31.853  10.403  46.632  1.00  0.00     0.014 A 
HETATM   15  C22 UNL     1      32.528  11.277  47.346  1.00  0.00    -0.036 A 
HETATM   16  C23 UNL     1      31.045  11.772  47.268  1.00  0.00     0.053 A 
ENDROOT
BRANCH   1  17
HETATM   17  C5  UNL     1      28.307   7.274  47.493  1.00  0.00    -0.027 A 
HETATM   18  C4  UNL     1      26.998   7.516  47.719  1.00  0.00     0.015 A 
HETATM   19  C3  UNL     1      26.151   6.637  48.354  1.00  0.00     0.037 A 
HETATM   20  C2  UNL     1      26.694   5.454  48.772  1.00  0.00     0.068 A 
HETATM   21  C25 UNL     1      28.029   5.111  48.587  1.00  0.00     0.037 A 
HETATM   22  C24 UNL     1      28.835   6.052  47.933  1.00  0.00     0.015 A 
BRANCH  20  23
HETATM   23  O1  UNL     1      25.893   4.524  49.419  1.00  0.00    -0.356 OA
HETATM   24  C1  UNL     1      26.436   3.297  49.919  1.00  0.00     0.210 C 
ENDBRANCH  20  23
ENDBRANCH   1  17
BRANCH   8  25
HETATM   25  N1  UNL     1      30.752  10.147  50.434  1.00  0.00    -0.380 N 
HETATM   26  H8  UNL     1      31.176   9.471  51.122  1.00  0.00     0.158 HD
HETATM   27  H9  UNL     1      30.500  11.100  50.832  1.00  0.00     0.158 HD
ENDBRANCH   8  25
BRANCH  11  28
HETATM   28  C16 UNL     1      33.721   7.459  47.809  1.00  0.00     0.050 C 
BRANCH  28  29
HETATM   29  C17 UNL     1      33.360   6.315  46.904  1.00  0.00     0.114 C 
BRANCH  29  30
HETATM   30  C18 UNL     1      33.112   5.140  47.780  1.00  0.00     0.139 C 
HETATM   31  O3  UNL     1      33.961   4.204  47.904  1.00  0.00    -0.650 OA
BRANCH  30  32
HETATM   32  O4  UNL     1      32.441   4.331  48.655  1.00  0.00    -0.776 OA
HETATM   33  H17 UNL     1      31.489   4.059  48.475  1.00  0.00     0.167 HD
ENDBRANCH  30  32
ENDBRANCH  29  30
ENDBRANCH  28  29
ENDBRANCH  11  28
TORSDOF 7
ENDMDL
MODEL 4
REMARK VINA RESULT:      -7.6      2.343      5.732
REMARK  7 active torsions:
REMARK  status: ('A' for Active; 'I' for Inactive)
REMARK    1  A    between atoms: O1_2  and  C2_3 
REMARK    2  A    between atoms: C5_6  and  C6_7 
REMARK    3  A    between atoms: C12_14  and  N1_15 
REMARK    4  A    between atoms: C15_18  and  C16_19 
REMARK    5  A    between atoms: C16_19  and  C17_20 
REMARK    6  A    between atoms: C17_20  and  C18_21 
REMARK    7  A    between atoms: C18_21  and  O4_23 
ROOT
HETATM    1  C6  UNL     1      22.000   2.261  50.662  1.00  0.00    -0.011 A 
HETATM    2  C7  UNL     1      22.608   1.752  49.503  1.00  0.00     0.008 A 
HETATM    3  C8  UNL     1      23.420   2.627  48.713  1.00  0.00    -0.011 A 
HETATM    4  C9  UNL     1      23.295   3.738  49.413  1.00  0.00     0.042 A 
HETATM    5  C10 UNL     1      23.021   4.685  50.252  1.00  0.00     0.031 A 
HETATM    6  C11 UNL     1      22.406   3.542  50.658  1.00  0.00     0.121 A 
HETATM    7  O2  UNL     1      22.073   4.234  51.795  1.00  0.00    -0.317 OA
HETATM    8  C12 UNL     1      23.368   4.221  52.513  1.00  0.00     0.143 C 
HETATM    9  C13 UNL     1      24.518   3.440  52.089  1.00  0.00    -0.005 C 
HETATM   10  C14 UNL     1      24.614   2.497  53.227  1.00  0.00     0.053 C 
HETATM   11  C15 UNL     1      25.503   3.254  51.057  1.00  0.00    -0.044 C 
HETATM   12  C19 UNL     1      25.565   4.114  49.862  1.00  0.00    -0.064 C 
HETATM   13  C20 UNL     1      26.873   4.123  49.114  1.00  0.00     0.045 C 
HETATM   14  C21 UNL     1      24.215   4.757  49.788  1.00  0.00     0.014 A 
HETATM   15  C22 UNL     1      24.864   5.789  50.280  1.00  0.00    -0.036 A 
HETATM   16  C23 UNL     1      23.337   6.129  50.313  1.00  0.00     0.053 A 
ENDROOT
BRANCH   1  17
HETATM   17  C5  UNL     1      21.140   1.493  51.518  1.00  0.00    -0.027 A 
HETATM   18  C4  UNL     1      21.215   1.187  52.831  1.00  0.00     0.015 A 
HETATM   19  C3  UNL     1      20.289   0.418  53.497  1.00  0.00     0.037 A 
HETATM   20  C2  UNL     1      19.238  -0.053  52.761  1.00  0.00     0.068 A 
HETATM   21  C25 UNL     1      19.069   0.205  51.405  1.00  0.00     0.037 A 
HETATM   22  C24 UNL     1      20.050   0.996  50.790  1.00  0.00     0.015 A 
BRANCH  20  23
HETATM   23  O1  UNL     1      18.269  -0.834  53.373  1.00  0.00    -0.356 OA
HETATM   24  C1  UNL     1      17.106  -1.270  52.659  1.00  0.00     0.210 C 
ENDBRANCH  20  23
ENDBRANCH   1  17
BRANCH   8  25
HETATM   25  N1  UNL     1      23.561   4.997  53.692  1.00  0.00    -0.380 N 
HETATM   26  H8  UNL     1      24.544   5.371  53.758  1.00  0.00     0.158 HD
HETATM   27  H9  UNL     1      22.921   5.263  54.499  1.00  0.00     0.158 HD
ENDBRANCH   8  25
BRANCH  11  28
HETATM   28  C16 UNL     1      26.505   2.214  51.140  1.00  0.00     0.050 C 
BRANCH  28  29
HETATM   29  C17 UNL     1      27.510   2.341  52.250  1.00  0.00     0.114 C 
BRANCH  29  30
HETATM   30  C18 UNL     1      27.774   0.966  52.747  1.00  0.00     0.139 C 
HETATM   31  O3  UNL     1      28.796   0.690  53.446  1.00  0.00    -0.650 OA
BRANCH  30  32
HETATM   32  O4  UNL     1      27.568  -0.372  52.944  1.00  0.00    -0.776 OA
HETATM   33  H17 UNL     1      26.702  -0.804  52.665  1.00  0.00     0.167 HD
ENDBRANCH  30  32
ENDBRANCH  29  30
ENDBRANCH  28  29
ENDBRANCH  11  28
TORSDOF 7
ENDMDL
MODEL 5
REMARK VINA RESULT:      -7.5      1.951      4.162
REMARK  7 active torsions:
REMARK  status: ('A' for Active; 'I' for Inactive)
REMARK    1  A    between atoms: O1_2  and  C2_3 
REMARK    2  A    between atoms: C5_6  and  C6_7 
REMARK    3  A    between atoms: C12_14  and  N1_15 
REMARK    4  A    between atoms: C15_18  and  C16_19 
REMARK    5  A    between atoms: C16_19  and  C17_20 
REMARK    6  A    between atoms: C17_20  and  C18_21 
REMARK    7  A    between atoms: C18_21  and  O4_23 
ROOT
HETATM    1  C6  UNL     1      22.953   3.181  52.450  1.00  0.00    -0.011 A 
HETATM    2  C7  UNL     1      21.640   2.698  52.328  1.00  0.00     0.008 A 
HETATM    3  C8  UNL     1      20.634   3.571  51.803  1.00  0.00    -0.011 A 
HETATM    4  C9  UNL     1      21.361   4.653  51.604  1.00  0.00     0.042 A 
HETATM    5  C10 UNL     1      22.267   5.573  51.504  1.00  0.00     0.031 A 
HETATM    6  C11 UNL     1      22.837   4.441  51.998  1.00  0.00     0.121 A 
HETATM    7  O2  UNL     1      24.036   5.095  51.861  1.00  0.00    -0.317 OA
HETATM    8  C12 UNL     1      24.239   4.991  50.398  1.00  0.00     0.143 C 
HETATM    9  C13 UNL     1      23.408   4.179  49.524  1.00  0.00    -0.005 C 
HETATM   10  C14 UNL     1      24.411   3.182  49.083  1.00  0.00     0.053 C 
HETATM   11  C15 UNL     1      22.087   3.996  48.986  1.00  0.00    -0.044 C 
HETATM   12  C19 UNL     1      20.973   4.905  49.306  1.00  0.00    -0.064 C 
HETATM   13  C20 UNL     1      19.805   4.889  48.354  1.00  0.00     0.045 C 
HETATM   14  C21 UNL     1      21.407   5.611  50.553  1.00  0.00     0.014 A 
HETATM   15  C22 UNL     1      21.659   6.589  49.712  1.00  0.00    -0.036 A 
HETATM   16  C23 UNL     1      22.248   6.996  51.103  1.00  0.00     0.053 A 
ENDROOT
BRANCH   1  17
HETATM   17  C5  UNL     1      24.041   2.414  52.991  1.00  0.00    -0.027 A 
HETATM   18  C4  UNL     1      25.243   2.781  53.484  1.00  0.00     0.015 A 
HETATM   19  C3  UNL     1      26.182   1.896  53.961  1.00  0.00     0.037 A 
HETATM   20  C2  UNL     1      25.852   0.570  53.921  1.00  0.00     0.068 A 
HETATM   21  C25 UNL     1      24.642   0.091  53.433  1.00  0.00     0.037 A 
HETATM   22  C24 UNL     1      23.731   1.047  52.963  1.00  0.00     0.015 A 
BRANCH  20  23
HETATM   23  O1  UNL     1      26.755  -0.374  54.387  1.00  0.00    -0.356 OA
HETATM   24  C1  UNL     1      28.114  -0.023  54.677  1.00  0.00     0.210 C 
ENDBRANCH  20  23
ENDBRANCH   1  17
BRANCH   8  25
HETATM   25  N1  UNL     1      25.289   5.703  49.750  1.00  0.00    -0.380 N 
HETATM   26  H8  UNL     1      26.136   5.799  50.369  1.00  0.00     0.158 HD
HETATM   27  H9  UNL     1      25.378   6.146  48.787  1.00  0.00     0.158 HD
ENDBRANCH   8  25
BRANCH  11  28
HETATM   28  C16 UNL     1      21.777   2.908  48.084  1.00  0.00     0.050 C 
BRANCH  28  29
HETATM   29  C17 UNL     1      21.640   1.546  48.704  1.00  0.00     0.114 C 
BRANCH  29  30
HETATM   30  C18 UNL     1      20.211   1.389  49.081  1.00  0.00     0.139 C 
HETATM   31  O3  UNL     1      19.850   0.665  50.058  1.00  0.00    -0.650 OA
BRANCH  30  32
HETATM   32  O4  UNL     1      18.857   1.567  49.016  1.00  0.00    -0.776 OA
HETATM   33  H17 UNL     1      18.467   2.477  48.831  1.00  0.00     0.167 HD
ENDBRANCH  30  32
ENDBRANCH  29  30
ENDBRANCH  28  29
ENDBRANCH  11  28
TORSDOF 7
ENDMDL
MODEL 6
REMARK VINA RESULT:      -7.4      2.276      4.082
REMARK  7 active torsions:
REMARK  status: ('A' for Active; 'I' for Inactive)
REMARK    1  A    between atoms: O1_2  and  C2_3 
REMARK    2  A    between atoms: C5_6  and  C6_7 
REMARK    3  A    between atoms: C12_14  and  N1_15 
REMARK    4  A    between atoms: C15_18  and  C16_19 
REMARK    5  A    between atoms: C16_19  and  C17_20 
REMARK    6  A    between atoms: C17_20  and  C18_21 
REMARK    7  A    between atoms: C18_21  and  O4_23 
ROOT
HETATM    1  C6  UNL     1      23.704   3.071  51.478  1.00  0.00    -0.011 A 
HETATM    2  C7  UNL     1      22.904   3.782  52.387  1.00  0.00     0.008 A 
HETATM    3  C8  UNL     1      22.102   4.862  51.895  1.00  0.00    -0.011 A 
HETATM    4  C9  UNL     1      22.436   4.824  50.620  1.00  0.00     0.042 A 
HETATM    5  C10 UNL     1      22.916   4.592  49.440  1.00  0.00     0.031 A 
HETATM    6  C11 UNL     1      23.446   3.698  50.318  1.00  0.00     0.121 A 
HETATM    7  O2  UNL     1      23.993   3.083  49.220  1.00  0.00    -0.317 OA
HETATM    8  C12 UNL     1      22.805   2.390  48.674  1.00  0.00     0.143 C 
HETATM    9  C13 UNL     1      21.530   2.303  49.369  1.00  0.00    -0.005 C 
HETATM   10  C14 UNL     1      21.473   0.841  49.603  1.00  0.00     0.053 C 
HETATM   11  C15 UNL     1      20.410   3.047  49.878  1.00  0.00    -0.044 C 
HETATM   12  C19 UNL     1      20.296   4.508  49.717  1.00  0.00    -0.064 C 
HETATM   13  C20 UNL     1      18.915   5.089  49.868  1.00  0.00     0.045 C 
HETATM   14  C21 UNL     1      21.690   4.965  49.417  1.00  0.00     0.014 A 
HETATM   15  C22 UNL     1      21.226   5.027  48.188  1.00  0.00    -0.036 A 
HETATM   16  C23 UNL     1      22.773   5.249  48.123  1.00  0.00     0.053 A 
ENDROOT
BRANCH   1  17
HETATM   17  C5  UNL     1      24.574   1.991  51.853  1.00  0.00    -0.027 A 
HETATM   18  C4  UNL     1      25.865   1.731  51.558  1.00  0.00     0.015 A 
HETATM   19  C3  UNL     1      26.550   0.625  52.005  1.00  0.00     0.037 A 
HETATM   20  C2  UNL     1      25.857  -0.249  52.796  1.00  0.00     0.068 A 
HETATM   21  C25 UNL     1      24.525  -0.071  53.158  1.00  0.00     0.037 A 
HETATM   22  C24 UNL     1      23.889   1.077  52.667  1.00  0.00     0.015 A 
BRANCH  20  23
HETATM   23  O1  UNL     1      26.489  -1.384  53.281  1.00  0.00    -0.356 OA
HETATM   24  C1  UNL     1      27.033  -2.368  52.392  1.00  0.00     0.210 C 
ENDBRANCH  20  23
ENDBRANCH   1  17
BRANCH   8  25
HETATM   25  N1  UNL     1      22.847   1.753  47.400  1.00  0.00    -0.380 N 
HETATM   26  H8  UNL     1      22.587   2.415  46.623  1.00  0.00     0.158 HD
HETATM   27  H9  UNL     1      23.083   0.763  47.091  1.00  0.00     0.158 HD
ENDBRANCH   8  25
BRANCH  11  28
HETATM   28  C16 UNL     1      19.317   2.400  50.570  1.00  0.00     0.050 C 
BRANCH  28  29
HETATM   29  C17 UNL     1      19.459   2.261  52.059  1.00  0.00     0.114 C 
BRANCH  29  30
HETATM   30  C18 UNL     1      19.241   0.826  52.378  1.00  0.00     0.139 C 
HETATM   31  O3  UNL     1      20.191   0.067  52.742  1.00  0.00    -0.650 OA
BRANCH  30  32
HETATM   32  O4  UNL     1      18.554  -0.345  52.544  1.00  0.00    -0.776 OA
HETATM   33  H17 UNL     1      19.045  -1.215  52.661  1.00  0.00     0.167 HD
ENDBRANCH  30  32
ENDBRANCH  29  30
ENDBRANCH  28  29
ENDBRANCH  11  28
TORSDOF 7
ENDMDL
MODEL 7
REMARK VINA RESULT:      -7.4      3.064      5.085
REMARK  7 active torsions:
REMARK  status: ('A' for Active; 'I' for Inactive)
REMARK    1  A    between atoms: O1_2  and  C2_3 
REMARK    2  A    between atoms: C5_6  and  C6_7 
REMARK    3  A    between atoms: C12_14  and  N1_15 
REMARK    4  A    between atoms: C15_18  and  C16_19 
REMARK    5  A    between atoms: C16_19  and  C17_20 
REMARK    6  A    between atoms: C17_20  and  C18_21 
REMARK    7  A    between atoms: C18_21  and  O4_23 
ROOT
HETATM    1  C6  UNL     1      23.614   5.052  50.520  1.00  0.00    -0.011 A 
HETATM    2  C7  UNL     1      23.427   4.641  51.850  1.00  0.00     0.008 A 
HETATM    3  C8  UNL     1      22.095   4.596  52.374  1.00  0.00    -0.011 A 
HETATM    4  C9  UNL     1      21.427   5.014  51.317  1.00  0.00     0.042 A 
HETATM    5  C10 UNL     1      21.004   5.441  50.170  1.00  0.00     0.031 A 
HETATM    6  C11 UNL     1      22.357   5.308  50.122  1.00  0.00     0.121 A 
HETATM    7  O2  UNL     1      22.243   5.580  48.782  1.00  0.00    -0.317 OA
HETATM    8  C12 UNL     1      21.735   4.283  48.280  1.00  0.00     0.143 C 
HETATM    9  C13 UNL     1      21.656   3.080  49.092  1.00  0.00    -0.005 C 
HETATM   10  C14 UNL     1      22.642   2.233  48.382  1.00  0.00     0.053 C 
HETATM   11  C15 UNL     1      21.036   2.466  50.236  1.00  0.00    -0.044 C 
HETATM   12  C19 UNL     1      20.019   3.158  51.048  1.00  0.00    -0.064 C 
HETATM   13  C20 UNL     1      19.137   2.284  51.899  1.00  0.00     0.045 C 
HETATM   14  C21 UNL     1      20.199   4.609  50.723  1.00  0.00     0.014 A 
HETATM   15  C22 UNL     1      19.133   4.403  49.982  1.00  0.00    -0.036 A 
HETATM   16  C23 UNL     1      19.678   5.830  49.642  1.00  0.00     0.053 A 
ENDROOT
BRANCH   1  17
HETATM   17  C5  UNL     1      24.900   5.169  49.893  1.00  0.00    -0.027 A 
HETATM   18  C4  UNL     1      25.517   6.208  49.290  1.00  0.00     0.015 A 
HETATM   19  C3  UNL     1      26.769   6.138  48.725  1.00  0.00     0.037 A 
HETATM   20  C2  UNL     1      27.407   4.930  48.792  1.00  0.00     0.068 A 
HETATM   21  C25 UNL     1      26.858   3.801  49.390  1.00  0.00     0.037 A 
HETATM   22  C24 UNL     1      25.579   3.944  49.946  1.00  0.00     0.015 A 
BRANCH  20  23
HETATM   23  O1  UNL     1      28.672   4.793  48.241  1.00  0.00    -0.356 OA
HETATM   24  C1  UNL     1      29.522   5.930  48.041  1.00  0.00     0.210 C 
ENDBRANCH  20  23
ENDBRANCH   1  17
BRANCH   8  25
HETATM   25  N1  UNL     1      21.283   4.141  46.937  1.00  0.00    -0.380 N 
HETATM   26  H8  UNL     1      21.695   3.289  46.473  1.00  0.00     0.158 HD
HETATM   27  H9  UNL     1      20.629   4.717  46.327  1.00  0.00     0.158 HD
ENDBRANCH   8  25
BRANCH  11  28
HETATM   28  C16 UNL     1      21.368   1.121  50.651  1.00  0.00     0.050 C 
BRANCH  28  29
HETATM   29  C17 UNL     1      22.549   0.977  51.568  1.00  0.00     0.114 C 
BRANCH  29  30
HETATM   30  C18 UNL     1      22.047   0.344  52.816  1.00  0.00     0.139 C 
HETATM   31  O3  UNL     1      22.058  -0.914  52.982  1.00  0.00    -0.650 OA
BRANCH  30  32
HETATM   32  O4  UNL     1      21.505   0.270  54.069  1.00  0.00    -0.776 OA
HETATM   33  H17 UNL     1      22.082   0.056  54.866  1.00  0.00     0.167 HD
ENDBRANCH  30  32
ENDBRANCH  29  30
ENDBRANCH  28  29
ENDBRANCH  11  28
TORSDOF 7
ENDMDL
MODEL 8
REMARK VINA RESULT:      -7.3      8.331     10.333
REMARK  7 active torsions:
REMARK  status: ('A' for Active; 'I' for Inactive)
REMARK    1  A    between atoms: O1_2  and  C2_3 
REMARK    2  A    between atoms: C5_6  and  C6_7 
REMARK    3  A    between atoms: C12_14  and  N1_15 
REMARK    4  A    between atoms: C15_18  and  C16_19 
REMARK    5  A    between atoms: C16_19  and  C17_20 
REMARK    6  A    between atoms: C17_20  and  C18_21 
REMARK    7  A    between atoms: C18_21  and  O4_23 
ROOT
HETATM    1  C6  UNL     1      31.657   8.419  48.115  1.00  0.00    -0.011 A 
HETATM    2  C7  UNL     1      31.137   8.904  49.325  1.00  0.00     0.008 A 
HETATM    3  C8  UNL     1      30.726  10.275  49.395  1.00  0.00    -0.011 A 
HETATM    4  C9  UNL     1      31.021  10.657  48.168  1.00  0.00     0.042 A 
HETATM    5  C10 UNL     1      31.393  10.790  46.934  1.00  0.00     0.031 A 
HETATM    6  C11 UNL     1      31.609   9.506  47.327  1.00  0.00     0.121 A 
HETATM    7  O2  UNL     1      31.921   9.254  46.014  1.00  0.00    -0.317 OA
HETATM    8  C12 UNL     1      30.568   9.224  45.413  1.00  0.00     0.143 C 
HETATM    9  C13 UNL     1      29.339   9.244  46.189  1.00  0.00    -0.005 C 
HETATM   10  C14 UNL     1      28.813   7.900  45.857  1.00  0.00     0.053 C 
HETATM   11  C15 UNL     1      28.524  10.014  47.090  1.00  0.00    -0.044 C 
HETATM   12  C19 UNL     1      28.888  11.377  47.513  1.00  0.00    -0.064 C 
HETATM   13  C20 UNL     1      27.771  12.226  48.060  1.00  0.00     0.045 C 
HETATM   14  C21 UNL     1      30.353  11.484  47.222  1.00  0.00     0.014 A 
HETATM   15  C22 UNL     1      29.927  12.170  46.184  1.00  0.00    -0.036 A 
HETATM   16  C23 UNL     1      31.462  11.933  45.998  1.00  0.00     0.053 A 
ENDROOT
BRANCH   1  17
HETATM   17  C5  UNL     1      32.132   7.076  47.930  1.00  0.00    -0.027 A 
HETATM   18  C4  UNL     1      31.508   5.947  47.532  1.00  0.00     0.015 A 
HETATM   19  C3  UNL     1      32.127   4.724  47.417  1.00  0.00     0.037 A 
HETATM   20  C2  UNL     1      33.456   4.676  47.732  1.00  0.00     0.068 A 
HETATM   21  C25 UNL     1      34.189   5.781  48.152  1.00  0.00     0.037 A 
HETATM   22  C24 UNL     1      33.496   6.996  48.246  1.00  0.00     0.015 A 
BRANCH  20  23
HETATM   23  O1  UNL     1      34.140   3.473  47.637  1.00  0.00    -0.356 OA
HETATM   24  C1  UNL     1      35.031   3.209  46.547  1.00  0.00     0.210 C 
ENDBRANCH  20  23
ENDBRANCH   1  17
BRANCH   8  25
HETATM   25  N1  UNL     1      30.394   9.174  43.999  1.00  0.00    -0.380 N 
HETATM   26  H8  UNL     1      30.776  10.034  43.527  1.00  0.00     0.158 HD
HETATM   27  H9  UNL     1      29.962   8.453  43.347  1.00  0.00     0.158 HD
ENDBRANCH   8  25
BRANCH  11  28
HETATM   28  C16 UNL     1      27.285   9.495  47.626  1.00  0.00     0.050 C 
BRANCH  28  29
HETATM   29  C17 UNL     1      27.407   8.461  48.710  1.00  0.00     0.114 C 
BRANCH  29  30
HETATM   30  C18 UNL     1      27.272   9.180  50.004  1.00  0.00     0.139 C 
HETATM   31  O3  UNL     1      26.183   9.729  50.356  1.00  0.00    -0.650 OA
BRANCH  30  32
HETATM   32  O4  UNL     1      27.648   9.686  51.217  1.00  0.00    -0.776 OA
HETATM   33  H17 UNL     1      28.393   9.259  51.742  1.00  0.00     0.167 HD
ENDBRANCH  30  32
ENDBRANCH  29  30
ENDBRANCH  28  29
ENDBRANCH  11  28
TORSDOF 7
ENDMDL
MODEL 9
REMARK VINA RESULT:      -7.3      2.700      4.029
REMARK  7 active torsions:
REMARK  status: ('A' for Active; 'I' for Inactive)
REMARK    1  A    between atoms: O1_2  and  C2_3 
REMARK    2  A    between atoms: C5_6  and  C6_7 
REMARK    3  A    between atoms: C12_14  and  N1_15 
REMARK    4  A    between atoms: C15_18  and  C16_19 
REMARK    5  A    between atoms: C16_19  and  C17_20 
REMARK    6  A    between atoms: C17_20  and  C18_21 
REMARK    7  A    between atoms: C18_21  and  O4_23 
ROOT
HETATM    1  C6  UNL     1      22.881   3.529  51.406  1.00  0.00    -0.011 A 
HETATM    2  C7  UNL     1      22.028   4.449  52.037  1.00  0.00     0.008 A 
HETATM    3  C8  UNL     1      21.482   5.523  51.261  1.00  0.00    -0.011 A 
HETATM    4  C9  UNL     1      22.039   5.259  50.095  1.00  0.00     0.042 A 
HETATM    5  C10 UNL     1      22.694   4.803  49.076  1.00  0.00     0.031 A 
HETATM    6  C11 UNL     1      22.928   4.000  50.149  1.00  0.00     0.121 A 
HETATM    7  O2  UNL     1      23.582   3.173  49.270  1.00  0.00    -0.317 OA
HETATM    8  C12 UNL     1      22.434   2.535  48.587  1.00  0.00     0.143 C 
HETATM    9  C13 UNL     1      21.053   2.689  49.015  1.00  0.00    -0.005 C 
HETATM   10  C14 UNL     1      20.760   1.294  49.415  1.00  0.00     0.053 C 
HETATM   11  C15 UNL     1      19.967   3.616  49.189  1.00  0.00    -0.044 C 
HETATM   12  C19 UNL     1      20.080   5.039  48.825  1.00  0.00    -0.064 C 
HETATM   13  C20 UNL     1      18.785   5.780  48.620  1.00  0.00     0.045 C 
HETATM   14  C21 UNL     1      21.554   5.297  48.758  1.00  0.00     0.014 A 
HETATM   15  C22 UNL     1      21.338   5.222  47.463  1.00  0.00    -0.036 A 
HETATM   16  C23 UNL     1      22.887   5.267  47.685  1.00  0.00     0.053 A 
ENDROOT
BRANCH   1  17
HETATM   17  C5  UNL     1      23.514   2.432  52.083  1.00  0.00    -0.027 A 
HETATM   18  C4  UNL     1      23.173   1.131  52.204  1.00  0.00     0.015 A 
HETATM   19  C3  UNL     1      23.905   0.205  52.909  1.00  0.00     0.037 A 
HETATM   20  C2  UNL     1      25.045   0.656  53.515  1.00  0.00     0.068 A 
HETATM   21  C25 UNL     1      25.483   1.974  53.450  1.00  0.00     0.037 A 
HETATM   22  C24 UNL     1      24.688   2.864  52.714  1.00  0.00     0.015 A 
BRANCH  20  23
HETATM   23  O1  UNL     1      25.830  -0.228  54.242  1.00  0.00    -0.356 OA
HETATM   24  C1  UNL     1      27.079   0.183  54.810  1.00  0.00     0.210 C 
ENDBRANCH  20  23
ENDBRANCH   1  17
BRANCH   8  25
HETATM   25  N1  UNL     1      22.627   1.715  47.438  1.00  0.00    -0.380 N 
HETATM   26  H8  UNL     1      21.980   1.983  46.652  1.00  0.00     0.158 HD
HETATM   27  H9  UNL     1      23.281   0.902  47.229  1.00  0.00     0.158 HD
ENDBRANCH   8  25
BRANCH  11  28
HETATM   28  C16 UNL     1      18.689   3.199  49.722  1.00  0.00     0.050 C 
BRANCH  28  29
HETATM   29  C17 UNL     1      18.479   3.410  51.194  1.00  0.00     0.114 C 
BRANCH  29  30
HETATM   30  C18 UNL     1      17.143   4.044  51.349  1.00  0.00     0.139 C 
HETATM   31  O3  UNL     1      16.583   4.161  52.482  1.00  0.00    -0.650 OA
BRANCH  30  32
HETATM   32  O4  UNL     1      15.984   4.665  50.972  1.00  0.00    -0.776 OA
HETATM   33  H17 UNL     1      15.368   5.063  51.662  1.00  0.00     0.167 HD
ENDBRANCH  30  32
ENDBRANCH  29  30
ENDBRANCH  28  29
ENDBRANCH  11  28
TORSDOF 7
ENDMDL
