MODEL 1
REMARK VINA RESULT:      -7.1      0.000      0.000
REMARK  2 active torsions:
REMARK  status: ('A' for Active; 'I' for Inactive)
REMARK    1  A    between atoms: O1_1  and  C1_2 
REMARK    2  A    between atoms: C1_2  and  C2_3 
ROOT
HETATM    1  C2  UNL     1      25.223   3.689  50.682  1.00  0.00     0.054 C 
HETATM    2  C3  UNL     1      24.820   4.765  49.798  1.00  0.00     0.025 C 
HETATM    3  C4  UNL     1      24.683   5.660  48.821  1.00  0.00    -0.021 C 
HETATM    4  C5  UNL     1      23.514   6.439  49.219  1.00  0.00    -0.007 C 
HETATM    5  C6  UNL     1      22.572   6.448  50.208  1.00  0.00    -0.016 C 
HETATM    6  C7  UNL     1      22.761   5.339  51.124  1.00  0.00     0.059 C 
HETATM    7  C8  UNL     1      22.362   4.651  52.228  1.00  0.00     0.075 C 
HETATM    8  N1  UNL     1      23.408   3.654  52.103  1.00  0.00    -0.338 N 
HETATM    9  C9  UNL     1      24.223   3.232  53.221  1.00  0.00     0.205 C 
HETATM   10  N2  UNL     1      24.784   2.055  53.051  1.00  0.00    -0.266 NA
HETATM   11  C10 UNL     1      24.351   1.612  51.773  1.00  0.00     0.208 C 
HETATM   12  S1  UNL     1      22.588   1.019  51.876  1.00  0.00    -0.103 SA
HETATM   13  C11 UNL     1      22.259   1.519  50.152  1.00  0.00    -0.015 C 
HETATM   14  C12 UNL     1      23.162   2.531  49.904  1.00  0.00    -0.035 C 
HETATM   15  C13 UNL     1      22.919   2.983  48.468  1.00  0.00     0.038 C 
HETATM   16  C14 UNL     1      22.250   1.780  47.816  1.00  0.00     0.009 C 
HETATM   17  C15 UNL     1      21.388   1.262  48.956  1.00  0.00     0.046 C 
HETATM   18  C16 UNL     1      24.026   2.863  51.018  1.00  0.00     0.100 C 
ENDROOT
BRANCH   1  19
HETATM   19  C1  UNL     1      26.470   2.918  50.448  1.00  0.00     0.172 C 
BRANCH  19  20
HETATM   20  O1  UNL     1      27.431   3.044  51.456  1.00  0.00    -0.400 OA
HETATM   21  H1  UNL     1      27.667   4.023  51.576  1.00  0.00     0.209 HD
ENDBRANCH  19  20
ENDBRANCH   1  19
TORSDOF 2
ENDMDL
MODEL 2
REMARK VINA RESULT:      -6.8      8.498     10.683
REMARK  2 active torsions:
REMARK  status: ('A' for Active; 'I' for Inactive)
REMARK    1  A    between atoms: O1_1  and  C1_2 
REMARK    2  A    between atoms: C1_2  and  C2_3 
ROOT
HETATM    1  C2  UNL     1      31.394   5.314  47.908  1.00  0.00     0.054 C 
HETATM    2  C3  UNL     1      32.071   4.116  47.451  1.00  0.00     0.025 C 
HETATM    3  C4  UNL     1      32.420   2.939  46.935  1.00  0.00    -0.021 C 
HETATM    4  C5  UNL     1      33.856   2.859  47.178  1.00  0.00    -0.007 C 
HETATM    5  C6  UNL     1      34.857   3.634  47.692  1.00  0.00    -0.016 C 
HETATM    6  C7  UNL     1      34.362   4.938  48.088  1.00  0.00     0.059 C 
HETATM    7  C8  UNL     1      34.600   6.173  48.609  1.00  0.00     0.075 C 
HETATM    8  N1  UNL     1      33.221   6.604  48.466  1.00  0.00    -0.338 N 
HETATM    9  C9  UNL     1      32.497   7.268  49.527  1.00  0.00     0.205 C 
HETATM   10  N2  UNL     1      31.465   7.966  49.106  1.00  0.00    -0.266 NA
HETATM   11  C10 UNL     1      31.454   7.807  47.694  1.00  0.00     0.208 C 
HETATM   12  S1  UNL     1      32.783   8.865  46.930  1.00  0.00    -0.103 SA
HETATM   13  C11 UNL     1      33.011   7.686  45.556  1.00  0.00    -0.015 C 
HETATM   14  C12 UNL     1      32.603   6.473  46.067  1.00  0.00    -0.035 C 
HETATM   15  C13 UNL     1      32.781   5.453  44.947  1.00  0.00     0.038 C 
HETATM   16  C14 UNL     1      32.754   6.296  43.679  1.00  0.00     0.009 C 
HETATM   17  C15 UNL     1      33.482   7.549  44.137  1.00  0.00     0.046 C 
HETATM   18  C16 UNL     1      32.158   6.510  47.444  1.00  0.00     0.100 C 
ENDROOT
BRANCH   1  19
HETATM   19  C1  UNL     1      29.917   5.447  47.834  1.00  0.00     0.172 C 
BRANCH  19  20
HETATM   20  O1  UNL     1      29.274   5.509  49.074  1.00  0.00    -0.400 OA
HETATM   21  H1  UNL     1      29.030   4.571  49.374  1.00  0.00     0.209 HD
ENDBRANCH  19  20
ENDBRANCH   1  19
TORSDOF 2
ENDMDL
MODEL 3
REMARK VINA RESULT:      -6.6      2.705      4.688
REMARK  2 active torsions:
REMARK  status: ('A' for Active; 'I' for Inactive)
REMARK    1  A    between atoms: O1_1  and  C1_2 
REMARK    2  A    between atoms: C1_2  and  C2_3 
ROOT
HETATM    1  C2  UNL     1      22.835   2.878  49.562  1.00  0.00     0.054 C 
HETATM    2  C3  UNL     1      23.569   2.318  50.680  1.00  0.00     0.025 C 
HETATM    3  C4  UNL     1      24.285   1.574  51.520  1.00  0.00    -0.021 C 
HETATM    4  C5  UNL     1      24.376   2.392  52.725  1.00  0.00    -0.007 C 
HETATM    5  C6  UNL     1      24.007   3.636  53.155  1.00  0.00    -0.016 C 
HETATM    6  C7  UNL     1      23.360   4.387  52.096  1.00  0.00     0.059 C 
HETATM    7  C8  UNL     1      22.762   5.533  51.671  1.00  0.00     0.075 C 
HETATM    8  N1  UNL     1      22.545   5.033  50.326  1.00  0.00    -0.338 N 
HETATM    9  C9  UNL     1      21.279   5.164  49.639  1.00  0.00     0.205 C 
HETATM   10  N2  UNL     1      21.377   5.076  48.330  1.00  0.00    -0.266 NA
HETATM   11  C10 UNL     1      22.759   4.884  48.067  1.00  0.00     0.208 C 
HETATM   12  S1  UNL     1      23.667   6.499  48.263  1.00  0.00    -0.103 SA
HETATM   13  C11 UNL     1      25.188   5.646  48.800  1.00  0.00    -0.015 C 
HETATM   14  C12 UNL     1      24.747   4.455  49.339  1.00  0.00    -0.035 C 
HETATM   15  C13 UNL     1      25.991   3.707  49.806  1.00  0.00     0.038 C 
HETATM   16  C14 UNL     1      27.113   4.308  48.969  1.00  0.00     0.009 C 
HETATM   17  C15 UNL     1      26.682   5.764  48.891  1.00  0.00     0.046 C 
HETATM   18  C16 UNL     1      23.311   4.272  49.317  1.00  0.00     0.100 C 
ENDROOT
BRANCH   1  19
HETATM   19  C1  UNL     1      22.564   2.084  48.336  1.00  0.00     0.172 C 
BRANCH  19  20
HETATM   20  O1  UNL     1      21.212   1.828  48.094  1.00  0.00    -0.400 OA
HETATM   21  H1  UNL     1      20.847   2.524  47.453  1.00  0.00     0.209 HD
ENDBRANCH  19  20
ENDBRANCH   1  19
TORSDOF 2
ENDMDL
MODEL 4
REMARK VINA RESULT:      -6.5      8.966     10.863
REMARK  2 active torsions:
REMARK  status: ('A' for Active; 'I' for Inactive)
REMARK    1  A    between atoms: O1_1  and  C1_2 
REMARK    2  A    between atoms: C1_2  and  C2_3 
ROOT
HETATM    1  C2  UNL     1      33.947   5.589  48.583  1.00  0.00     0.054 C 
HETATM    2  C3  UNL     1      32.827   6.475  48.832  1.00  0.00     0.025 C 
HETATM    3  C4  UNL     1      32.009   7.467  49.179  1.00  0.00    -0.021 C 
HETATM    4  C5  UNL     1      30.695   7.012  48.735  1.00  0.00    -0.007 C 
HETATM    5  C6  UNL     1      30.145   5.959  48.060  1.00  0.00    -0.016 C 
HETATM    6  C7  UNL     1      31.165   5.026  47.621  1.00  0.00     0.059 C 
HETATM    7  C8  UNL     1      31.500   3.875  46.977  1.00  0.00     0.075 C 
HETATM    8  N1  UNL     1      32.921   4.043  47.214  1.00  0.00    -0.338 N 
HETATM    9  C9  UNL     1      33.764   2.973  47.701  1.00  0.00     0.205 C 
HETATM   10  N2  UNL     1      35.041   3.146  47.439  1.00  0.00    -0.266 NA
HETATM   11  C10 UNL     1      35.118   4.376  46.733  1.00  0.00     0.208 C 
HETATM   12  S1  UNL     1      34.549   4.130  44.976  1.00  0.00    -0.103 SA
HETATM   13  C11 UNL     1      33.922   5.841  44.879  1.00  0.00    -0.015 C 
HETATM   14  C12 UNL     1      33.640   6.183  46.185  1.00  0.00    -0.035 C 
HETATM   15  C13 UNL     1      33.108   7.611  46.151  1.00  0.00     0.038 C 
HETATM   16  C14 UNL     1      33.666   8.177  44.851  1.00  0.00     0.009 C 
HETATM   17  C15 UNL     1      33.591   6.964  43.939  1.00  0.00     0.046 C 
HETATM   18  C16 UNL     1      33.905   5.144  47.158  1.00  0.00     0.100 C 
ENDROOT
BRANCH   1  19
HETATM   19  C1  UNL     1      35.303   5.886  49.107  1.00  0.00     0.172 C 
BRANCH  19  20
HETATM   20  O1  UNL     1      35.781   4.966  50.045  1.00  0.00    -0.400 OA
HETATM   21  H1  UNL     1      35.526   4.028  49.756  1.00  0.00     0.209 HD
ENDBRANCH  19  20
ENDBRANCH   1  19
TORSDOF 2
ENDMDL
MODEL 5
REMARK VINA RESULT:      -6.5      5.939      7.933
REMARK  2 active torsions:
REMARK  status: ('A' for Active; 'I' for Inactive)
REMARK    1  A    between atoms: O1_1  and  C1_2 
REMARK    2  A    between atoms: C1_2  and  C2_3 
ROOT
HETATM    1  C2  UNL     1      28.119   8.434  49.359  1.00  0.00     0.054 C 
HETATM    2  C3  UNL     1      27.038   7.470  49.421  1.00  0.00     0.025 C 
HETATM    3  C4  UNL     1      25.886   6.820  49.575  1.00  0.00    -0.021 C 
HETATM    4  C5  UNL     1      26.192   5.457  49.153  1.00  0.00    -0.007 C 
HETATM    5  C6  UNL     1      27.238   4.753  48.628  1.00  0.00    -0.016 C 
HETATM    6  C7  UNL     1      28.380   5.613  48.383  1.00  0.00     0.059 C 
HETATM    7  C8  UNL     1      29.658   5.765  47.940  1.00  0.00     0.075 C 
HETATM    8  N1  UNL     1      29.682   7.191  48.207  1.00  0.00    -0.338 N 
HETATM    9  C9  UNL     1      30.780   7.840  48.889  1.00  0.00     0.205 C 
HETATM   10  N2  UNL     1      30.857   9.132  48.657  1.00  0.00    -0.266 NA
HETATM   11  C10 UNL     1      29.784   9.420  47.771  1.00  0.00     0.208 C 
HETATM   12  S1  UNL     1      30.215   8.846  46.052  1.00  0.00    -0.103 SA
HETATM   13  C11 UNL     1      28.464   8.509  45.664  1.00  0.00    -0.015 C 
HETATM   14  C12 UNL     1      27.877   8.266  46.888  1.00  0.00    -0.035 C 
HETATM   15  C13 UNL     1      26.406   7.976  46.609  1.00  0.00     0.038 C 
HETATM   16  C14 UNL     1      26.152   8.639  45.262  1.00  0.00     0.009 C 
HETATM   17  C15 UNL     1      27.469   8.380  44.547  1.00  0.00     0.046 C 
HETATM   18  C16 UNL     1      28.775   8.343  48.021  1.00  0.00     0.100 C 
ENDROOT
BRANCH   1  19
HETATM   19  C1  UNL     1      27.961   9.813  49.886  1.00  0.00     0.172 C 
BRANCH  19  20
HETATM   20  O1  UNL     1      27.437   9.886  51.180  1.00  0.00    -0.400 OA
HETATM   21  H1  UNL     1      26.687   9.210  51.278  1.00  0.00     0.209 HD
ENDBRANCH  19  20
ENDBRANCH   1  19
TORSDOF 2
ENDMDL
MODEL 6
REMARK VINA RESULT:      -6.1      9.434     11.342
REMARK  2 active torsions:
REMARK  status: ('A' for Active; 'I' for Inactive)
REMARK    1  A    between atoms: O1_1  and  C1_2 
REMARK    2  A    between atoms: C1_2  and  C2_3 
ROOT
HETATM    1  C2  UNL     1      34.678   6.128  47.563  1.00  0.00     0.054 C 
HETATM    2  C3  UNL     1      34.359   4.961  46.765  1.00  0.00     0.025 C 
HETATM    3  C4  UNL     1      34.124   3.740  46.286  1.00  0.00    -0.021 C 
HETATM    4  C5  UNL     1      33.737   3.975  44.898  1.00  0.00    -0.007 C 
HETATM    5  C6  UNL     1      33.510   5.028  44.057  1.00  0.00    -0.016 C 
HETATM    6  C7  UNL     1      33.667   6.294  44.747  1.00  0.00     0.059 C 
HETATM    7  C8  UNL     1      33.636   7.654  44.719  1.00  0.00     0.075 C 
HETATM    8  N1  UNL     1      33.977   7.787  46.123  1.00  0.00    -0.338 N 
HETATM    9  C9  UNL     1      34.992   8.702  46.597  1.00  0.00     0.205 C 
HETATM   10  N2  UNL     1      34.866   9.017  47.868  1.00  0.00    -0.266 NA
HETATM   11  C10 UNL     1      33.718   8.313  48.319  1.00  0.00     0.208 C 
HETATM   12  S1  UNL     1      32.177   9.165  47.712  1.00  0.00    -0.103 SA
HETATM   13  C11 UNL     1      31.265   7.587  47.636  1.00  0.00    -0.015 C 
HETATM   14  C12 UNL     1      32.241   6.628  47.465  1.00  0.00    -0.035 C 
HETATM   15  C13 UNL     1      31.520   5.287  47.393  1.00  0.00     0.038 C 
HETATM   16  C14 UNL     1      30.198   5.546  48.104  1.00  0.00     0.009 C 
HETATM   17  C15 UNL     1      29.896   6.970  47.667  1.00  0.00     0.046 C 
HETATM   18  C16 UNL     1      33.594   7.141  47.395  1.00  0.00     0.100 C 
ENDROOT
BRANCH   1  19
HETATM   19  C1  UNL     1      35.210   6.003  48.943  1.00  0.00     0.172 C 
BRANCH  19  20
HETATM   20  O1  UNL     1      35.368   4.688  49.390  1.00  0.00    -0.400 OA
HETATM   21  H1  UNL     1      36.357   4.471  49.454  1.00  0.00     0.209 HD
ENDBRANCH  19  20
ENDBRANCH   1  19
TORSDOF 2
ENDMDL
MODEL 7
REMARK VINA RESULT:      -6.1      6.203      8.070
REMARK  2 active torsions:
REMARK  status: ('A' for Active; 'I' for Inactive)
REMARK    1  A    between atoms: O1_1  and  C1_2 
REMARK    2  A    between atoms: C1_2  and  C2_3 
ROOT
HETATM    1  C2  UNL     1      29.695   9.369  48.333  1.00  0.00     0.054 C 
HETATM    2  C3  UNL     1      30.259   8.745  47.152  1.00  0.00     0.025 C 
HETATM    3  C4  UNL     1      31.009   8.116  46.249  1.00  0.00    -0.021 C 
HETATM    4  C5  UNL     1      30.186   8.118  45.044  1.00  0.00    -0.007 C 
HETATM    5  C6  UNL     1      28.934   8.504  44.654  1.00  0.00    -0.016 C 
HETATM    6  C7  UNL     1      28.179   9.045  45.768  1.00  0.00     0.059 C 
HETATM    7  C8  UNL     1      27.027   9.586  46.250  1.00  0.00     0.075 C 
HETATM    8  N1  UNL     1      27.531   9.692  47.606  1.00  0.00    -0.338 N 
HETATM    9  C9  UNL     1      27.385  10.890  48.403  1.00  0.00     0.205 C 
HETATM   10  N2  UNL     1      27.483  10.680  49.697  1.00  0.00    -0.266 NA
HETATM   11  C10 UNL     1      27.696   9.283  49.837  1.00  0.00     0.208 C 
HETATM   12  S1  UNL     1      26.093   8.371  49.570  1.00  0.00    -0.103 SA
HETATM   13  C11 UNL     1      26.966   6.917  48.897  1.00  0.00    -0.015 C 
HETATM   14  C12 UNL     1      28.147   7.421  48.394  1.00  0.00    -0.035 C 
HETATM   15  C13 UNL     1      28.910   6.234  47.817  1.00  0.00     0.038 C 
HETATM   16  C14 UNL     1      28.331   5.034  48.554  1.00  0.00     0.009 C 
HETATM   17  C15 UNL     1      26.870   5.435  48.676  1.00  0.00     0.046 C 
HETATM   18  C16 UNL     1      28.310   8.852  48.541  1.00  0.00     0.100 C 
ENDROOT
BRANCH   1  19
HETATM   19  C1  UNL     1      30.491   9.543  49.574  1.00  0.00     0.172 C 
BRANCH  19  20
HETATM   20  O1  UNL     1      30.684  10.872  49.962  1.00  0.00    -0.400 OA
HETATM   21  H1  UNL     1      31.677  11.081  49.962  1.00  0.00     0.209 HD
ENDBRANCH  19  20
ENDBRANCH   1  19
TORSDOF 2
ENDMDL
MODEL 8
REMARK VINA RESULT:      -6.0      9.452     11.533
REMARK  2 active torsions:
REMARK  status: ('A' for Active; 'I' for Inactive)
REMARK    1  A    between atoms: O1_1  and  C1_2 
REMARK    2  A    between atoms: C1_2  and  C2_3 
ROOT
HETATM    1  C2  UNL     1      34.572   7.190  47.254  1.00  0.00     0.054 C 
HETATM    2  C3  UNL     1      34.780   5.868  47.812  1.00  0.00     0.025 C 
HETATM    3  C4  UNL     1      35.040   4.806  48.573  1.00  0.00    -0.021 C 
HETATM    4  C5  UNL     1      34.799   3.671  47.689  1.00  0.00    -0.007 C 
HETATM    5  C6  UNL     1      34.354   3.432  46.418  1.00  0.00    -0.016 C 
HETATM    6  C7  UNL     1      33.977   4.665  45.753  1.00  0.00     0.059 C 
HETATM    7  C8  UNL     1      33.496   5.301  44.651  1.00  0.00     0.075 C 
HETATM    8  N1  UNL     1      33.569   6.616  45.259  1.00  0.00    -0.338 N 
HETATM    9  C9  UNL     1      34.139   7.759  44.582  1.00  0.00     0.205 C 
HETATM   10  N2  UNL     1      33.735   8.914  45.063  1.00  0.00    -0.266 NA
HETATM   11  C10 UNL     1      32.838   8.591  46.115  1.00  0.00     0.208 C 
HETATM   12  S1  UNL     1      31.204   8.047  45.405  1.00  0.00    -0.103 SA
HETATM   13  C11 UNL     1      30.894   6.935  46.818  1.00  0.00    -0.015 C 
HETATM   14  C12 UNL     1      32.149   6.619  47.293  1.00  0.00    -0.035 C 
HETATM   15  C13 UNL     1      31.938   5.684  48.479  1.00  0.00     0.038 C 
HETATM   16  C14 UNL     1      30.518   5.992  48.937  1.00  0.00     0.009 C 
HETATM   17  C15 UNL     1      29.822   6.244  47.610  1.00  0.00     0.046 C 
HETATM   18  C16 UNL     1      33.247   7.223  46.567  1.00  0.00     0.100 C 
ENDROOT
BRANCH   1  19
HETATM   19  C1  UNL     1      34.913   8.417  48.017  1.00  0.00     0.172 C 
BRANCH  19  20
HETATM   20  O1  UNL     1      36.194   8.419  48.576  1.00  0.00    -0.400 OA
HETATM   21  H1  UNL     1      36.126   8.261  49.575  1.00  0.00     0.209 HD
ENDBRANCH  19  20
ENDBRANCH   1  19
TORSDOF 2
ENDMDL
MODEL 9
REMARK VINA RESULT:      -5.9      8.693     10.735
REMARK  2 active torsions:
REMARK  status: ('A' for Active; 'I' for Inactive)
REMARK    1  A    between atoms: O1_1  and  C1_2 
REMARK    2  A    between atoms: C1_2  and  C2_3 
ROOT
HETATM    1  C2  UNL     1      31.276   9.271  48.291  1.00  0.00     0.054 C 
HETATM    2  C3  UNL     1      32.152  10.159  47.553  1.00  0.00     0.025 C 
HETATM    3  C4  UNL     1      32.991  11.109  47.142  1.00  0.00    -0.021 C 
HETATM    4  C5  UNL     1      33.168  10.831  45.720  1.00  0.00    -0.007 C 
HETATM    5  C6  UNL     1      32.783   9.898  44.799  1.00  0.00    -0.016 C 
HETATM    6  C7  UNL     1      31.990   8.850  45.411  1.00  0.00     0.059 C 
HETATM    7  C8  UNL     1      31.292   7.688  45.291  1.00  0.00     0.075 C 
HETATM    8  N1  UNL     1      30.959   7.630  46.702  1.00  0.00    -0.338 N 
HETATM    9  C9  UNL     1      29.622   7.352  47.179  1.00  0.00     0.205 C 
HETATM   10  N2  UNL     1      29.584   6.905  48.415  1.00  0.00    -0.266 NA
HETATM   11  C10 UNL     1      30.939   6.851  48.838  1.00  0.00     0.208 C 
HETATM   12  S1  UNL     1      31.778   5.372  48.078  1.00  0.00    -0.103 SA
HETATM   13  C11 UNL     1      33.390   6.229  48.049  1.00  0.00    -0.015 C 
HETATM   14  C12 UNL     1      33.070   7.569  48.004  1.00  0.00    -0.035 C 
HETATM   15  C13 UNL     1      34.393   8.327  47.976  1.00  0.00     0.038 C 
HETATM   16  C14 UNL     1      35.388   7.345  48.582  1.00  0.00     0.009 C 
HETATM   17  C15 UNL     1      34.877   6.023  48.034  1.00  0.00     0.046 C 
HETATM   18  C16 UNL     1      31.651   7.857  47.988  1.00  0.00     0.100 C 
ENDROOT
BRANCH   1  19
HETATM   19  C1  UNL     1      30.917   9.534  49.707  1.00  0.00     0.172 C 
BRANCH  19  20
HETATM   20  O1  UNL     1      29.546   9.659  49.949  1.00  0.00    -0.400 OA
HETATM   21  H1  UNL     1      29.189  10.466  49.449  1.00  0.00     0.209 HD
ENDBRANCH  19  20
ENDBRANCH   1  19
TORSDOF 2
ENDMDL
