MODEL 1
REMARK VINA RESULT:      -6.6      0.000      0.000
REMARK  10 active torsions:
REMARK  status: ('A' for Active; 'I' for Inactive)
REMARK    1  A    between atoms: C2_2  and  N1_3 
REMARK    2  A    between atoms: N1_3  and  C3_4 
REMARK    3  A    between atoms: C3_4  and  O1_5 
REMARK    4  A    between atoms: O1_5  and  C4_6 
REMARK    5  A    between atoms: C7_9  and  C8_10 
REMARK    6  A    between atoms: C8_10  and  C9_11 
REMARK    7  A    between atoms: C9_11  and  N2_12 
REMARK    8  A    between atoms: N2_12  and  C10_13 
REMARK    9  A    between atoms: C10_13  and  O2_14 
REMARK   10  A    between atoms: C15_21  and  O3_22 
ROOT
HETATM    1  C4  UNL     1      26.401   1.456  52.177  1.00  0.00     0.105 A 
HETATM    2  C5  UNL     1      25.146   0.972  52.458  1.00  0.00     0.055 A 
HETATM    3  C6  UNL     1      24.797   0.170  53.512  1.00  0.00     0.020 A 
HETATM    4  C7  UNL     1      23.474  -0.207  53.604  1.00  0.00     0.050 A 
HETATM    5  N3  UNL     1      23.195  -1.009  54.665  1.00  0.00    -0.246 NA
HETATM    6  C12 UNL     1      24.147  -1.397  55.550  1.00  0.00     0.234 A 
HETATM    7  N4  UNL     1      25.438  -0.999  55.422  1.00  0.00    -0.241 NA
HETATM    8  C13 UNL     1      25.787  -0.203  54.392  1.00  0.00     0.073 A 
HETATM    9  C14 UNL     1      27.079   0.244  54.177  1.00  0.00     0.072 A 
HETATM   10  C15 UNL     1      27.391   1.065  53.084  1.00  0.00     0.103 A 
ENDROOT
BRANCH   4  11
HETATM   11  C8  UNL     1      22.378   0.187  52.717  1.00  0.00     0.090 C 
BRANCH  11  12
HETATM   12  C9  UNL     1      21.255   0.935  53.418  1.00  0.00     0.278 C 
BRANCH  12  13
HETATM   13  N2  UNL     1      20.472   0.092  54.254  1.00  0.00     0.106 N 
HETATM   14  H14 UNL     1      20.966  -0.318  55.054  1.00  0.00     0.318 HD
BRANCH  13  15
HETATM   15  C10 UNL     1      19.849  -0.951  53.498  1.00  0.00     0.437 C 
BRANCH  15  16
HETATM   16  O2  UNL     1      18.543  -0.767  53.226  1.00  0.00    -0.368 OA
HETATM   17  C11 UNL     1      18.126  -0.264  52.043  1.00  0.00     0.203 C 
ENDBRANCH  15  16
ENDBRANCH  13  15
ENDBRANCH  12  13
ENDBRANCH  11  12
ENDBRANCH   4  11
BRANCH   1  18
HETATM   18  O1  UNL     1      26.946   2.244  51.215  1.00  0.00    -0.319 OA
BRANCH  18  19
HETATM   19  C3  UNL     1      26.326   2.964  50.210  1.00  0.00     0.444 C 
BRANCH  19  20
HETATM   20  N1  UNL     1      26.064   4.352  50.509  1.00  0.00     0.106 N 
HETATM   21  H6  UNL     1      25.067   4.488  50.727  1.00  0.00     0.318 HD
BRANCH  20  22
HETATM   22  C2  UNL     1      26.255   5.055  49.226  1.00  0.00     0.268 C 
HETATM   23  C1  UNL     1      27.610   4.757  48.677  1.00  0.00     0.037 C 
ENDBRANCH  20  22
ENDBRANCH  19  20
ENDBRANCH  18  19
ENDBRANCH   1  18
BRANCH  10  24
HETATM   24  O3  UNL     1      28.745   1.430  53.011  1.00  0.00    -0.353 OA
HETATM   25  C16 UNL     1      29.722   0.691  53.694  1.00  0.00     0.210 C 
ENDBRANCH  10  24
TORSDOF 10
ENDMDL
MODEL 2
REMARK VINA RESULT:      -6.5      1.870      2.492
REMARK  10 active torsions:
REMARK  status: ('A' for Active; 'I' for Inactive)
REMARK    1  A    between atoms: C2_2  and  N1_3 
REMARK    2  A    between atoms: N1_3  and  C3_4 
REMARK    3  A    between atoms: C3_4  and  O1_5 
REMARK    4  A    between atoms: O1_5  and  C4_6 
REMARK    5  A    between atoms: C7_9  and  C8_10 
REMARK    6  A    between atoms: C8_10  and  C9_11 
REMARK    7  A    between atoms: C9_11  and  N2_12 
REMARK    8  A    between atoms: N2_12  and  C10_13 
REMARK    9  A    between atoms: C10_13  and  O2_14 
REMARK   10  A    between atoms: C15_21  and  O3_22 
ROOT
HETATM    1  C4  UNL     1      26.400   1.447  52.107  1.00  0.00     0.105 A 
HETATM    2  C5  UNL     1      25.126   0.978  52.317  1.00  0.00     0.055 A 
HETATM    3  C6  UNL     1      24.706   0.189  53.356  1.00  0.00     0.020 A 
HETATM    4  C7  UNL     1      23.376  -0.174  53.373  1.00  0.00     0.050 A 
HETATM    5  N3  UNL     1      23.027  -0.964  54.421  1.00  0.00    -0.246 NA
HETATM    6  C12 UNL     1      23.921  -1.353  55.365  1.00  0.00     0.234 A 
HETATM    7  N4  UNL     1      25.221  -0.970  55.310  1.00  0.00    -0.241 NA
HETATM    8  C13 UNL     1      25.639  -0.186  54.296  1.00  0.00     0.073 A 
HETATM    9  C14 UNL     1      26.946   0.246  54.154  1.00  0.00     0.072 A 
HETATM   10  C15 UNL     1      27.331   1.054  53.075  1.00  0.00     0.103 A 
ENDROOT
BRANCH   4  11
HETATM   11  C8  UNL     1      22.339   0.223  52.419  1.00  0.00     0.090 C 
BRANCH  11  12
HETATM   12  C9  UNL     1      21.524   1.429  52.860  1.00  0.00     0.278 C 
BRANCH  12  13
HETATM   13  N2  UNL     1      21.476   2.450  51.871  1.00  0.00     0.106 N 
HETATM   14  H14 UNL     1      21.564   2.129  50.900  1.00  0.00     0.318 HD
BRANCH  13  15
HETATM   15  C10 UNL     1      22.456   3.461  52.124  1.00  0.00     0.437 C 
BRANCH  15  16
HETATM   16  O2  UNL     1      23.040   3.988  51.031  1.00  0.00    -0.368 OA
HETATM   17  C11 UNL     1      22.732   5.226  50.586  1.00  0.00     0.203 C 
ENDBRANCH  15  16
ENDBRANCH  13  15
ENDBRANCH  12  13
ENDBRANCH  11  12
ENDBRANCH   4  11
BRANCH   1  18
HETATM   18  O1  UNL     1      27.009   2.221  51.173  1.00  0.00    -0.319 OA
BRANCH  18  19
HETATM   19  C3  UNL     1      26.455   2.951  50.136  1.00  0.00     0.444 C 
BRANCH  19  20
HETATM   20  N1  UNL     1      26.174   4.336  50.431  1.00  0.00     0.106 N 
HETATM   21  H6  UNL     1      25.188   4.449  50.703  1.00  0.00     0.318 HD
BRANCH  20  22
HETATM   22  C2  UNL     1      26.274   5.024  49.129  1.00  0.00     0.268 C 
HETATM   23  C1  UNL     1      27.677   4.965  48.626  1.00  0.00     0.037 C 
ENDBRANCH  20  22
ENDBRANCH  19  20
ENDBRANCH  18  19
ENDBRANCH   1  18
BRANCH  10  24
HETATM   24  O3  UNL     1      28.690   1.405  53.080  1.00  0.00    -0.353 OA
HETATM   25  C16 UNL     1      29.644   0.561  53.667  1.00  0.00     0.210 C 
ENDBRANCH  10  24
TORSDOF 10
ENDMDL
MODEL 3
REMARK VINA RESULT:      -6.5      2.813      5.351
REMARK  10 active torsions:
REMARK  status: ('A' for Active; 'I' for Inactive)
REMARK    1  A    between atoms: C2_2  and  N1_3 
REMARK    2  A    between atoms: N1_3  and  C3_4 
REMARK    3  A    between atoms: C3_4  and  O1_5 
REMARK    4  A    between atoms: O1_5  and  C4_6 
REMARK    5  A    between atoms: C7_9  and  C8_10 
REMARK    6  A    between atoms: C8_10  and  C9_11 
REMARK    7  A    between atoms: C9_11  and  N2_12 
REMARK    8  A    between atoms: N2_12  and  C10_13 
REMARK    9  A    between atoms: C10_13  and  O2_14 
REMARK   10  A    between atoms: C15_21  and  O3_22 
ROOT
HETATM    1  C4  UNL     1      25.735   1.742  53.636  1.00  0.00     0.105 A 
HETATM    2  C5  UNL     1      24.778   2.631  53.211  1.00  0.00     0.055 A 
HETATM    3  C6  UNL     1      23.539   2.324  52.713  1.00  0.00     0.020 A 
HETATM    4  C7  UNL     1      22.733   3.377  52.339  1.00  0.00     0.050 A 
HETATM    5  N3  UNL     1      21.523   3.005  51.843  1.00  0.00    -0.246 NA
HETATM    6  C12 UNL     1      21.155   1.704  51.733  1.00  0.00     0.234 A 
HETATM    7  N4  UNL     1      21.981   0.699  52.116  1.00  0.00    -0.241 NA
HETATM    8  C13 UNL     1      23.197   0.994  52.616  1.00  0.00     0.073 A 
HETATM    9  C14 UNL     1      24.109   0.036  53.024  1.00  0.00     0.072 A 
HETATM   10  C15 UNL     1      25.365   0.396  53.529  1.00  0.00     0.103 A 
ENDROOT
BRANCH   4  11
HETATM   11  C8  UNL     1      23.034   4.805  52.452  1.00  0.00     0.090 C 
BRANCH  11  12
HETATM   12  C9  UNL     1      23.403   5.465  51.133  1.00  0.00     0.278 C 
BRANCH  12  13
HETATM   13  N2  UNL     1      23.244   4.593  50.020  1.00  0.00     0.106 N 
HETATM   14  H14 UNL     1      22.826   3.680  50.231  1.00  0.00     0.318 HD
BRANCH  13  15
HETATM   15  C10 UNL     1      24.485   4.398  49.335  1.00  0.00     0.437 C 
BRANCH  15  16
HETATM   16  O2  UNL     1      25.181   3.303  49.698  1.00  0.00    -0.368 OA
HETATM   17  C11 UNL     1      26.500   3.362  49.985  1.00  0.00     0.203 C 
ENDBRANCH  15  16
ENDBRANCH  13  15
ENDBRANCH  12  13
ENDBRANCH  11  12
ENDBRANCH   4  11
BRANCH   1  18
HETATM   18  O1  UNL     1      26.987   1.833  54.151  1.00  0.00    -0.319 OA
BRANCH  18  19
HETATM   19  C3  UNL     1      28.140   2.343  53.581  1.00  0.00     0.444 C 
BRANCH  19  20
HETATM   20  N1  UNL     1      29.367   2.036  54.276  1.00  0.00     0.106 N 
HETATM   21  H6  UNL     1      30.169   2.114  53.635  1.00  0.00     0.318 HD
BRANCH  20  22
HETATM   22  C2  UNL     1      29.279   0.593  54.575  1.00  0.00     0.268 C 
HETATM   23  C1  UNL     1      29.995  -0.190  53.526  1.00  0.00     0.037 C 
ENDBRANCH  20  22
ENDBRANCH  19  20
ENDBRANCH  18  19
ENDBRANCH   1  18
BRANCH  10  24
HETATM   24  O3  UNL     1      26.169  -0.695  53.898  1.00  0.00    -0.353 OA
HETATM   25  C16 UNL     1      26.673  -1.571  52.925  1.00  0.00     0.210 C 
ENDBRANCH  10  24
TORSDOF 10
ENDMDL
MODEL 4
REMARK VINA RESULT:      -6.4      2.391      6.519
REMARK  10 active torsions:
REMARK  status: ('A' for Active; 'I' for Inactive)
REMARK    1  A    between atoms: C2_2  and  N1_3 
REMARK    2  A    between atoms: N1_3  and  C3_4 
REMARK    3  A    between atoms: C3_4  and  O1_5 
REMARK    4  A    between atoms: O1_5  and  C4_6 
REMARK    5  A    between atoms: C7_9  and  C8_10 
REMARK    6  A    between atoms: C8_10  and  C9_11 
REMARK    7  A    between atoms: C9_11  and  N2_12 
REMARK    8  A    between atoms: N2_12  and  C10_13 
REMARK    9  A    between atoms: C10_13  and  O2_14 
REMARK   10  A    between atoms: C15_21  and  O3_22 
ROOT
HETATM    1  C4  UNL     1      21.169   0.280  52.444  1.00  0.00     0.105 A 
HETATM    2  C5  UNL     1      22.529   0.279  52.640  1.00  0.00     0.055 A 
HETATM    3  C6  UNL     1      23.205  -0.299  53.683  1.00  0.00     0.020 A 
HETATM    4  C7  UNL     1      24.578  -0.176  53.687  1.00  0.00     0.050 A 
HETATM    5  N3  UNL     1      25.187  -0.762  54.752  1.00  0.00    -0.246 NA
HETATM    6  C12 UNL     1      24.490  -1.411  55.718  1.00  0.00     0.234 A 
HETATM    7  N4  UNL     1      23.138  -1.510  55.671  1.00  0.00    -0.241 NA
HETATM    8  C13 UNL     1      22.467  -0.951  54.644  1.00  0.00     0.073 A 
HETATM    9  C14 UNL     1      21.090  -0.994  54.518  1.00  0.00     0.072 A 
HETATM   10  C15 UNL     1      20.440  -0.389  53.434  1.00  0.00     0.103 A 
ENDROOT
BRANCH   4  11
HETATM   11  C8  UNL     1      25.411   0.475  52.675  1.00  0.00     0.090 C 
BRANCH  11  12
HETATM   12  C9  UNL     1      25.745   1.925  52.989  1.00  0.00     0.278 C 
BRANCH  12  13
HETATM   13  N2  UNL     1      26.585   2.060  54.128  1.00  0.00     0.106 N 
HETATM   14  H14 UNL     1      26.340   2.821  54.771  1.00  0.00     0.318 HD
BRANCH  13  15
HETATM   15  C10 UNL     1      27.958   2.189  53.746  1.00  0.00     0.437 C 
BRANCH  15  16
HETATM   16  O2  UNL     1      28.841   1.542  54.530  1.00  0.00    -0.368 OA
HETATM   17  C11 UNL     1      28.731   0.219  54.785  1.00  0.00     0.203 C 
ENDBRANCH  15  16
ENDBRANCH  13  15
ENDBRANCH  12  13
ENDBRANCH  11  12
ENDBRANCH   4  11
BRANCH   1  18
HETATM   18  O1  UNL     1      20.323   0.775  51.507  1.00  0.00    -0.319 OA
BRANCH  18  19
HETATM   19  C3  UNL     1      19.752   2.032  51.411  1.00  0.00     0.444 C 
BRANCH  19  20
HETATM   20  N1  UNL     1      20.262   2.868  50.351  1.00  0.00     0.106 N 
HETATM   21  H6  UNL     1      21.201   2.555  50.070  1.00  0.00     0.318 HD
BRANCH  20  22
HETATM   22  C2  UNL     1      20.491   4.181  50.985  1.00  0.00     0.268 C 
HETATM   23  C1  UNL     1      21.421   4.034  52.142  1.00  0.00     0.037 C 
ENDBRANCH  20  22
ENDBRANCH  19  20
ENDBRANCH  18  19
ENDBRANCH   1  18
BRANCH  10  24
HETATM   24  O3  UNL     1      19.042  -0.525  53.455  1.00  0.00    -0.353 OA
HETATM   25  C16 UNL     1      18.449  -1.796  53.477  1.00  0.00     0.210 C 
ENDBRANCH  10  24
TORSDOF 10
ENDMDL
MODEL 5
REMARK VINA RESULT:      -6.3      2.099      5.015
REMARK  10 active torsions:
REMARK  status: ('A' for Active; 'I' for Inactive)
REMARK    1  A    between atoms: C2_2  and  N1_3 
REMARK    2  A    between atoms: N1_3  and  C3_4 
REMARK    3  A    between atoms: C3_4  and  O1_5 
REMARK    4  A    between atoms: O1_5  and  C4_6 
REMARK    5  A    between atoms: C7_9  and  C8_10 
REMARK    6  A    between atoms: C8_10  and  C9_11 
REMARK    7  A    between atoms: C9_11  and  N2_12 
REMARK    8  A    between atoms: N2_12  and  C10_13 
REMARK    9  A    between atoms: C10_13  and  O2_14 
REMARK   10  A    between atoms: C15_21  and  O3_22 
ROOT
HETATM    1  C4  UNL     1      25.694  -0.127  53.801  1.00  0.00     0.105 A 
HETATM    2  C5  UNL     1      24.922   0.604  52.931  1.00  0.00     0.055 A 
HETATM    3  C6  UNL     1      25.363   1.553  52.045  1.00  0.00     0.020 A 
HETATM    4  C7  UNL     1      24.412   2.173  51.264  1.00  0.00     0.050 A 
HETATM    5  N3  UNL     1      24.912   3.110  50.416  1.00  0.00    -0.246 NA
HETATM    6  C12 UNL     1      26.237   3.397  50.353  1.00  0.00     0.234 A 
HETATM    7  N4  UNL     1      27.138   2.758  51.141  1.00  0.00    -0.241 NA
HETATM    8  C13 UNL     1      26.712   1.818  52.008  1.00  0.00     0.073 A 
HETATM    9  C14 UNL     1      27.557   1.122  52.855  1.00  0.00     0.072 A 
HETATM   10  C15 UNL     1      27.062   0.159  53.744  1.00  0.00     0.103 A 
ENDROOT
BRANCH   4  11
HETATM   11  C8  UNL     1      22.973   1.905  51.241  1.00  0.00     0.090 C 
BRANCH  11  12
HETATM   12  C9  UNL     1      22.388   1.790  49.842  1.00  0.00     0.278 C 
BRANCH  12  13
HETATM   13  N2  UNL     1      21.321   0.852  49.770  1.00  0.00     0.106 N 
HETATM   14  H14 UNL     1      20.451   1.205  49.355  1.00  0.00     0.318 HD
BRANCH  13  15
HETATM   15  C10 UNL     1      21.039   0.289  51.054  1.00  0.00     0.437 C 
BRANCH  15  16
HETATM   16  O2  UNL     1      19.733   0.154  51.352  1.00  0.00    -0.368 OA
HETATM   17  C11 UNL     1      18.766   0.697  50.579  1.00  0.00     0.203 C 
ENDBRANCH  15  16
ENDBRANCH  13  15
ENDBRANCH  12  13
ENDBRANCH  11  12
ENDBRANCH   4  11
BRANCH   1  18
HETATM   18  O1  UNL     1      25.465  -1.089  54.731  1.00  0.00    -0.319 OA
BRANCH  18  19
HETATM   19  C3  UNL     1      24.573  -1.098  55.788  1.00  0.00     0.444 C 
BRANCH  19  20
HETATM   20  N1  UNL     1      23.382  -1.890  55.592  1.00  0.00     0.106 N 
HETATM   21  H6  UNL     1      23.517  -2.550  54.814  1.00  0.00     0.318 HD
BRANCH  20  22
HETATM   22  C2  UNL     1      22.375  -0.936  55.090  1.00  0.00     0.268 C 
HETATM   23  C1  UNL     1      21.350  -1.655  54.277  1.00  0.00     0.037 C 
ENDBRANCH  20  22
ENDBRANCH  19  20
ENDBRANCH  18  19
ENDBRANCH   1  18
BRANCH  10  24
HETATM   24  O3  UNL     1      28.050  -0.454  54.532  1.00  0.00    -0.353 OA
HETATM   25  C16 UNL     1      29.352  -0.624  54.039  1.00  0.00     0.210 C 
ENDBRANCH  10  24
TORSDOF 10
ENDMDL
MODEL 6
REMARK VINA RESULT:      -6.3      2.495      5.640
REMARK  10 active torsions:
REMARK  status: ('A' for Active; 'I' for Inactive)
REMARK    1  A    between atoms: C2_2  and  N1_3 
REMARK    2  A    between atoms: N1_3  and  C3_4 
REMARK    3  A    between atoms: C3_4  and  O1_5 
REMARK    4  A    between atoms: O1_5  and  C4_6 
REMARK    5  A    between atoms: C7_9  and  C8_10 
REMARK    6  A    between atoms: C8_10  and  C9_11 
REMARK    7  A    between atoms: C9_11  and  N2_12 
REMARK    8  A    between atoms: N2_12  and  C10_13 
REMARK    9  A    between atoms: C10_13  and  O2_14 
REMARK   10  A    between atoms: C15_21  and  O3_22 
ROOT
HETATM    1  C4  UNL     1      25.407  -0.129  53.859  1.00  0.00     0.105 A 
HETATM    2  C5  UNL     1      24.676   0.558  52.920  1.00  0.00     0.055 A 
HETATM    3  C6  UNL     1      25.155   1.479  52.025  1.00  0.00     0.020 A 
HETATM    4  C7  UNL     1      24.242   2.056  51.169  1.00  0.00     0.050 A 
HETATM    5  N3  UNL     1      24.778   2.968  50.315  1.00  0.00    -0.246 NA
HETATM    6  C12 UNL     1      26.100   3.272  50.316  1.00  0.00     0.234 A 
HETATM    7  N4  UNL     1      26.963   2.676  51.177  1.00  0.00    -0.241 NA
HETATM    8  C13 UNL     1      26.501   1.763  52.053  1.00  0.00     0.073 A 
HETATM    9  C14 UNL     1      27.305   1.111  52.972  1.00  0.00     0.072 A 
HETATM   10  C15 UNL     1      26.773   0.175  53.868  1.00  0.00     0.103 A 
ENDROOT
BRANCH   4  11
HETATM   11  C8  UNL     1      22.810   1.767  51.076  1.00  0.00     0.090 C 
BRANCH  11  12
HETATM   12  C9  UNL     1      21.918   2.966  51.355  1.00  0.00     0.278 C 
BRANCH  12  13
HETATM   13  N2  UNL     1      22.517   3.900  52.245  1.00  0.00     0.106 N 
HETATM   14  H14 UNL     1      22.296   3.769  53.238  1.00  0.00     0.318 HD
BRANCH  13  15
HETATM   15  C10 UNL     1      22.211   5.245  51.866  1.00  0.00     0.437 C 
BRANCH  15  16
HETATM   16  O2  UNL     1      23.013   5.778  50.925  1.00  0.00    -0.368 OA
HETATM   17  C11 UNL     1      24.089   6.529  51.250  1.00  0.00     0.203 C 
ENDBRANCH  15  16
ENDBRANCH  13  15
ENDBRANCH  12  13
ENDBRANCH  11  12
ENDBRANCH   4  11
BRANCH   1  18
HETATM   18  O1  UNL     1      25.138  -1.059  54.811  1.00  0.00    -0.319 OA
BRANCH  18  19
HETATM   19  C3  UNL     1      24.035  -1.180  55.637  1.00  0.00     0.444 C 
BRANCH  19  20
HETATM   20  N1  UNL     1      22.857  -1.747  55.024  1.00  0.00     0.106 N 
HETATM   21  H6  UNL     1      23.036  -1.955  54.032  1.00  0.00     0.318 HD
BRANCH  20  22
HETATM   22  C2  UNL     1      21.880  -0.642  54.994  1.00  0.00     0.268 C 
HETATM   23  C1  UNL     1      21.147  -0.643  53.694  1.00  0.00     0.037 C 
ENDBRANCH  20  22
ENDBRANCH  19  20
ENDBRANCH  18  19
ENDBRANCH   1  18
BRANCH  10  24
HETATM   24  O3  UNL     1      27.722  -0.395  54.733  1.00  0.00    -0.353 OA
HETATM   25  C16 UNL     1      29.091  -0.329  54.432  1.00  0.00     0.210 C 
ENDBRANCH  10  24
TORSDOF 10
ENDMDL
MODEL 7
REMARK VINA RESULT:      -6.3      3.394      7.575
REMARK  10 active torsions:
REMARK  status: ('A' for Active; 'I' for Inactive)
REMARK    1  A    between atoms: C2_2  and  N1_3 
REMARK    2  A    between atoms: N1_3  and  C3_4 
REMARK    3  A    between atoms: C3_4  and  O1_5 
REMARK    4  A    between atoms: O1_5  and  C4_6 
REMARK    5  A    between atoms: C7_9  and  C8_10 
REMARK    6  A    between atoms: C8_10  and  C9_11 
REMARK    7  A    between atoms: C9_11  and  N2_12 
REMARK    8  A    between atoms: N2_12  and  C10_13 
REMARK    9  A    between atoms: C10_13  and  O2_14 
REMARK   10  A    between atoms: C15_21  and  O3_22 
ROOT
HETATM    1  C4  UNL     1      26.744   2.084  52.099  1.00  0.00     0.105 A 
HETATM    2  C5  UNL     1      26.620   2.969  51.055  1.00  0.00     0.055 A 
HETATM    3  C6  UNL     1      25.451   3.421  50.500  1.00  0.00     0.020 A 
HETATM    4  C7  UNL     1      25.556   4.308  49.451  1.00  0.00     0.050 A 
HETATM    5  N3  UNL     1      24.362   4.709  48.938  1.00  0.00    -0.246 NA
HETATM    6  C12 UNL     1      23.177   4.266  49.429  1.00  0.00     0.234 A 
HETATM    7  N4  UNL     1      23.123   3.393  50.466  1.00  0.00    -0.241 NA
HETATM    8  C13 UNL     1      24.268   2.952  51.023  1.00  0.00     0.073 A 
HETATM    9  C14 UNL     1      24.309   2.055  52.077  1.00  0.00     0.072 A 
HETATM   10  C15 UNL     1      25.528   1.621  52.615  1.00  0.00     0.103 A 
ENDROOT
BRANCH   4  11
HETATM   11  C8  UNL     1      26.784   4.862  48.879  1.00  0.00     0.090 C 
BRANCH  11  12
HETATM   12  C9  UNL     1      26.773   6.377  48.742  1.00  0.00     0.278 C 
BRANCH  12  13
HETATM   13  N2  UNL     1      26.450   7.036  49.960  1.00  0.00     0.106 N 
HETATM   14  H14 UNL     1      25.470   6.965  50.254  1.00  0.00     0.318 HD
BRANCH  13  15
HETATM   15  C10 UNL     1      26.834   8.413  49.920  1.00  0.00     0.437 C 
BRANCH  15  16
HETATM   16  O2  UNL     1      27.886   8.698  49.130  1.00  0.00    -0.368 OA
HETATM   17  C11 UNL     1      28.848   9.567  49.512  1.00  0.00     0.203 C 
ENDBRANCH  15  16
ENDBRANCH  13  15
ENDBRANCH  12  13
ENDBRANCH  11  12
ENDBRANCH   4  11
BRANCH   1  18
HETATM   18  O1  UNL     1      27.774   1.525  52.782  1.00  0.00    -0.319 OA
BRANCH  18  19
HETATM   19  C3  UNL     1      28.680   2.113  53.647  1.00  0.00     0.444 C 
BRANCH  19  20
HETATM   20  N1  UNL     1      29.669   1.226  54.211  1.00  0.00     0.106 N 
HETATM   21  H6  UNL     1      30.425   1.058  53.533  1.00  0.00     0.318 HD
BRANCH  20  22
HETATM   22  C2  UNL     1      28.984  -0.076  54.324  1.00  0.00     0.268 C 
HETATM   23  C1  UNL     1      29.793  -1.138  53.655  1.00  0.00     0.037 C 
ENDBRANCH  20  22
ENDBRANCH  19  20
ENDBRANCH  18  19
ENDBRANCH   1  18
BRANCH  10  24
HETATM   24  O3  UNL     1      25.394   0.715  53.679  1.00  0.00    -0.353 OA
HETATM   25  C16 UNL     1      25.014  -0.615  53.440  1.00  0.00     0.210 C 
ENDBRANCH  10  24
TORSDOF 10
ENDMDL
MODEL 8
REMARK VINA RESULT:      -6.3      2.660      6.888
REMARK  10 active torsions:
REMARK  status: ('A' for Active; 'I' for Inactive)
REMARK    1  A    between atoms: C2_2  and  N1_3 
REMARK    2  A    between atoms: N1_3  and  C3_4 
REMARK    3  A    between atoms: C3_4  and  O1_5 
REMARK    4  A    between atoms: O1_5  and  C4_6 
REMARK    5  A    between atoms: C7_9  and  C8_10 
REMARK    6  A    between atoms: C8_10  and  C9_11 
REMARK    7  A    between atoms: C9_11  and  N2_12 
REMARK    8  A    between atoms: N2_12  and  C10_13 
REMARK    9  A    between atoms: C10_13  and  O2_14 
REMARK   10  A    between atoms: C15_21  and  O3_22 
ROOT
HETATM    1  C4  UNL     1      25.056   0.677  53.114  1.00  0.00     0.105 A 
HETATM    2  C5  UNL     1      25.319   1.535  52.073  1.00  0.00     0.055 A 
HETATM    3  C6  UNL     1      24.415   2.021  51.165  1.00  0.00     0.020 A 
HETATM    4  C7  UNL     1      24.896   2.870  50.192  1.00  0.00     0.050 A 
HETATM    5  N3  UNL     1      23.952   3.308  49.318  1.00  0.00    -0.246 NA
HETATM    6  C12 UNL     1      22.651   2.934  49.409  1.00  0.00     0.234 A 
HETATM    7  N4  UNL     1      22.222   2.096  50.387  1.00  0.00    -0.241 NA
HETATM    8  C13 UNL     1      23.104   1.622  51.288  1.00  0.00     0.073 A 
HETATM    9  C14 UNL     1      22.758   0.758  52.313  1.00  0.00     0.072 A 
HETATM   10  C15 UNL     1      23.717   0.286  53.220  1.00  0.00     0.103 A 
ENDROOT
BRANCH   4  11
HETATM   11  C8  UNL     1      26.270   3.350  50.038  1.00  0.00     0.090 C 
BRANCH  11  12
HETATM   12  C9  UNL     1      26.372   4.758  49.473  1.00  0.00     0.278 C 
BRANCH  12  13
HETATM   13  N2  UNL     1      25.716   5.724  50.285  1.00  0.00     0.106 N 
HETATM   14  H14 UNL     1      24.746   5.504  50.536  1.00  0.00     0.318 HD
BRANCH  13  15
HETATM   15  C10 UNL     1      25.767   7.023  49.688  1.00  0.00     0.437 C 
BRANCH  15  16
HETATM   16  O2  UNL     1      26.401   7.967  50.410  1.00  0.00    -0.368 OA
HETATM   17  C11 UNL     1      26.790   9.140  49.863  1.00  0.00     0.203 C 
ENDBRANCH  15  16
ENDBRANCH  13  15
ENDBRANCH  12  13
ENDBRANCH  11  12
ENDBRANCH   4  11
BRANCH   1  18
HETATM   18  O1  UNL     1      25.783   0.094  54.101  1.00  0.00    -0.319 OA
BRANCH  18  19
HETATM   19  C3  UNL     1      27.122  -0.254  54.121  1.00  0.00     0.444 C 
BRANCH  19  20
HETATM   20  N1  UNL     1      27.966   0.562  54.960  1.00  0.00     0.106 N 
HETATM   21  H6  UNL     1      27.454   1.399  55.273  1.00  0.00     0.318 HD
BRANCH  20  22
HETATM   22  C2  UNL     1      29.003   1.088  54.052  1.00  0.00     0.268 C 
HETATM   23  C1  UNL     1      28.631   2.457  53.590  1.00  0.00     0.037 C 
ENDBRANCH  20  22
ENDBRANCH  19  20
ENDBRANCH  18  19
ENDBRANCH   1  18
BRANCH  10  24
HETATM   24  O3  UNL     1      23.202  -0.581  54.198  1.00  0.00    -0.353 OA
HETATM   25  C16 UNL     1      21.842  -0.544  54.539  1.00  0.00     0.210 C 
ENDBRANCH  10  24
TORSDOF 10
ENDMDL
MODEL 9
REMARK VINA RESULT:      -6.2      2.091      5.994
REMARK  10 active torsions:
REMARK  status: ('A' for Active; 'I' for Inactive)
REMARK    1  A    between atoms: C2_2  and  N1_3 
REMARK    2  A    between atoms: N1_3  and  C3_4 
REMARK    3  A    between atoms: C3_4  and  O1_5 
REMARK    4  A    between atoms: O1_5  and  C4_6 
REMARK    5  A    between atoms: C7_9  and  C8_10 
REMARK    6  A    between atoms: C8_10  and  C9_11 
REMARK    7  A    between atoms: C9_11  and  N2_12 
REMARK    8  A    between atoms: N2_12  and  C10_13 
REMARK    9  A    between atoms: C10_13  and  O2_14 
REMARK   10  A    between atoms: C15_21  and  O3_22 
ROOT
HETATM    1  C4  UNL     1      21.752   0.616  52.120  1.00  0.00     0.105 A 
HETATM    2  C5  UNL     1      23.046   0.468  52.558  1.00  0.00     0.055 A 
HETATM    3  C6  UNL     1      23.459  -0.217  53.670  1.00  0.00     0.020 A 
HETATM    4  C7  UNL     1      24.813  -0.236  53.930  1.00  0.00     0.050 A 
HETATM    5  N3  UNL     1      25.156  -0.922  55.051  1.00  0.00    -0.246 NA
HETATM    6  C12 UNL     1      24.234  -1.534  55.837  1.00  0.00     0.234 A 
HETATM    7  N4  UNL     1      22.911  -1.491  55.540  1.00  0.00    -0.241 NA
HETATM    8  C13 UNL     1      22.498  -0.827  54.443  1.00  0.00     0.073 A 
HETATM    9  C14 UNL     1      21.170  -0.723  54.068  1.00  0.00     0.072 A 
HETATM   10  C15 UNL     1      20.792  -0.012  52.921  1.00  0.00     0.103 A 
ENDROOT
BRANCH   4  11
HETATM   11  C8  UNL     1      25.877   0.366  53.124  1.00  0.00     0.090 C 
BRANCH  11  12
HETATM   12  C9  UNL     1      26.394   1.686  53.672  1.00  0.00     0.278 C 
BRANCH  12  13
HETATM   13  N2  UNL     1      27.137   2.425  52.710  1.00  0.00     0.106 N 
HETATM   14  H14 UNL     1      27.312   3.408  52.947  1.00  0.00     0.318 HD
BRANCH  13  15
HETATM   15  C10 UNL     1      26.526   2.353  51.418  1.00  0.00     0.437 C 
BRANCH  15  16
HETATM   16  O2  UNL     1      27.024   3.197  50.495  1.00  0.00    -0.368 OA
HETATM   17  C11 UNL     1      26.222   3.875  49.644  1.00  0.00     0.203 C 
ENDBRANCH  15  16
ENDBRANCH  13  15
ENDBRANCH  12  13
ENDBRANCH  11  12
ENDBRANCH   4  11
BRANCH   1  18
HETATM   18  O1  UNL     1      21.144   1.233  51.075  1.00  0.00    -0.319 OA
BRANCH  18  19
HETATM   19  C3  UNL     1      21.018   2.583  50.801  1.00  0.00     0.444 C 
BRANCH  19  20
HETATM   20  N1  UNL     1      21.297   3.471  51.904  1.00  0.00     0.106 N 
HETATM   21  H6  UNL     1      20.569   4.195  51.971  1.00  0.00     0.318 HD
BRANCH  20  22
HETATM   22  C2  UNL     1      22.508   4.209  51.495  1.00  0.00     0.268 C 
HETATM   23  C1  UNL     1      23.509   4.200  52.602  1.00  0.00     0.037 C 
ENDBRANCH  20  22
ENDBRANCH  19  20
ENDBRANCH  18  19
ENDBRANCH   1  18
BRANCH  10  24
HETATM   24  O3  UNL     1      19.408  -0.005  52.681  1.00  0.00    -0.353 OA
HETATM   25  C16 UNL     1      18.585  -1.005  53.221  1.00  0.00     0.210 C 
ENDBRANCH  10  24
TORSDOF 10
ENDMDL
