MODEL 1
REMARK VINA RESULT:      -6.8      0.000      0.000
REMARK  5 active torsions:
REMARK  status: ('A' for Active; 'I' for Inactive)
REMARK    1  A    between atoms: C2_2  and  C3_3 
REMARK    2  A    between atoms: C3_3  and  C6_7 
REMARK    3  A    between atoms: C4_4  and  C5_5 
REMARK    4  A    between atoms: C6_7  and  C7_8 
REMARK    5  A    between atoms: C6_7  and  N1_15 
ROOT
HETATM    1  C6  UNL     1      24.373   0.917  52.474  1.00  0.00     0.139 C 
ENDROOT
BRANCH   1   2
HETATM    2  C3  UNL     1      24.390   2.328  52.034  1.00  0.00    -0.060 C 
HETATM    3  C4  UNL     1      24.623   2.572  50.720  1.00  0.00    -0.011 C 
BRANCH   2   4
HETATM    4  C2  UNL     1      24.167   3.561  52.845  1.00  0.00     0.031 C 
HETATM    5  C1  UNL     1      22.939   4.328  52.481  1.00  0.00     0.010 C 
ENDBRANCH   2   4
BRANCH   3   6
HETATM    6  C5  UNL     1      24.743   3.687  49.753  1.00  0.00     0.112 C 
HETATM    7 BR1  UNL     1      26.608   4.110  49.399  1.00  0.00    -0.092 Br
ENDBRANCH   3   6
ENDBRANCH   1   2
BRANCH   1   8
HETATM    8  C7  UNL     1      25.711   0.350  52.766  1.00  0.00    -0.035 A 
HETATM    9  C8  UNL     1      26.242  -0.869  52.350  1.00  0.00     0.011 A 
HETATM   10  C9  UNL     1      27.510  -1.280  52.696  1.00  0.00     0.024 A 
HETATM   11  C10 UNL     1      28.324  -0.507  53.474  1.00  0.00     0.034 A 
HETATM   12 CL1  UNL     1      29.928  -1.029  53.909  1.00  0.00    -0.084 Cl
HETATM   13  C11 UNL     1      27.885   0.697  53.923  1.00  0.00     0.024 A 
HETATM   14  C12 UNL     1      26.615   1.073  53.558  1.00  0.00     0.011 A 
ENDBRANCH   1   8
BRANCH   1  15
HETATM   15  N1  UNL     1      23.432   0.685  53.549  1.00  0.00    -0.206 NA
HETATM   16  C13 UNL     1      22.079   0.981  53.051  1.00  0.00     0.187 C 
HETATM   17  S1  UNL     1      21.236  -0.645  52.899  1.00  0.00    -0.125 SA
HETATM   18  C14 UNL     1      21.453  -1.404  54.540  1.00  0.00     0.270 C 
HETATM   19  O1  UNL     1      22.649  -0.866  55.022  1.00  0.00    -0.281 OA
HETATM   20  N2  UNL     1      23.502  -0.626  54.027  1.00  0.00    -0.131 NA
HETATM   21  H18 UNL     1      24.454  -0.787  54.413  1.00  0.00     0.174 HD
ENDBRANCH   1  15
TORSDOF 5
ENDMDL
MODEL 2
REMARK VINA RESULT:      -6.8      3.554      4.812
REMARK  5 active torsions:
REMARK  status: ('A' for Active; 'I' for Inactive)
REMARK    1  A    between atoms: C2_2  and  C3_3 
REMARK    2  A    between atoms: C3_3  and  C6_7 
REMARK    3  A    between atoms: C4_4  and  C5_5 
REMARK    4  A    between atoms: C6_7  and  C7_8 
REMARK    5  A    between atoms: C6_7  and  N1_15 
ROOT
HETATM    1  C6  UNL     1      23.875   2.292  52.334  1.00  0.00     0.139 C 
ENDROOT
BRANCH   1   2
HETATM    2  C3  UNL     1      22.732   1.359  52.245  1.00  0.00    -0.060 C 
HETATM    3  C4  UNL     1      22.069   1.070  53.393  1.00  0.00    -0.011 C 
BRANCH   2   4
HETATM    4  C2  UNL     1      22.174   0.678  51.040  1.00  0.00     0.031 C 
HETATM    5  C1  UNL     1      20.884   1.245  50.549  1.00  0.00     0.010 C 
ENDBRANCH   2   4
BRANCH   3   6
HETATM    6  C5  UNL     1      20.928   0.275  53.902  1.00  0.00     0.112 C 
HETATM    7 BR1  UNL     1      21.471  -1.546  54.316  1.00  0.00    -0.092 Br
ENDBRANCH   3   6
ENDBRANCH   1   2
BRANCH   1   8
HETATM    8  C7  UNL     1      25.153   1.659  52.736  1.00  0.00    -0.035 A 
HETATM    9  C8  UNL     1      26.005   2.020  53.778  1.00  0.00     0.011 A 
HETATM   10  C9  UNL     1      27.174   1.342  54.046  1.00  0.00     0.024 A 
HETATM   11  C10 UNL     1      27.565   0.269  53.298  1.00  0.00     0.034 A 
HETATM   12 CL1  UNL     1      29.043  -0.587  53.640  1.00  0.00    -0.084 Cl
HETATM   13  C11 UNL     1      26.792  -0.150  52.263  1.00  0.00     0.024 A 
HETATM   14  C12 UNL     1      25.634   0.550  52.025  1.00  0.00     0.011 A 
ENDBRANCH   1   8
BRANCH   1  15
HETATM   15  N1  UNL     1      24.015   3.107  51.145  1.00  0.00    -0.206 NA
HETATM   16  C13 UNL     1      22.924   4.093  51.130  1.00  0.00     0.187 C 
HETATM   17  S1  UNL     1      23.711   5.715  51.487  1.00  0.00    -0.125 SA
HETATM   18  C14 UNL     1      25.054   5.828  50.262  1.00  0.00     0.270 C 
HETATM   19  O1  UNL     1      25.415   4.502  50.012  1.00  0.00    -0.281 OA
HETATM   20  N2  UNL     1      25.256   3.748  51.100  1.00  0.00    -0.131 NA
HETATM   21  H18 UNL     1      26.001   3.024  51.065  1.00  0.00     0.174 HD
ENDBRANCH   1  15
TORSDOF 5
ENDMDL
MODEL 3
REMARK VINA RESULT:      -6.8      1.263      2.104
REMARK  5 active torsions:
REMARK  status: ('A' for Active; 'I' for Inactive)
REMARK    1  A    between atoms: C2_2  and  C3_3 
REMARK    2  A    between atoms: C3_3  and  C6_7 
REMARK    3  A    between atoms: C4_4  and  C5_5 
REMARK    4  A    between atoms: C6_7  and  C7_8 
REMARK    5  A    between atoms: C6_7  and  N1_15 
ROOT
HETATM    1  C6  UNL     1      24.301   1.010  52.442  1.00  0.00     0.139 C 
ENDROOT
BRANCH   1   2
HETATM    2  C3  UNL     1      24.216   2.358  51.841  1.00  0.00    -0.060 C 
HETATM    3  C4  UNL     1      23.806   3.375  52.639  1.00  0.00    -0.011 C 
BRANCH   2   4
HETATM    4  C2  UNL     1      24.540   2.779  50.446  1.00  0.00     0.031 C 
HETATM    5  C1  UNL     1      25.964   3.175  50.233  1.00  0.00     0.010 C 
ENDBRANCH   2   4
BRANCH   3   6
HETATM    6  C5  UNL     1      23.549   4.834  52.616  1.00  0.00     0.112 C 
HETATM    7 BR1  UNL     1      21.937   5.246  51.610  1.00  0.00    -0.092 Br
ENDBRANCH   3   6
ENDBRANCH   1   2
BRANCH   1   8
HETATM    8  C7  UNL     1      25.661   0.618  52.880  1.00  0.00    -0.035 A 
HETATM    9  C8  UNL     1      26.486   1.252  53.807  1.00  0.00     0.011 A 
HETATM   10  C9  UNL     1      27.741   0.780  54.124  1.00  0.00     0.024 A 
HETATM   11  C10 UNL     1      28.249  -0.346  53.542  1.00  0.00     0.034 A 
HETATM   12 CL1  UNL     1      29.836  -0.940  53.945  1.00  0.00    -0.084 Cl
HETATM   13  C11 UNL     1      27.511  -1.025  52.626  1.00  0.00     0.024 A 
HETATM   14  C12 UNL     1      26.265  -0.525  52.335  1.00  0.00     0.011 A 
ENDBRANCH   1   8
BRANCH   1  15
HETATM   15  N1  UNL     1      23.310   0.804  53.477  1.00  0.00    -0.206 NA
HETATM   16  C13 UNL     1      21.985   1.114  52.917  1.00  0.00     0.187 C 
HETATM   17  S1  UNL     1      21.125  -0.500  52.745  1.00  0.00    -0.125 SA
HETATM   18  C14 UNL     1      21.257  -1.245  54.401  1.00  0.00     0.270 C 
HETATM   19  O1  UNL     1      22.440  -0.720  54.929  1.00  0.00    -0.281 OA
HETATM   20  N2  UNL     1      23.339  -0.503  53.970  1.00  0.00    -0.131 NA
HETATM   21  H18 UNL     1      24.271  -0.674  54.399  1.00  0.00     0.174 HD
ENDBRANCH   1  15
TORSDOF 5
ENDMDL
MODEL 4
REMARK VINA RESULT:      -6.7      3.680      5.781
REMARK  5 active torsions:
REMARK  status: ('A' for Active; 'I' for Inactive)
REMARK    1  A    between atoms: C2_2  and  C3_3 
REMARK    2  A    between atoms: C3_3  and  C6_7 
REMARK    3  A    between atoms: C4_4  and  C5_5 
REMARK    4  A    between atoms: C6_7  and  C7_8 
REMARK    5  A    between atoms: C6_7  and  N1_15 
ROOT
HETATM    1  C6  UNL     1      24.700   0.972  52.358  1.00  0.00     0.139 C 
ENDROOT
BRANCH   1   2
HETATM    2  C3  UNL     1      25.692   0.166  53.100  1.00  0.00    -0.060 C 
HETATM    3  C4  UNL     1      26.606   0.832  53.851  1.00  0.00    -0.011 C 
BRANCH   2   4
HETATM    4  C2  UNL     1      25.832  -1.319  53.159  1.00  0.00     0.031 C 
HETATM    5  C1  UNL     1      26.802  -1.889  52.178  1.00  0.00     0.010 C 
ENDBRANCH   2   4
BRANCH   3   6
HETATM    6  C5  UNL     1      27.755   0.595  54.754  1.00  0.00     0.112 C 
HETATM    7 BR1  UNL     1      29.400   0.345  53.747  1.00  0.00    -0.092 Br
ENDBRANCH   3   6
ENDBRANCH   1   2
BRANCH   1   8
HETATM    8  C7  UNL     1      23.291   0.579  52.593  1.00  0.00    -0.035 A 
HETATM    9  C8  UNL     1      22.706   0.127  53.775  1.00  0.00     0.011 A 
HETATM   10  C9  UNL     1      21.373  -0.209  53.858  1.00  0.00     0.024 A 
HETATM   11  C10 UNL     1      20.544  -0.118  52.776  1.00  0.00     0.034 A 
HETATM   12 CL1  UNL     1      18.859  -0.544  52.885  1.00  0.00    -0.084 Cl
HETATM   13  C11 UNL     1      21.033   0.314  51.585  1.00  0.00     0.024 A 
HETATM   14  C12 UNL     1      22.367   0.640  51.540  1.00  0.00     0.011 A 
ENDBRANCH   1   8
BRANCH   1  15
HETATM   15  N1  UNL     1      24.909   2.395  52.524  1.00  0.00    -0.206 NA
HETATM   16  C13 UNL     1      25.362   2.949  51.239  1.00  0.00     0.187 C 
HETATM   17  S1  UNL     1      23.953   3.939  50.597  1.00  0.00    -0.125 SA
HETATM   18  C14 UNL     1      23.543   5.058  51.973  1.00  0.00     0.270 C 
HETATM   19  O1  UNL     1      23.914   4.354  53.122  1.00  0.00    -0.281 OA
HETATM   20  N2  UNL     1      23.749   3.043  52.955  1.00  0.00    -0.131 NA
HETATM   21  H18 UNL     1      23.483   2.661  53.885  1.00  0.00     0.174 HD
ENDBRANCH   1  15
TORSDOF 5
ENDMDL
MODEL 5
REMARK VINA RESULT:      -6.7      2.962      4.907
REMARK  5 active torsions:
REMARK  status: ('A' for Active; 'I' for Inactive)
REMARK    1  A    between atoms: C2_2  and  C3_3 
REMARK    2  A    between atoms: C3_3  and  C6_7 
REMARK    3  A    between atoms: C4_4  and  C5_5 
REMARK    4  A    between atoms: C6_7  and  C7_8 
REMARK    5  A    between atoms: C6_7  and  N1_15 
ROOT
HETATM    1  C6  UNL     1      24.466   1.079  53.166  1.00  0.00     0.139 C 
ENDROOT
BRANCH   1   2
HETATM    2  C3  UNL     1      25.823   0.494  53.174  1.00  0.00    -0.060 C 
HETATM    3  C4  UNL     1      26.575   0.672  54.289  1.00  0.00    -0.011 C 
BRANCH   2   4
HETATM    4  C2  UNL     1      26.503  -0.300  52.110  1.00  0.00     0.031 C 
HETATM    5  C1  UNL     1      26.609  -1.761  52.399  1.00  0.00     0.010 C 
ENDBRANCH   2   4
BRANCH   3   6
HETATM    6  C5  UNL     1      27.904   0.342  54.854  1.00  0.00     0.112 C 
HETATM    7 BR1  UNL     1      29.270   1.559  54.193  1.00  0.00    -0.092 Br
ENDBRANCH   3   6
ENDBRANCH   1   2
BRANCH   1   8
HETATM    8  C7  UNL     1      24.342   2.329  52.380  1.00  0.00    -0.035 A 
HETATM    9  C8  UNL     1      24.646   2.539  51.037  1.00  0.00     0.011 A 
HETATM   10  C9  UNL     1      24.485   3.762  50.424  1.00  0.00     0.024 A 
HETATM   11  C10 UNL     1      24.013   4.846  51.107  1.00  0.00     0.034 A 
HETATM   12 CL1  UNL     1      23.810   6.391  50.329  1.00  0.00    -0.084 Cl
HETATM   13  C11 UNL     1      23.692   4.729  52.421  1.00  0.00     0.024 A 
HETATM   14  C12 UNL     1      23.866   3.495  52.998  1.00  0.00     0.011 A 
ENDBRANCH   1   8
BRANCH   1  15
HETATM   15  N1  UNL     1      23.448   0.109  52.820  1.00  0.00    -0.206 NA
HETATM   16  C13 UNL     1      23.265  -0.797  53.965  1.00  0.00     0.187 C 
HETATM   17  S1  UNL     1      21.627  -0.373  54.680  1.00  0.00    -0.125 SA
HETATM   18  C14 UNL     1      20.492  -0.465  53.260  1.00  0.00     0.270 C 
HETATM   19  O1  UNL     1      21.285  -0.147  52.154  1.00  0.00    -0.281 OA
HETATM   20  N2  UNL     1      22.239   0.723  52.483  1.00  0.00    -0.131 NA
HETATM   21  H18 UNL     1      22.393   1.319  51.645  1.00  0.00     0.174 HD
ENDBRANCH   1  15
TORSDOF 5
ENDMDL
MODEL 6
REMARK VINA RESULT:      -6.7      3.416      5.336
REMARK  5 active torsions:
REMARK  status: ('A' for Active; 'I' for Inactive)
REMARK    1  A    between atoms: C2_2  and  C3_3 
REMARK    2  A    between atoms: C3_3  and  C6_7 
REMARK    3  A    between atoms: C4_4  and  C5_5 
REMARK    4  A    between atoms: C6_7  and  C7_8 
REMARK    5  A    between atoms: C6_7  and  N1_15 
ROOT
HETATM    1  C6  UNL     1      23.859   0.691  52.623  1.00  0.00     0.139 C 
ENDROOT
BRANCH   1   2
HETATM    2  C3  UNL     1      22.470   0.318  52.964  1.00  0.00    -0.060 C 
HETATM    3  C4  UNL     1      21.545   0.374  51.974  1.00  0.00    -0.011 C 
BRANCH   2   4
HETATM    4  C2  UNL     1      21.922  -0.141  54.275  1.00  0.00     0.031 C 
HETATM    5  C1  UNL     1      21.838  -1.624  54.426  1.00  0.00     0.010 C 
ENDBRANCH   2   4
BRANCH   3   6
HETATM    6  C5  UNL     1      20.106   0.131  51.719  1.00  0.00     0.112 C 
HETATM    7 BR1  UNL     1      19.482   1.158  50.189  1.00  0.00    -0.092 Br
ENDBRANCH   3   6
ENDBRANCH   1   2
BRANCH   1   8
HETATM    8  C7  UNL     1      24.016   2.078  52.125  1.00  0.00    -0.035 A 
HETATM    9  C8  UNL     1      23.572   3.262  52.711  1.00  0.00     0.011 A 
HETATM   10  C9  UNL     1      23.785   4.496  52.137  1.00  0.00     0.024 A 
HETATM   11  C10 UNL     1      24.448   4.627  50.951  1.00  0.00     0.034 A 
HETATM   12 CL1  UNL     1      24.715   6.189  50.228  1.00  0.00    -0.084 Cl
HETATM   13  C11 UNL     1      24.914   3.523  50.311  1.00  0.00     0.024 A 
HETATM   14  C12 UNL     1      24.684   2.310  50.914  1.00  0.00     0.011 A 
ENDBRANCH   1   8
BRANCH   1  15
HETATM   15  N1  UNL     1      24.791   0.380  53.686  1.00  0.00    -0.206 NA
HETATM   16  C13 UNL     1      25.441  -0.902  53.370  1.00  0.00     0.187 C 
HETATM   17  S1  UNL     1      27.173  -0.487  52.920  1.00  0.00    -0.125 SA
HETATM   18  C14 UNL     1      27.764   0.507  54.326  1.00  0.00     0.270 C 
HETATM   19  O1  UNL     1      26.616   1.128  54.825  1.00  0.00    -0.281 OA
HETATM   20  N2  UNL     1      25.747   1.386  53.848  1.00  0.00    -0.131 NA
HETATM   21  H18 UNL     1      25.260   2.265  54.115  1.00  0.00     0.174 HD
ENDBRANCH   1  15
TORSDOF 5
ENDMDL
MODEL 7
REMARK VINA RESULT:      -6.7      3.646      5.281
REMARK  5 active torsions:
REMARK  status: ('A' for Active; 'I' for Inactive)
REMARK    1  A    between atoms: C2_2  and  C3_3 
REMARK    2  A    between atoms: C3_3  and  C6_7 
REMARK    3  A    between atoms: C4_4  and  C5_5 
REMARK    4  A    between atoms: C6_7  and  C7_8 
REMARK    5  A    between atoms: C6_7  and  N1_15 
ROOT
HETATM    1  C6  UNL     1      24.847   1.761  51.637  1.00  0.00     0.139 C 
ENDROOT
BRANCH   1   2
HETATM    2  C3  UNL     1      23.386   1.584  51.769  1.00  0.00    -0.060 C 
HETATM    3  C4  UNL     1      22.680   1.329  50.639  1.00  0.00    -0.011 C 
BRANCH   2   4
HETATM    4  C2  UNL     1      22.548   1.633  53.004  1.00  0.00     0.031 C 
HETATM    5  C1  UNL     1      22.242   0.298  53.598  1.00  0.00     0.010 C 
ENDBRANCH   2   4
BRANCH   3   6
HETATM    6  C5  UNL     1      21.300   1.069  50.170  1.00  0.00     0.112 C 
HETATM    7 BR1  UNL     1      20.962   1.942  48.465  1.00  0.00    -0.092 Br
ENDBRANCH   3   6
ENDBRANCH   1   2
BRANCH   1   8
HETATM    8  C7  UNL     1      25.253   2.965  50.875  1.00  0.00    -0.035 A 
HETATM    9  C8  UNL     1      24.668   4.230  50.883  1.00  0.00     0.011 A 
HETATM   10  C9  UNL     1      25.147   5.272  50.120  1.00  0.00     0.024 A 
HETATM   11  C10 UNL     1      26.232   5.119  49.305  1.00  0.00     0.034 A 
HETATM   12 CL1  UNL     1      26.836   6.438  48.340  1.00  0.00    -0.084 Cl
HETATM   13  C11 UNL     1      26.863   3.918  49.236  1.00  0.00     0.024 A 
HETATM   14  C12 UNL     1      26.356   2.903  50.012  1.00  0.00     0.011 A 
ENDBRANCH   1   8
BRANCH   1  15
HETATM   15  N1  UNL     1      25.533   1.657  52.907  1.00  0.00    -0.206 NA
HETATM   16  C13 UNL     1      25.882   0.246  53.131  1.00  0.00     0.187 C 
HETATM   17  S1  UNL     1      27.705   0.143  52.931  1.00  0.00    -0.125 SA
HETATM   18  C14 UNL     1      28.341   1.423  54.058  1.00  0.00     0.270 C 
HETATM   19  O1  UNL     1      27.328   2.384  54.106  1.00  0.00    -0.281 OA
HETATM   20  N2  UNL     1      26.679   2.456  52.945  1.00  0.00    -0.131 NA
HETATM   21  H18 UNL     1      26.394   3.449  52.831  1.00  0.00     0.174 HD
ENDBRANCH   1  15
TORSDOF 5
ENDMDL
MODEL 8
REMARK VINA RESULT:      -6.6      3.847      5.519
REMARK  5 active torsions:
REMARK  status: ('A' for Active; 'I' for Inactive)
REMARK    1  A    between atoms: C2_2  and  C3_3 
REMARK    2  A    between atoms: C3_3  and  C6_7 
REMARK    3  A    between atoms: C4_4  and  C5_5 
REMARK    4  A    between atoms: C6_7  and  C7_8 
REMARK    5  A    between atoms: C6_7  and  N1_15 
ROOT
HETATM    1  C6  UNL     1      24.592   1.696  51.535  1.00  0.00     0.139 C 
ENDROOT
BRANCH   1   2
HETATM    2  C3  UNL     1      23.121   1.590  51.636  1.00  0.00    -0.060 C 
HETATM    3  C4  UNL     1      22.605   1.106  52.793  1.00  0.00    -0.011 C 
BRANCH   2   4
HETATM    4  C2  UNL     1      22.087   1.963  50.626  1.00  0.00     0.031 C 
HETATM    5  C1  UNL     1      21.598   0.826  49.791  1.00  0.00     0.010 C 
ENDBRANCH   2   4
BRANCH   3   6
HETATM    6  C5  UNL     1      21.311   0.797  53.444  1.00  0.00     0.112 C 
HETATM    7 BR1  UNL     1      21.457  -0.770  54.587  1.00  0.00    -0.092 Br
ENDBRANCH   3   6
ENDBRANCH   1   2
BRANCH   1   8
HETATM    8  C7  UNL     1      25.072   2.911  50.836  1.00  0.00    -0.035 A 
HETATM    9  C8  UNL     1      24.551   4.202  50.890  1.00  0.00     0.011 A 
HETATM   10  C9  UNL     1      25.097   5.250  50.183  1.00  0.00     0.024 A 
HETATM   11  C10 UNL     1      26.191   5.080  49.384  1.00  0.00     0.034 A 
HETATM   12 CL1  UNL     1      26.880   6.408  48.492  1.00  0.00    -0.084 Cl
HETATM   13  C11 UNL     1      26.763   3.853  49.274  1.00  0.00     0.024 A 
HETATM   14  C12 UNL     1      26.190   2.832  49.993  1.00  0.00     0.011 A 
ENDBRANCH   1   8
BRANCH   1  15
HETATM   15  N1  UNL     1      25.248   1.499  52.810  1.00  0.00    -0.206 NA
HETATM   16  C13 UNL     1      25.803   0.136  52.838  1.00  0.00     0.187 C 
HETATM   17  S1  UNL     1      27.625   0.335  52.721  1.00  0.00    -0.125 SA
HETATM   18  C14 UNL     1      28.024   1.505  54.057  1.00  0.00     0.270 C 
HETATM   19  O1  UNL     1      26.875   2.287  54.195  1.00  0.00    -0.281 OA
HETATM   20  N2  UNL     1      26.256   2.442  53.025  1.00  0.00    -0.131 NA
HETATM   21  H18 UNL     1      25.825   3.388  53.045  1.00  0.00     0.174 HD
ENDBRANCH   1  15
TORSDOF 5
ENDMDL
MODEL 9
REMARK VINA RESULT:      -6.6      3.483      4.631
REMARK  5 active torsions:
REMARK  status: ('A' for Active; 'I' for Inactive)
REMARK    1  A    between atoms: C2_2  and  C3_3 
REMARK    2  A    between atoms: C3_3  and  C6_7 
REMARK    3  A    between atoms: C4_4  and  C5_5 
REMARK    4  A    between atoms: C6_7  and  C7_8 
REMARK    5  A    between atoms: C6_7  and  N1_15 
ROOT
HETATM    1  C6  UNL     1      23.985   2.493  52.245  1.00  0.00     0.139 C 
ENDROOT
BRANCH   1   2
HETATM    2  C3  UNL     1      22.812   1.601  52.133  1.00  0.00    -0.060 C 
HETATM    3  C4  UNL     1      22.368   1.301  50.887  1.00  0.00    -0.011 C 
BRANCH   2   4
HETATM    4  C2  UNL     1      22.029   0.949  53.224  1.00  0.00     0.031 C 
HETATM    5  C1  UNL     1      22.493  -0.423  53.585  1.00  0.00     0.010 C 
ENDBRANCH   2   4
BRANCH   3   6
HETATM    6  C5  UNL     1      21.325   0.517  50.187  1.00  0.00     0.112 C 
HETATM    7 BR1  UNL     1      19.598   1.405  50.279  1.00  0.00    -0.092 Br
ENDBRANCH   3   6
ENDBRANCH   1   2
BRANCH   1   8
HETATM    8  C7  UNL     1      25.231   1.817  52.674  1.00  0.00    -0.035 A 
HETATM    9  C8  UNL     1      26.044   2.116  53.766  1.00  0.00     0.011 A 
HETATM   10  C9  UNL     1      27.186   1.402  54.055  1.00  0.00     0.024 A 
HETATM   11  C10 UNL     1      27.588   0.353  53.279  1.00  0.00     0.034 A 
HETATM   12 CL1  UNL     1      29.033  -0.548  53.647  1.00  0.00    -0.084 Cl
HETATM   13  C11 UNL     1      26.853  -0.006  52.194  1.00  0.00     0.024 A 
HETATM   14  C12 UNL     1      25.721   0.729  51.938  1.00  0.00     0.011 A 
ENDBRANCH   1   8
BRANCH   1  15
HETATM   15  N1  UNL     1      24.178   3.301  51.059  1.00  0.00    -0.206 NA
HETATM   16  C13 UNL     1      23.087   4.286  50.987  1.00  0.00     0.187 C 
HETATM   17  S1  UNL     1      23.854   5.911  51.370  1.00  0.00    -0.125 SA
HETATM   18  C14 UNL     1      25.251   6.019  50.208  1.00  0.00     0.270 C 
HETATM   19  O1  UNL     1      25.626   4.692  49.983  1.00  0.00    -0.281 OA
HETATM   20  N2  UNL     1      25.418   3.945  51.066  1.00  0.00    -0.131 NA
HETATM   21  H18 UNL     1      26.166   3.222  51.070  1.00  0.00     0.174 HD
ENDBRANCH   1  15
TORSDOF 5
ENDMDL
