MODEL 1
REMARK VINA RESULT:      -7.7      0.000      0.000
REMARK  7 active torsions:
REMARK  status: ('A' for Active; 'I' for Inactive)
REMARK    1  A    between atoms: O1_2  and  C2_3 
REMARK    2  A    between atoms: C6_9  and  N3_10 
REMARK    3  A    between atoms: N3_10  and  C7_11 
REMARK    4  A    between atoms: C15_20  and  O2_21 
REMARK    5  A    between atoms: O2_21  and  C16_22 
REMARK    6  A    between atoms: C16_22  and  C17_23 
REMARK    7  A    between atoms: C17_23  and  C18_24 
ROOT
HETATM    1  C2  UNL     1      21.651   1.291  52.684  1.00  0.00     0.099 C 
HETATM    2  C3  UNL     1      21.282   0.508  53.662  1.00  0.00     0.036 C 
HETATM    3  C4  UNL     1      21.258  -0.452  54.708  1.00  0.00     0.261 C 
HETATM    4  N1  UNL     1      22.477  -0.930  54.717  1.00  0.00    -0.295 NA
HETATM    5  C5  UNL     1      23.433  -0.444  53.788  1.00  0.00     0.165 C 
HETATM    6  N2  UNL     1      24.555   0.169  53.777  1.00  0.00    -0.261 NA
HETATM    7  C6  UNL     1      25.141   0.441  52.456  1.00  0.00     0.233 C 
HETATM    8  C14 UNL     1      24.121   1.341  51.796  1.00  0.00     0.060 C 
HETATM    9  C15 UNL     1      22.811   1.624  51.922  1.00  0.00     0.101 C 
ENDROOT
BRANCH   7  10
HETATM   10  N3  UNL     1      26.401   1.081  52.610  1.00  0.00    -0.364 N 
HETATM   11  H8  UNL     1      26.473   2.110  52.441  1.00  0.00     0.162 HD
BRANCH  10  12
HETATM   12  C7  UNL     1      27.543   0.335  52.986  1.00  0.00     0.036 A 
HETATM   13  C8  UNL     1      27.564  -1.033  52.868  1.00  0.00     0.033 A 
HETATM   14  C9  UNL     1      28.698  -1.744  53.243  1.00  0.00     0.044 A 
HETATM   15  C10 UNL     1      29.813  -1.099  53.735  1.00  0.00     0.117 A 
HETATM   16  F1  UNL     1      30.959  -1.737  54.121  1.00  0.00    -0.206 F 
HETATM   17  C11 UNL     1      29.804   0.282  53.859  1.00  0.00     0.051 A 
HETATM   18  C12 UNL     1      28.663   0.997  53.481  1.00  0.00    -0.033 A 
HETATM   19  C13 UNL     1      28.580   2.485  53.587  1.00  0.00     0.050 C 
ENDBRANCH  10  12
ENDBRANCH   7  10
BRANCH   9  20
HETATM   20  O2  UNL     1      22.518   2.598  50.939  1.00  0.00    -0.348 OA
BRANCH  20  21
HETATM   21  C16 UNL     1      22.585   2.129  49.607  1.00  0.00     0.176 C 
BRANCH  21  22
HETATM   22  C17 UNL     1      22.994   3.305  48.742  1.00  0.00     0.042 C 
BRANCH  22  23
HETATM   23  C18 UNL     1      23.668   4.312  49.678  1.00  0.00     0.116 C 
HETATM   24 CL1  UNL     1      25.412   4.206  49.333  1.00  0.00    -0.130 Cl
ENDBRANCH  22  23
ENDBRANCH  21  22
ENDBRANCH  20  21
ENDBRANCH   9  20
BRANCH   1  25
HETATM   25  O1  UNL     1      20.460   1.973  52.367  1.00  0.00    -0.353 OA
HETATM   26  C1  UNL     1      19.407   1.142  51.898  1.00  0.00     0.210 C 
ENDBRANCH   1  25
TORSDOF 7
ENDMDL
MODEL 2
REMARK VINA RESULT:      -7.5      3.902      6.332
REMARK  7 active torsions:
REMARK  status: ('A' for Active; 'I' for Inactive)
REMARK    1  A    between atoms: O1_2  and  C2_3 
REMARK    2  A    between atoms: C6_9  and  N3_10 
REMARK    3  A    between atoms: N3_10  and  C7_11 
REMARK    4  A    between atoms: C15_20  and  O2_21 
REMARK    5  A    between atoms: O2_21  and  C16_22 
REMARK    6  A    between atoms: C16_22  and  C17_23 
REMARK    7  A    between atoms: C17_23  and  C18_24 
ROOT
HETATM    1  C2  UNL     1      25.854  -0.232  53.980  1.00  0.00     0.099 C 
HETATM    2  C3  UNL     1      27.075  -0.155  54.433  1.00  0.00     0.036 C 
HETATM    3  C4  UNL     1      28.435   0.201  54.643  1.00  0.00     0.261 C 
HETATM    4  N1  UNL     1      28.670   1.088  53.710  1.00  0.00    -0.295 NA
HETATM    5  C5  UNL     1      27.640   1.450  52.803  1.00  0.00     0.165 C 
HETATM    6  N2  UNL     1      26.963   2.478  52.459  1.00  0.00    -0.261 NA
HETATM    7  C6  UNL     1      25.958   2.279  51.403  1.00  0.00     0.233 C 
HETATM    8  C14 UNL     1      24.999   1.281  52.012  1.00  0.00     0.060 C 
HETATM    9  C15 UNL     1      25.011   0.353  52.988  1.00  0.00     0.101 C 
ENDROOT
BRANCH   7  10
HETATM   10  N3  UNL     1      25.326   3.516  51.100  1.00  0.00    -0.364 N 
HETATM   11  H8  UNL     1      24.415   3.746  51.558  1.00  0.00     0.162 HD
BRANCH  10  12
HETATM   12  C7  UNL     1      25.921   4.421  50.191  1.00  0.00     0.036 A 
HETATM   13  C8  UNL     1      27.003   4.052  49.432  1.00  0.00     0.033 A 
HETATM   14  C9  UNL     1      27.570   4.960  48.544  1.00  0.00     0.044 A 
HETATM   15  C10 UNL     1      27.063   6.235  48.409  1.00  0.00     0.117 A 
HETATM   16  F1  UNL     1      27.572   7.174  47.556  1.00  0.00    -0.206 F 
HETATM   17  C11 UNL     1      25.971   6.620  49.171  1.00  0.00     0.051 A 
HETATM   18  C12 UNL     1      25.400   5.706  50.064  1.00  0.00    -0.033 A 
HETATM   19  C13 UNL     1      24.223   6.050  50.917  1.00  0.00     0.050 C 
ENDBRANCH  10  12
ENDBRANCH   7  10
BRANCH   9  20
HETATM   20  O2  UNL     1      23.719  -0.220  53.007  1.00  0.00    -0.348 OA
BRANCH  20  21
HETATM   21  C16 UNL     1      22.721   0.553  52.371  1.00  0.00     0.176 C 
BRANCH  21  22
HETATM   22  C17 UNL     1      21.383   0.072  52.898  1.00  0.00     0.042 C 
BRANCH  22  23
HETATM   23  C18 UNL     1      21.558  -0.115  54.407  1.00  0.00     0.116 C 
HETATM   24 CL1  UNL     1      21.496  -1.871  54.691  1.00  0.00    -0.130 Cl
ENDBRANCH  22  23
ENDBRANCH  21  22
ENDBRANCH  20  21
ENDBRANCH   9  20
BRANCH   1  25
HETATM   25  O1  UNL     1      25.281  -1.224  54.800  1.00  0.00    -0.353 OA
HETATM   26  C1  UNL     1      25.110  -0.846  56.159  1.00  0.00     0.210 C 
ENDBRANCH   1  25
TORSDOF 7
ENDMDL
MODEL 3
REMARK VINA RESULT:      -7.3      2.490      4.427
REMARK  7 active torsions:
REMARK  status: ('A' for Active; 'I' for Inactive)
REMARK    1  A    between atoms: O1_2  and  C2_3 
REMARK    2  A    between atoms: C6_9  and  N3_10 
REMARK    3  A    between atoms: N3_10  and  C7_11 
REMARK    4  A    between atoms: C15_20  and  O2_21 
REMARK    5  A    between atoms: O2_21  and  C16_22 
REMARK    6  A    between atoms: C16_22  and  C17_23 
REMARK    7  A    between atoms: C17_23  and  C18_24 
ROOT
HETATM    1  C2  UNL     1      23.107   2.318  50.146  1.00  0.00     0.099 C 
HETATM    2  C3  UNL     1      23.994   3.146  49.664  1.00  0.00     0.036 C 
HETATM    3  C4  UNL     1      25.162   3.927  49.455  1.00  0.00     0.261 C 
HETATM    4  N1  UNL     1      25.915   3.638  50.487  1.00  0.00    -0.295 NA
HETATM    5  C5  UNL     1      25.450   2.725  51.467  1.00  0.00     0.165 C 
HETATM    6  N2  UNL     1      25.761   1.589  51.965  1.00  0.00    -0.261 NA
HETATM    7  C6  UNL     1      24.878   1.070  53.020  1.00  0.00     0.233 C 
HETATM    8  C14 UNL     1      23.545   0.915  52.320  1.00  0.00     0.060 C 
HETATM    9  C15 UNL     1      22.926   1.412  51.234  1.00  0.00     0.101 C 
ENDROOT
BRANCH   7  10
HETATM   10  N3  UNL     1      25.378  -0.170  53.502  1.00  0.00    -0.364 N 
HETATM   11  H8  UNL     1      24.705  -0.938  53.725  1.00  0.00     0.162 HD
BRANCH  10  12
HETATM   12  C7  UNL     1      26.769  -0.362  53.678  1.00  0.00     0.036 A 
HETATM   13  C8  UNL     1      27.484   0.418  54.551  1.00  0.00     0.033 A 
HETATM   14  C9  UNL     1      28.851   0.209  54.708  1.00  0.00     0.044 A 
HETATM   15  C10 UNL     1      29.507  -0.774  53.999  1.00  0.00     0.117 A 
HETATM   16  F1  UNL     1      30.845  -1.031  54.107  1.00  0.00    -0.206 F 
HETATM   17  C11 UNL     1      28.795  -1.569  53.114  1.00  0.00     0.051 A 
HETATM   18  C12 UNL     1      27.420  -1.359  52.956  1.00  0.00    -0.033 A 
HETATM   19  C13 UNL     1      26.588  -2.174  52.021  1.00  0.00     0.050 C 
ENDBRANCH  10  12
ENDBRANCH   7  10
BRANCH   9  20
HETATM   20  O2  UNL     1      21.654   0.797  51.185  1.00  0.00    -0.348 OA
BRANCH  20  21
HETATM   21  C16 UNL     1      21.301   0.079  52.351  1.00  0.00     0.176 C 
BRANCH  21  22
HETATM   22  C17 UNL     1      19.812   0.271  52.558  1.00  0.00     0.042 C 
BRANCH  22  23
HETATM   23  C18 UNL     1      19.360  -0.850  53.496  1.00  0.00     0.116 C 
HETATM   24 CL1  UNL     1      17.728  -1.312  52.956  1.00  0.00    -0.130 Cl
ENDBRANCH  22  23
ENDBRANCH  21  22
ENDBRANCH  20  21
ENDBRANCH   9  20
BRANCH   1  25
HETATM   25  O1  UNL     1      22.047   2.430  49.224  1.00  0.00    -0.353 OA
HETATM   26  C1  UNL     1      22.371   2.044  47.896  1.00  0.00     0.210 C 
ENDBRANCH   1  25
TORSDOF 7
ENDMDL
MODEL 4
REMARK VINA RESULT:      -7.3      3.713      6.117
REMARK  7 active torsions:
REMARK  status: ('A' for Active; 'I' for Inactive)
REMARK    1  A    between atoms: O1_2  and  C2_3 
REMARK    2  A    between atoms: C6_9  and  N3_10 
REMARK    3  A    between atoms: N3_10  and  C7_11 
REMARK    4  A    between atoms: C15_20  and  O2_21 
REMARK    5  A    between atoms: O2_21  and  C16_22 
REMARK    6  A    between atoms: C16_22  and  C17_23 
REMARK    7  A    between atoms: C17_23  and  C18_24 
ROOT
HETATM    1  C2  UNL     1      24.800  -0.112  53.580  1.00  0.00     0.099 C 
HETATM    2  C3  UNL     1      23.583  -0.456  53.904  1.00  0.00     0.036 C 
HETATM    3  C4  UNL     1      22.169  -0.543  54.004  1.00  0.00     0.261 C 
HETATM    4  N1  UNL     1      21.744   0.421  53.225  1.00  0.00    -0.295 NA
HETATM    5  C5  UNL     1      22.680   1.240  52.541  1.00  0.00     0.165 C 
HETATM    6  N2  UNL     1      23.020   1.539  51.346  1.00  0.00    -0.261 NA
HETATM    7  C6  UNL     1      24.123   2.501  51.199  1.00  0.00     0.233 C 
HETATM    8  C14 UNL     1      25.294   1.796  51.847  1.00  0.00     0.060 C 
HETATM    9  C15 UNL     1      25.495   0.812  52.743  1.00  0.00     0.101 C 
ENDROOT
BRANCH   7  10
HETATM   10  N3  UNL     1      24.352   2.766  49.821  1.00  0.00    -0.364 N 
HETATM   11  H8  UNL     1      23.856   2.190  49.104  1.00  0.00     0.162 HD
BRANCH  10  12
HETATM   12  C7  UNL     1      25.238   3.795  49.427  1.00  0.00     0.036 A 
HETATM   13  C8  UNL     1      26.587   3.564  49.321  1.00  0.00     0.033 A 
HETATM   14  C9  UNL     1      27.439   4.592  48.930  1.00  0.00     0.044 A 
HETATM   15  C10 UNL     1      26.952   5.850  48.644  1.00  0.00     0.117 A 
HETATM   16  F1  UNL     1      27.733   6.902  48.255  1.00  0.00    -0.206 F 
HETATM   17  C11 UNL     1      25.591   6.096  48.748  1.00  0.00     0.051 A 
HETATM   18  C12 UNL     1      24.735   5.062  49.140  1.00  0.00    -0.033 A 
HETATM   19  C13 UNL     1      23.259   5.252  49.275  1.00  0.00     0.050 C 
ENDBRANCH  10  12
ENDBRANCH   7  10
BRANCH   9  20
HETATM   20  O2  UNL     1      26.895   0.673  52.874  1.00  0.00    -0.348 OA
BRANCH  20  21
HETATM   21  C16 UNL     1      27.570   1.848  53.278  1.00  0.00     0.176 C 
BRANCH  21  22
HETATM   22  C17 UNL     1      28.971   1.438  53.689  1.00  0.00     0.042 C 
BRANCH  22  23
HETATM   23  C18 UNL     1      28.826   0.116  54.445  1.00  0.00     0.116 C 
HETATM   24 CL1  UNL     1      29.815  -1.067  53.554  1.00  0.00    -0.130 Cl
ENDBRANCH  22  23
ENDBRANCH  21  22
ENDBRANCH  20  21
ENDBRANCH   9  20
BRANCH   1  25
HETATM   25  O1  UNL     1      25.586  -0.993  54.349  1.00  0.00    -0.353 OA
HETATM   26  C1  UNL     1      25.320  -0.962  55.745  1.00  0.00     0.210 C 
ENDBRANCH   1  25
TORSDOF 7
ENDMDL
MODEL 5
REMARK VINA RESULT:      -7.3      3.427      5.699
REMARK  7 active torsions:
REMARK  status: ('A' for Active; 'I' for Inactive)
REMARK    1  A    between atoms: O1_2  and  C2_3 
REMARK    2  A    between atoms: C6_9  and  N3_10 
REMARK    3  A    between atoms: N3_10  and  C7_11 
REMARK    4  A    between atoms: C15_20  and  O2_21 
REMARK    5  A    between atoms: O2_21  and  C16_22 
REMARK    6  A    between atoms: C16_22  and  C17_23 
REMARK    7  A    between atoms: C17_23  and  C18_24 
ROOT
HETATM    1  C2  UNL     1      24.853   0.491  53.632  1.00  0.00     0.099 C 
HETATM    2  C3  UNL     1      23.905  -0.384  53.433  1.00  0.00     0.036 C 
HETATM    3  C4  UNL     1      22.683  -1.019  53.082  1.00  0.00     0.261 C 
HETATM    4  N1  UNL     1      21.934  -0.032  52.656  1.00  0.00    -0.295 NA
HETATM    5  C5  UNL     1      22.447   1.291  52.645  1.00  0.00     0.165 C 
HETATM    6  N2  UNL     1      22.714   2.224  51.813  1.00  0.00    -0.261 NA
HETATM    7  C6  UNL     1      23.265   3.466  52.375  1.00  0.00     0.233 C 
HETATM    8  C14 UNL     1      24.568   3.023  53.002  1.00  0.00     0.060 C 
HETATM    9  C15 UNL     1      25.118   1.883  53.459  1.00  0.00     0.101 C 
ENDROOT
BRANCH   7  10
HETATM   10  N3  UNL     1      23.464   4.418  51.339  1.00  0.00    -0.364 N 
HETATM   11  H8  UNL     1      22.720   5.129  51.152  1.00  0.00     0.162 HD
BRANCH  10  12
HETATM   12  C7  UNL     1      24.652   4.404  50.571  1.00  0.00     0.036 A 
HETATM   13  C8  UNL     1      25.222   3.220  50.173  1.00  0.00     0.033 A 
HETATM   14  C9  UNL     1      26.389   3.232  49.417  1.00  0.00     0.044 A 
HETATM   15  C10 UNL     1      26.992   4.419  49.055  1.00  0.00     0.117 A 
HETATM   16  F1  UNL     1      28.137   4.500  48.315  1.00  0.00    -0.206 F 
HETATM   17  C11 UNL     1      26.425   5.621  49.451  1.00  0.00     0.051 A 
HETATM   18  C12 UNL     1      25.251   5.608  50.211  1.00  0.00    -0.033 A 
HETATM   19  C13 UNL     1      24.585   6.863  50.675  1.00  0.00     0.050 C 
ENDBRANCH  10  12
ENDBRANCH   7  10
BRANCH   9  20
HETATM   20  O2  UNL     1      26.411   2.221  53.920  1.00  0.00    -0.348 OA
BRANCH  20  21
HETATM   21  C16 UNL     1      27.420   2.175  52.931  1.00  0.00     0.176 C 
BRANCH  21  22
HETATM   22  C17 UNL     1      28.735   2.477  53.624  1.00  0.00     0.042 C 
BRANCH  22  23
HETATM   23  C18 UNL     1      29.063   1.250  54.477  1.00  0.00     0.116 C 
HETATM   24 CL1  UNL     1      29.806   0.070  53.370  1.00  0.00    -0.130 Cl
ENDBRANCH  22  23
ENDBRANCH  21  22
ENDBRANCH  20  21
ENDBRANCH   9  20
BRANCH   1  25
HETATM   25  O1  UNL     1      25.885  -0.292  54.186  1.00  0.00    -0.353 OA
HETATM   26  C1  UNL     1      26.423  -1.272  53.308  1.00  0.00     0.210 C 
ENDBRANCH   1  25
TORSDOF 7
ENDMDL
MODEL 6
REMARK VINA RESULT:      -7.3      3.577      6.411
REMARK  7 active torsions:
REMARK  status: ('A' for Active; 'I' for Inactive)
REMARK    1  A    between atoms: O1_2  and  C2_3 
REMARK    2  A    between atoms: C6_9  and  N3_10 
REMARK    3  A    between atoms: N3_10  and  C7_11 
REMARK    4  A    between atoms: C15_20  and  O2_21 
REMARK    5  A    between atoms: O2_21  and  C16_22 
REMARK    6  A    between atoms: C16_22  and  C17_23 
REMARK    7  A    between atoms: C17_23  and  C18_24 
ROOT
HETATM    1  C2  UNL     1      26.083  -0.256  54.057  1.00  0.00     0.099 C 
HETATM    2  C3  UNL     1      27.308  -0.220  54.505  1.00  0.00     0.036 C 
HETATM    3  C4  UNL     1      28.677   0.097  54.716  1.00  0.00     0.261 C 
HETATM    4  N1  UNL     1      28.929   1.000  53.801  1.00  0.00    -0.295 NA
HETATM    5  C5  UNL     1      27.904   1.407  52.908  1.00  0.00     0.165 C 
HETATM    6  N2  UNL     1      27.251   2.459  52.591  1.00  0.00    -0.261 NA
HETATM    7  C6  UNL     1      26.236   2.309  51.538  1.00  0.00     0.233 C 
HETATM    8  C14 UNL     1      25.256   1.321  52.129  1.00  0.00     0.060 C 
HETATM    9  C15 UNL     1      25.250   0.372  53.083  1.00  0.00     0.101 C 
ENDROOT
BRANCH   7  10
HETATM   10  N3  UNL     1      25.633   3.567  51.266  1.00  0.00    -0.364 N 
HETATM   11  H8  UNL     1      26.127   4.441  51.559  1.00  0.00     0.162 HD
BRANCH  10  12
HETATM   12  C7  UNL     1      24.382   3.635  50.609  1.00  0.00     0.036 A 
HETATM   13  C8  UNL     1      24.246   3.231  49.305  1.00  0.00     0.033 A 
HETATM   14  C9  UNL     1      23.004   3.307  48.681  1.00  0.00     0.044 A 
HETATM   15  C10 UNL     1      21.898   3.783  49.352  1.00  0.00     0.117 A 
HETATM   16  F1  UNL     1      20.652   3.883  48.799  1.00  0.00    -0.206 F 
HETATM   17  C11 UNL     1      22.023   4.195  50.670  1.00  0.00     0.051 A 
HETATM   18  C12 UNL     1      23.272   4.118  51.297  1.00  0.00    -0.033 A 
HETATM   19  C13 UNL     1      23.483   4.544  52.714  1.00  0.00     0.050 C 
ENDBRANCH  10  12
ENDBRANCH   7  10
BRANCH   9  20
HETATM   20  O2  UNL     1      23.944  -0.170  53.097  1.00  0.00    -0.348 OA
BRANCH  20  21
HETATM   21  C16 UNL     1      22.909   0.780  52.940  1.00  0.00     0.176 C 
BRANCH  21  22
HETATM   22  C17 UNL     1      21.636   0.142  53.460  1.00  0.00     0.042 C 
BRANCH  22  23
HETATM   23  C18 UNL     1      20.596   0.290  52.347  1.00  0.00     0.116 C 
HETATM   24 CL1  UNL     1      21.520   0.527  50.844  1.00  0.00    -0.130 Cl
ENDBRANCH  22  23
ENDBRANCH  21  22
ENDBRANCH  20  21
ENDBRANCH   9  20
BRANCH   1  25
HETATM   25  O1  UNL     1      25.490  -1.253  54.858  1.00  0.00    -0.353 OA
HETATM   26  C1  UNL     1      25.167  -0.840  56.179  1.00  0.00     0.210 C 
ENDBRANCH   1  25
TORSDOF 7
ENDMDL
MODEL 7
REMARK VINA RESULT:      -7.1      4.103      6.983
REMARK  7 active torsions:
REMARK  status: ('A' for Active; 'I' for Inactive)
REMARK    1  A    between atoms: O1_2  and  C2_3 
REMARK    2  A    between atoms: C6_9  and  N3_10 
REMARK    3  A    between atoms: N3_10  and  C7_11 
REMARK    4  A    between atoms: C15_20  and  O2_21 
REMARK    5  A    between atoms: O2_21  and  C16_22 
REMARK    6  A    between atoms: C16_22  and  C17_23 
REMARK    7  A    between atoms: C17_23  and  C18_24 
ROOT
HETATM    1  C2  UNL     1      25.018   0.021  53.673  1.00  0.00     0.099 C 
HETATM    2  C3  UNL     1      23.933  -0.638  53.367  1.00  0.00     0.036 C 
HETATM    3  C4  UNL     1      22.619  -0.994  52.961  1.00  0.00     0.261 C 
HETATM    4  N1  UNL     1      22.046   0.160  52.725  1.00  0.00    -0.295 NA
HETATM    5  C5  UNL     1      22.777   1.362  52.911  1.00  0.00     0.165 C 
HETATM    6  N2  UNL     1      23.193   2.362  52.233  1.00  0.00    -0.261 NA
HETATM    7  C6  UNL     1      23.951   3.385  52.969  1.00  0.00     0.233 C 
HETATM    8  C14 UNL     1      25.164   2.634  53.471  1.00  0.00     0.060 C 
HETATM    9  C15 UNL     1      25.515   1.358  53.718  1.00  0.00     0.101 C 
ENDROOT
BRANCH   7  10
HETATM   10  N3  UNL     1      24.303   4.449  52.094  1.00  0.00    -0.364 N 
HETATM   11  H8  UNL     1      25.254   4.875  52.169  1.00  0.00     0.162 HD
BRANCH  10  12
HETATM   12  C7  UNL     1      23.377   4.923  51.135  1.00  0.00     0.036 A 
HETATM   13  C8  UNL     1      22.210   5.534  51.521  1.00  0.00     0.033 A 
HETATM   14  C9  UNL     1      21.317   5.993  50.558  1.00  0.00     0.044 A 
HETATM   15  C10 UNL     1      21.582   5.848  49.213  1.00  0.00     0.117 A 
HETATM   16  F1  UNL     1      20.748   6.276  48.219  1.00  0.00    -0.206 F 
HETATM   17  C11 UNL     1      22.758   5.233  48.811  1.00  0.00     0.051 A 
HETATM   18  C12 UNL     1      23.656   4.771  49.779  1.00  0.00    -0.033 A 
HETATM   19  C13 UNL     1      24.941   4.098  49.421  1.00  0.00     0.050 C 
ENDBRANCH  10  12
ENDBRANCH   7  10
BRANCH   9  20
HETATM   20  O2  UNL     1      26.849   1.396  54.183  1.00  0.00    -0.348 OA
BRANCH  20  21
HETATM   21  C16 UNL     1      27.686   2.307  53.500  1.00  0.00     0.176 C 
BRANCH  21  22
HETATM   22  C17 UNL     1      29.116   1.862  53.738  1.00  0.00     0.042 C 
BRANCH  22  23
HETATM   23  C18 UNL     1      29.032   0.550  54.523  1.00  0.00     0.116 C 
HETATM   24 CL1  UNL     1      30.025  -0.621  53.623  1.00  0.00    -0.130 Cl
ENDBRANCH  22  23
ENDBRANCH  21  22
ENDBRANCH  20  21
ENDBRANCH   9  20
BRANCH   1  25
HETATM   25  O1  UNL     1      25.905  -1.004  54.057  1.00  0.00    -0.353 OA
HETATM   26  C1  UNL     1      26.569  -1.649  52.979  1.00  0.00     0.210 C 
ENDBRANCH   1  25
TORSDOF 7
ENDMDL
MODEL 8
REMARK VINA RESULT:      -7.0      3.342      5.164
REMARK  7 active torsions:
REMARK  status: ('A' for Active; 'I' for Inactive)
REMARK    1  A    between atoms: O1_2  and  C2_3 
REMARK    2  A    between atoms: C6_9  and  N3_10 
REMARK    3  A    between atoms: N3_10  and  C7_11 
REMARK    4  A    between atoms: C15_20  and  O2_21 
REMARK    5  A    between atoms: O2_21  and  C16_22 
REMARK    6  A    between atoms: C16_22  and  C17_23 
REMARK    7  A    between atoms: C17_23  and  C18_24 
ROOT
HETATM    1  C2  UNL     1      23.157   0.102  52.905  1.00  0.00     0.099 C 
HETATM    2  C3  UNL     1      24.080  -0.337  53.718  1.00  0.00     0.036 C 
HETATM    3  C4  UNL     1      25.299  -0.539  54.420  1.00  0.00     0.261 C 
HETATM    4  N1  UNL     1      26.123   0.310  53.858  1.00  0.00    -0.295 NA
HETATM    5  C5  UNL     1      25.671   1.138  52.799  1.00  0.00     0.165 C 
HETATM    6  N2  UNL     1      25.515   2.379  52.532  1.00  0.00    -0.261 NA
HETATM    7  C6  UNL     1      24.973   2.701  51.203  1.00  0.00     0.233 C 
HETATM    8  C14 UNL     1      23.603   2.059  51.215  1.00  0.00     0.060 C 
HETATM    9  C15 UNL     1      22.968   1.078  51.881  1.00  0.00     0.101 C 
ENDROOT
BRANCH   7  10
HETATM   10  N3  UNL     1      24.904   4.112  51.039  1.00  0.00    -0.364 N 
HETATM   11  H8  UNL     1      24.204   4.654  51.595  1.00  0.00     0.162 HD
BRANCH  10  12
HETATM   12  C7  UNL     1      25.769   4.772  50.136  1.00  0.00     0.036 A 
HETATM   13  C8  UNL     1      26.775   4.092  49.496  1.00  0.00     0.033 A 
HETATM   14  C9  UNL     1      27.612   4.763  48.611  1.00  0.00     0.044 A 
HETATM   15  C10 UNL     1      27.453   6.110  48.361  1.00  0.00     0.117 A 
HETATM   16  F1  UNL     1      28.239   6.827  47.505  1.00  0.00    -0.206 F 
HETATM   17  C11 UNL     1      26.441   6.808  49.003  1.00  0.00     0.051 A 
HETATM   18  C12 UNL     1      25.598   6.132  49.892  1.00  0.00    -0.033 A 
HETATM   19  C13 UNL     1      24.488   6.818  50.620  1.00  0.00     0.050 C 
ENDBRANCH  10  12
ENDBRANCH   7  10
BRANCH   9  20
HETATM   20  O2  UNL     1      21.657   1.024  51.356  1.00  0.00    -0.348 OA
BRANCH  20  21
HETATM   21  C16 UNL     1      21.590   0.879  49.951  1.00  0.00     0.176 C 
BRANCH  21  22
HETATM   22  C17 UNL     1      20.379   1.661  49.480  1.00  0.00     0.042 C 
BRANCH  22  23
HETATM   23  C18 UNL     1      20.737   2.217  48.100  1.00  0.00     0.116 C 
HETATM   24 CL1  UNL     1      22.434   2.743  48.211  1.00  0.00    -0.130 Cl
ENDBRANCH  22  23
ENDBRANCH  21  22
ENDBRANCH  20  21
ENDBRANCH   9  20
BRANCH   1  25
HETATM   25  O1  UNL     1      22.049  -0.705  53.232  1.00  0.00    -0.353 OA
HETATM   26  C1  UNL     1      21.571  -0.547  54.560  1.00  0.00     0.210 C 
ENDBRANCH   1  25
TORSDOF 7
ENDMDL
MODEL 9
REMARK VINA RESULT:      -7.0      3.694      5.617
REMARK  7 active torsions:
REMARK  status: ('A' for Active; 'I' for Inactive)
REMARK    1  A    between atoms: O1_2  and  C2_3 
REMARK    2  A    between atoms: C6_9  and  N3_10 
REMARK    3  A    between atoms: N3_10  and  C7_11 
REMARK    4  A    between atoms: C15_20  and  O2_21 
REMARK    5  A    between atoms: O2_21  and  C16_22 
REMARK    6  A    between atoms: C16_22  and  C17_23 
REMARK    7  A    between atoms: C17_23  and  C18_24 
ROOT
HETATM    1  C2  UNL     1      23.405  -0.065  53.043  1.00  0.00     0.099 C 
HETATM    2  C3  UNL     1      24.452  -0.584  53.626  1.00  0.00     0.036 C 
HETATM    3  C4  UNL     1      25.776  -0.869  54.055  1.00  0.00     0.261 C 
HETATM    4  N1  UNL     1      26.508  -0.011  53.388  1.00  0.00    -0.295 NA
HETATM    5  C5  UNL     1      25.889   0.898  52.492  1.00  0.00     0.165 C 
HETATM    6  N2  UNL     1      25.737   2.158  52.334  1.00  0.00    -0.261 NA
HETATM    7  C6  UNL     1      24.955   2.583  51.163  1.00  0.00     0.233 C 
HETATM    8  C14 UNL     1      23.589   1.984  51.414  1.00  0.00     0.060 C 
HETATM    9  C15 UNL     1      23.058   0.981  52.137  1.00  0.00     0.101 C 
ENDROOT
BRANCH   7  10
HETATM   10  N3  UNL     1      24.916   4.002  51.099  1.00  0.00    -0.364 N 
HETATM   11  H8  UNL     1      24.258   4.521  51.723  1.00  0.00     0.162 HD
BRANCH  10  12
HETATM   12  C7  UNL     1      25.756   4.703  50.201  1.00  0.00     0.036 A 
HETATM   13  C8  UNL     1      26.746   4.054  49.507  1.00  0.00     0.033 A 
HETATM   14  C9  UNL     1      27.558   4.764  48.629  1.00  0.00     0.044 A 
HETATM   15  C10 UNL     1      27.387   6.120  48.440  1.00  0.00     0.117 A 
HETATM   16  F1  UNL     1      28.149   6.875  47.594  1.00  0.00    -0.206 F 
HETATM   17  C11 UNL     1      26.391   6.786  49.136  1.00  0.00     0.051 A 
HETATM   18  C12 UNL     1      25.574   6.071  50.018  1.00  0.00    -0.033 A 
HETATM   19  C13 UNL     1      24.481   6.722  50.802  1.00  0.00     0.050 C 
ENDBRANCH  10  12
ENDBRANCH   7  10
BRANCH   9  20
HETATM   20  O2  UNL     1      21.667   1.002  51.885  1.00  0.00    -0.348 OA
BRANCH  20  21
HETATM   21  C16 UNL     1      21.304   0.690  50.554  1.00  0.00     0.176 C 
BRANCH  21  22
HETATM   22  C17 UNL     1      19.790   0.621  50.511  1.00  0.00     0.042 C 
BRANCH  22  23
HETATM   23  C18 UNL     1      19.318   0.639  51.967  1.00  0.00     0.116 C 
HETATM   24 CL1  UNL     1      18.113  -0.664  52.106  1.00  0.00    -0.130 Cl
ENDBRANCH  22  23
ENDBRANCH  21  22
ENDBRANCH  20  21
ENDBRANCH   9  20
BRANCH   1  25
HETATM   25  O1  UNL     1      22.351  -0.857  53.540  1.00  0.00    -0.353 OA
HETATM   26  C1  UNL     1      22.179  -0.802  54.949  1.00  0.00     0.210 C 
ENDBRANCH   1  25
TORSDOF 7
ENDMDL
