MODEL 1
REMARK VINA RESULT:      -7.1      0.000      0.000
REMARK  1 active torsions:
REMARK  status: ('A' for Active; 'I' for Inactive)
REMARK    1  A    between atoms: C11_16  and  N4_17 
ROOT
HETATM    1 CL1  UNL     1      22.138   0.989  53.106  1.00  0.00    -0.087 Cl
HETATM    2  C1  UNL     1      22.873   1.255  51.509  1.00  0.00     0.046 C 
HETATM    3  C2  UNL     1      22.190   1.203  50.330  1.00  0.00     0.014 C 
HETATM    4  C3  UNL     1      21.320   1.114  49.162  1.00  0.00     0.150 C 
HETATM    5  N1  UNL     1      21.359   2.449  48.443  1.00  0.00    -0.371 N 
HETATM    6  C4  UNL     1      21.273   3.161  49.706  1.00  0.00     0.132 A 
HETATM    7  N2  UNL     1      20.229   3.325  50.529  1.00  0.00    -0.225 NA
HETATM    8  C5  UNL     1      20.342   3.821  51.802  1.00  0.00     0.230 A 
HETATM    9  N3  UNL     1      21.620   4.153  52.231  1.00  0.00    -0.263 NA
HETATM   10  C6  UNL     1      22.614   3.950  51.324  1.00  0.00     0.125 A 
HETATM   11  C7  UNL     1      22.572   3.478  50.033  1.00  0.00     0.023 A 
HETATM   12  C8  UNL     1      23.787   3.605  49.141  1.00  0.00     0.210 C 
HETATM   13  O1  UNL     1      24.879   3.632  50.137  1.00  0.00    -0.370 OA
HETATM   14  C9  UNL     1      24.264   3.276  51.397  1.00  0.00     0.136 A 
HETATM   15  C10 UNL     1      23.691   3.922  52.392  1.00  0.00     0.074 A 
HETATM   16  C11 UNL     1      24.328   1.754  51.523  1.00  0.00     0.304 C 
HETATM   17  H4  UNL     1      21.419   2.864  47.488  1.00  0.00     0.161 HD
ENDROOT
BRANCH  16  18
HETATM   18  N4  UNL     1      24.928   1.313  52.725  1.00  0.00     0.101 N 
HETATM   19  C12 UNL     1      26.151   2.002  53.043  1.00  0.00     0.273 C 
HETATM   20  C13 UNL     1      26.985   1.331  54.069  1.00  0.00     0.030 C 
HETATM   21  C14 UNL     1      27.204  -0.140  53.812  1.00  0.00     0.003 C 
HETATM   22  C15 UNL     1      26.508  -0.482  52.486  1.00  0.00     0.030 C 
HETATM   23  C16 UNL     1      25.038  -0.128  52.728  1.00  0.00     0.273 C 
ENDBRANCH  16  18
TORSDOF 1
ENDMDL
MODEL 2
REMARK VINA RESULT:      -7.0      2.237      3.514
REMARK  1 active torsions:
REMARK  status: ('A' for Active; 'I' for Inactive)
REMARK    1  A    between atoms: C11_16  and  N4_17 
ROOT
HETATM    1 CL1  UNL     1      25.860   3.643  49.310  1.00  0.00    -0.087 Cl
HETATM    2  C1  UNL     1      24.944   4.127  50.756  1.00  0.00     0.046 C 
HETATM    3  C2  UNL     1      24.452   5.380  50.971  1.00  0.00     0.014 C 
HETATM    4  C3  UNL     1      23.992   6.763  51.049  1.00  0.00     0.150 C 
HETATM    5  N1  UNL     1      22.479   6.751  51.153  1.00  0.00    -0.371 N 
HETATM    6  C4  UNL     1      22.391   5.721  50.134  1.00  0.00     0.132 A 
HETATM    7  N2  UNL     1      22.572   5.807  48.810  1.00  0.00    -0.225 NA
HETATM    8  C5  UNL     1      22.688   4.713  47.991  1.00  0.00     0.230 A 
HETATM    9  N3  UNL     1      22.617   3.467  48.601  1.00  0.00    -0.263 NA
HETATM   10  C6  UNL     1      22.433   3.484  49.948  1.00  0.00     0.125 A 
HETATM   11  C7  UNL     1      22.290   4.533  50.825  1.00  0.00     0.023 A 
HETATM   12  C8  UNL     1      21.823   4.279  52.241  1.00  0.00     0.210 C 
HETATM   13  O1  UNL     1      22.270   2.886  52.450  1.00  0.00    -0.370 OA
HETATM   14  C9  UNL     1      23.123   2.578  51.323  1.00  0.00     0.136 A 
HETATM   15  C10 UNL     1      22.961   2.072  50.118  1.00  0.00     0.074 A 
HETATM   16  C11 UNL     1      24.547   2.981  51.704  1.00  0.00     0.304 C 
HETATM   17  H4  UNL     1      21.690   7.202  51.665  1.00  0.00     0.161 HD
ENDROOT
BRANCH  16  18
HETATM   18  N4  UNL     1      25.489   1.940  51.545  1.00  0.00     0.101 N 
HETATM   19  C12 UNL     1      25.140   0.737  52.256  1.00  0.00     0.273 C 
HETATM   20  C13 UNL     1      26.256  -0.226  52.418  1.00  0.00     0.030 C 
HETATM   21  C14 UNL     1      27.531   0.396  52.932  1.00  0.00     0.003 C 
HETATM   22  C15 UNL     1      27.244   1.883  53.185  1.00  0.00     0.030 C 
HETATM   23  C16 UNL     1      26.823   2.426  51.818  1.00  0.00     0.273 C 
ENDBRANCH  16  18
TORSDOF 1
ENDMDL
MODEL 3
REMARK VINA RESULT:      -6.6      9.129     10.108
REMARK  1 active torsions:
REMARK  status: ('A' for Active; 'I' for Inactive)
REMARK    1  A    between atoms: C11_16  and  N4_17 
ROOT
HETATM    1 CL1  UNL     1      31.671   6.134  49.727  1.00  0.00    -0.087 Cl
HETATM    2  C1  UNL     1      30.718   6.166  48.226  1.00  0.00     0.046 C 
HETATM    3  C2  UNL     1      29.385   6.447  48.167  1.00  0.00     0.014 C 
HETATM    4  C3  UNL     1      27.965   6.767  48.274  1.00  0.00     0.150 C 
HETATM    5  N1  UNL     1      27.701   8.012  47.449  1.00  0.00    -0.371 N 
HETATM    6  C4  UNL     1      28.910   8.636  47.953  1.00  0.00     0.132 A 
HETATM    7  N2  UNL     1      29.167   9.158  49.160  1.00  0.00    -0.225 NA
HETATM    8  C5  UNL     1      30.425   9.506  49.580  1.00  0.00     0.230 A 
HETATM    9  N3  UNL     1      31.465   9.284  48.687  1.00  0.00    -0.263 NA
HETATM   10  C6  UNL     1      31.104   8.750  47.489  1.00  0.00     0.125 A 
HETATM   11  C7  UNL     1      29.870   8.397  46.995  1.00  0.00     0.023 A 
HETATM   12  C8  UNL     1      29.705   8.077  45.526  1.00  0.00     0.210 C 
HETATM   13  O1  UNL     1      31.066   7.621  45.172  1.00  0.00    -0.370 OA
HETATM   14  C9  UNL     1      31.766   7.475  46.430  1.00  0.00     0.136 A 
HETATM   15  C10 UNL     1      32.505   8.244  47.202  1.00  0.00     0.074 A 
HETATM   16  C11 UNL     1      31.528   6.047  46.923  1.00  0.00     0.304 C 
HETATM   17  H4  UNL     1      27.018   8.416  46.772  1.00  0.00     0.161 HD
ENDROOT
BRANCH  16  18
HETATM   18  N4  UNL     1      32.720   5.346  47.214  1.00  0.00     0.101 N 
HETATM   19  C12 UNL     1      33.690   5.395  46.150  1.00  0.00     0.273 C 
HETATM   20  C13 UNL     1      34.772   4.388  46.260  1.00  0.00     0.030 C 
HETATM   21  C14 UNL     1      34.278   2.986  46.524  1.00  0.00     0.003 C 
HETATM   22  C15 UNL     1      32.744   3.038  46.546  1.00  0.00     0.030 C 
HETATM   23  C16 UNL     1      32.414   4.012  47.679  1.00  0.00     0.273 C 
ENDBRANCH  16  18
TORSDOF 1
ENDMDL
MODEL 4
REMARK VINA RESULT:      -6.6      2.593      3.762
REMARK  1 active torsions:
REMARK  status: ('A' for Active; 'I' for Inactive)
REMARK    1  A    between atoms: C11_16  and  N4_17 
ROOT
HETATM    1 CL1  UNL     1      23.371   4.111  52.595  1.00  0.00    -0.087 Cl
HETATM    2  C1  UNL     1      23.354   2.758  51.441  1.00  0.00     0.046 C 
HETATM    3  C2  UNL     1      22.833   1.527  51.708  1.00  0.00     0.014 C 
HETATM    4  C3  UNL     1      22.235   0.270  52.147  1.00  0.00     0.150 C 
HETATM    5  N1  UNL     1      21.082  -0.053  51.216  1.00  0.00    -0.371 N 
HETATM    6  C4  UNL     1      20.640   1.330  51.239  1.00  0.00     0.132 A 
HETATM    7  N2  UNL     1      20.023   2.017  52.209  1.00  0.00    -0.225 NA
HETATM    8  C5  UNL     1      19.871   3.380  52.190  1.00  0.00     0.230 A 
HETATM    9  N3  UNL     1      20.404   4.051  51.098  1.00  0.00    -0.263 NA
HETATM   10  C6  UNL     1      21.012   3.267  50.167  1.00  0.00     0.125 A 
HETATM   11  C7  UNL     1      21.183   1.904  50.111  1.00  0.00     0.023 A 
HETATM   12  C8  UNL     1      21.656   1.252  48.830  1.00  0.00     0.210 C 
HETATM   13  O1  UNL     1      22.407   2.358  48.200  1.00  0.00    -0.370 OA
HETATM   14  C9  UNL     1      22.518   3.381  49.217  1.00  0.00     0.136 A 
HETATM   15  C10 UNL     1      21.810   4.425  49.597  1.00  0.00     0.074 A 
HETATM   16  C11 UNL     1      23.796   3.103  50.008  1.00  0.00     0.304 C 
HETATM   17  H4  UNL     1      20.647  -0.845  50.695  1.00  0.00     0.161 HD
ENDROOT
BRANCH  16  18
HETATM   18  N4  UNL     1      24.669   4.213  50.078  1.00  0.00     0.101 N 
HETATM   19  C12 UNL     1      24.586   5.080  48.931  1.00  0.00     0.273 C 
HETATM   20  C13 UNL     1      25.721   6.025  48.794  1.00  0.00     0.030 C 
HETATM   21  C14 UNL     1      27.076   5.376  48.927  1.00  0.00     0.003 C 
HETATM   22  C15 UNL     1      26.846   3.870  49.121  1.00  0.00     0.030 C 
HETATM   23  C16 UNL     1      26.009   3.777  50.398  1.00  0.00     0.273 C 
ENDBRANCH  16  18
TORSDOF 1
ENDMDL
MODEL 5
REMARK VINA RESULT:      -6.4      2.005      2.613
REMARK  1 active torsions:
REMARK  status: ('A' for Active; 'I' for Inactive)
REMARK    1  A    between atoms: C11_16  and  N4_17 
ROOT
HETATM    1 CL1  UNL     1      23.774   4.758  53.314  1.00  0.00    -0.087 Cl
HETATM    2  C1  UNL     1      22.993   3.827  52.017  1.00  0.00     0.046 C 
HETATM    3  C2  UNL     1      21.716   4.032  51.584  1.00  0.00     0.014 C 
HETATM    4  C3  UNL     1      20.341   4.378  51.238  1.00  0.00     0.150 C 
HETATM    5  N1  UNL     1      20.314   4.791  49.778  1.00  0.00    -0.371 N 
HETATM    6  C4  UNL     1      21.529   5.566  49.947  1.00  0.00     0.132 A 
HETATM    7  N2  UNL     1      21.719   6.741  50.560  1.00  0.00    -0.225 NA
HETATM    8  C5  UNL     1      22.959   7.250  50.850  1.00  0.00     0.230 A 
HETATM    9  N3  UNL     1      24.052   6.476  50.483  1.00  0.00    -0.263 NA
HETATM   10  C6  UNL     1      23.757   5.299  49.868  1.00  0.00     0.125 A 
HETATM   11  C7  UNL     1      22.549   4.738  49.530  1.00  0.00     0.023 A 
HETATM   12  C8  UNL     1      22.501   3.543  48.604  1.00  0.00     0.210 C 
HETATM   13  O1  UNL     1      23.827   2.935  48.843  1.00  0.00    -0.370 OA
HETATM   14  C9  UNL     1      24.370   3.628  49.992  1.00  0.00     0.136 A 
HETATM   15  C10 UNL     1      25.111   4.697  50.195  1.00  0.00     0.074 A 
HETATM   16  C11 UNL     1      23.914   2.871  51.239  1.00  0.00     0.304 C 
HETATM   17  H4  UNL     1      19.757   4.672  48.904  1.00  0.00     0.161 HD
ENDROOT
BRANCH  16  18
HETATM   18  N4  UNL     1      24.978   2.501  52.094  1.00  0.00     0.101 N 
HETATM   19  C12 UNL     1      26.146   2.040  51.389  1.00  0.00     0.273 C 
HETATM   20  C13 UNL     1      27.122   1.309  52.233  1.00  0.00     0.030 C 
HETATM   21  C14 UNL     1      26.504   0.230  53.087  1.00  0.00     0.003 C 
HETATM   22  C15 UNL     1      25.003   0.194  52.763  1.00  0.00     0.030 C 
HETATM   23  C16 UNL     1      24.505   1.597  53.117  1.00  0.00     0.273 C 
ENDBRANCH  16  18
TORSDOF 1
ENDMDL
MODEL 6
REMARK VINA RESULT:      -6.4      2.734      4.522
REMARK  1 active torsions:
REMARK  status: ('A' for Active; 'I' for Inactive)
REMARK    1  A    between atoms: C11_16  and  N4_17 
ROOT
HETATM    1 CL1  UNL     1      25.575   2.856  50.285  1.00  0.00    -0.087 Cl
HETATM    2  C1  UNL     1      23.952   3.441  49.854  1.00  0.00     0.046 C 
HETATM    3  C2  UNL     1      22.938   2.642  49.414  1.00  0.00     0.014 C 
HETATM    4  C3  UNL     1      21.962   1.656  48.961  1.00  0.00     0.150 C 
HETATM    5  N1  UNL     1      20.780   1.693  49.911  1.00  0.00    -0.371 N 
HETATM    6  C4  UNL     1      21.669   1.770  51.056  1.00  0.00     0.132 A 
HETATM    7  N2  UNL     1      22.437   0.824  51.611  1.00  0.00    -0.225 NA
HETATM    8  C5  UNL     1      23.405   1.088  52.546  1.00  0.00     0.230 A 
HETATM    9  N3  UNL     1      23.578   2.418  52.905  1.00  0.00    -0.263 NA
HETATM   10  C6  UNL     1      22.752   3.305  52.286  1.00  0.00     0.125 A 
HETATM   11  C7  UNL     1      21.753   3.110  51.361  1.00  0.00     0.023 A 
HETATM   12  C8  UNL     1      20.797   4.235  51.032  1.00  0.00     0.210 C 
HETATM   13  O1  UNL     1      21.623   5.421  51.343  1.00  0.00    -0.370 OA
HETATM   14  C9  UNL     1      22.963   4.917  51.551  1.00  0.00     0.136 A 
HETATM   15  C10 UNL     1      23.667   4.480  52.575  1.00  0.00     0.074 A 
HETATM   16  C11 UNL     1      23.666   4.915  50.194  1.00  0.00     0.304 C 
HETATM   17  H4  UNL     1      19.738   1.679  49.922  1.00  0.00     0.161 HD
ENDROOT
BRANCH  16  18
HETATM   18  N4  UNL     1      24.898   5.607  50.196  1.00  0.00     0.101 N 
HETATM   19  C12 UNL     1      24.801   6.950  50.707  1.00  0.00     0.273 C 
HETATM   20  C13 UNL     1      25.962   7.814  50.386  1.00  0.00     0.030 C 
HETATM   21  C14 UNL     1      26.366   7.781  48.933  1.00  0.00     0.003 C 
HETATM   22  C15 UNL     1      25.374   6.863  48.203  1.00  0.00     0.030 C 
HETATM   23  C16 UNL     1      25.529   5.509  48.899  1.00  0.00     0.273 C 
ENDBRANCH  16  18
TORSDOF 1
ENDMDL
MODEL 7
REMARK VINA RESULT:      -6.4     10.994     12.853
REMARK  1 active torsions:
REMARK  status: ('A' for Active; 'I' for Inactive)
REMARK    1  A    between atoms: C11_16  and  N4_17 
ROOT
HETATM    1 CL1  UNL     1      32.285   7.402  45.770  1.00  0.00    -0.087 Cl
HETATM    2  C1  UNL     1      33.735   6.449  46.160  1.00  0.00     0.046 C 
HETATM    3  C2  UNL     1      34.456   6.582  47.310  1.00  0.00     0.014 C 
HETATM    4  C3  UNL     1      35.115   6.844  48.585  1.00  0.00     0.150 C 
HETATM    5  N1  UNL     1      35.110   5.559  49.390  1.00  0.00    -0.371 N 
HETATM    6  C4  UNL     1      33.735   5.293  49.008  1.00  0.00     0.132 A 
HETATM    7  N2  UNL     1      32.602   5.878  49.419  1.00  0.00    -0.225 NA
HETATM    8  C5  UNL     1      31.390   5.691  48.806  1.00  0.00     0.230 A 
HETATM    9  N3  UNL     1      31.374   4.853  47.699  1.00  0.00    -0.263 NA
HETATM   10  C6  UNL     1      32.573   4.309  47.358  1.00  0.00     0.125 A 
HETATM   11  C7  UNL     1      33.815   4.435  47.934  1.00  0.00     0.023 A 
HETATM   12  C8  UNL     1      34.937   3.506  47.525  1.00  0.00     0.210 C 
HETATM   13  O1  UNL     1      34.530   3.143  46.152  1.00  0.00    -0.370 OA
HETATM   14  C9  UNL     1      33.438   4.034  45.822  1.00  0.00     0.136 A 
HETATM   15  C10 UNL     1      32.126   4.015  45.938  1.00  0.00     0.074 A 
HETATM   16  C11 UNL     1      34.046   5.290  45.197  1.00  0.00     0.304 C 
HETATM   17  H4  UNL     1      35.719   4.973  50.001  1.00  0.00     0.161 HD
ENDROOT
BRANCH  16  18
HETATM   18  N4  UNL     1      33.497   5.613  43.935  1.00  0.00     0.101 N 
HETATM   19  C12 UNL     1      33.389   4.483  43.050  1.00  0.00     0.273 C 
HETATM   20  C13 UNL     1      33.174   4.838  41.626  1.00  0.00     0.030 C 
HETATM   21  C14 UNL     1      34.128   5.885  41.106  1.00  0.00     0.003 C 
HETATM   22  C15 UNL     1      35.093   6.232  42.249  1.00  0.00     0.030 C 
HETATM   23  C16 UNL     1      34.186   6.750  43.367  1.00  0.00     0.273 C 
ENDBRANCH  16  18
TORSDOF 1
ENDMDL
MODEL 8
REMARK VINA RESULT:      -6.4      2.417      3.450
REMARK  1 active torsions:
REMARK  status: ('A' for Active; 'I' for Inactive)
REMARK    1  A    between atoms: C11_16  and  N4_17 
ROOT
HETATM    1 CL1  UNL     1      23.551   4.873  53.007  1.00  0.00    -0.087 Cl
HETATM    2  C1  UNL     1      22.605   4.336  51.600  1.00  0.00     0.046 C 
HETATM    3  C2  UNL     1      21.786   5.145  50.869  1.00  0.00     0.014 C 
HETATM    4  C3  UNL     1      20.957   6.137  50.193  1.00  0.00     0.150 C 
HETATM    5  N1  UNL     1      21.424   6.236  48.753  1.00  0.00    -0.371 N 
HETATM    6  C4  UNL     1      22.813   6.209  49.173  1.00  0.00     0.132 A 
HETATM    7  N2  UNL     1      23.549   7.159  49.764  1.00  0.00    -0.225 NA
HETATM    8  C5  UNL     1      24.781   6.924  50.318  1.00  0.00     0.230 A 
HETATM    9  N3  UNL     1      25.256   5.621  50.253  1.00  0.00    -0.263 NA
HETATM   10  C6  UNL     1      24.436   4.729  49.635  1.00  0.00     0.125 A 
HETATM   11  C7  UNL     1      23.206   4.895  49.043  1.00  0.00     0.023 A 
HETATM   12  C8  UNL     1      22.624   3.796  48.183  1.00  0.00     0.210 C 
HETATM   13  O1  UNL     1      23.278   2.601  48.755  1.00  0.00    -0.370 OA
HETATM   14  C9  UNL     1      23.921   3.053  49.970  1.00  0.00     0.136 A 
HETATM   15  C10 UNL     1      25.101   3.537  50.298  1.00  0.00     0.074 A 
HETATM   16  C11 UNL     1      22.906   2.911  51.104  1.00  0.00     0.304 C 
HETATM   17  H4  UNL     1      21.060   6.302  47.777  1.00  0.00     0.161 HD
ENDROOT
BRANCH  16  18
HETATM   18  N4  UNL     1      23.388   2.161  52.201  1.00  0.00     0.101 N 
HETATM   19  C12 UNL     1      24.444   1.246  51.851  1.00  0.00     0.273 C 
HETATM   20  C13 UNL     1      24.713   0.202  52.869  1.00  0.00     0.030 C 
HETATM   21  C14 UNL     1      23.475  -0.509  53.356  1.00  0.00     0.003 C 
HETATM   22  C15 UNL     1      22.282   0.061  52.576  1.00  0.00     0.030 C 
HETATM   23  C16 UNL     1      22.287   1.554  52.914  1.00  0.00     0.273 C 
ENDBRANCH  16  18
TORSDOF 1
ENDMDL
MODEL 9
REMARK VINA RESULT:      -6.3     10.155     11.152
REMARK  1 active torsions:
REMARK  status: ('A' for Active; 'I' for Inactive)
REMARK    1  A    between atoms: C11_16  and  N4_17 
ROOT
HETATM    1 CL1  UNL     1      30.329   5.766  47.761  1.00  0.00    -0.087 Cl
HETATM    2  C1  UNL     1      31.193   6.867  46.664  1.00  0.00     0.046 C 
HETATM    3  C2  UNL     1      30.599   7.871  45.958  1.00  0.00     0.014 C 
HETATM    4  C3  UNL     1      29.817   8.898  45.277  1.00  0.00     0.150 C 
HETATM    5  N1  UNL     1      30.369  10.253  45.676  1.00  0.00    -0.371 N 
HETATM    6  C4  UNL     1      30.478   9.830  47.061  1.00  0.00     0.132 A 
HETATM    7  N2  UNL     1      29.521   9.644  47.978  1.00  0.00    -0.225 NA
HETATM    8  C5  UNL     1      29.737   9.019  49.180  1.00  0.00     0.230 A 
HETATM    9  N3  UNL     1      31.026   8.560  49.421  1.00  0.00    -0.263 NA
HETATM   10  C6  UNL     1      31.926   8.795  48.428  1.00  0.00     0.125 A 
HETATM   11  C7  UNL     1      31.786   9.427  47.216  1.00  0.00     0.023 A 
HETATM   12  C8  UNL     1      33.011   9.800  46.410  1.00  0.00     0.210 C 
HETATM   13  O1  UNL     1      33.986   8.794  46.879  1.00  0.00    -0.370 OA
HETATM   14  C9  UNL     1      33.220   7.841  47.653  1.00  0.00     0.136 A 
HETATM   15  C10 UNL     1      32.865   7.706  48.914  1.00  0.00     0.074 A 
HETATM   16  C11 UNL     1      32.728   6.761  46.690  1.00  0.00     0.304 C 
HETATM   17  H4  UNL     1      30.623  11.183  45.279  1.00  0.00     0.161 HD
ENDROOT
BRANCH  16  18
HETATM   18  N4  UNL     1      33.065   5.449  47.095  1.00  0.00     0.101 N 
HETATM   19  C12 UNL     1      34.347   5.362  47.745  1.00  0.00     0.273 C 
HETATM   20  C13 UNL     1      34.891   3.986  47.846  1.00  0.00     0.030 C 
HETATM   21  C14 UNL     1      34.852   3.216  46.549  1.00  0.00     0.003 C 
HETATM   22  C15 UNL     1      34.284   4.157  45.476  1.00  0.00     0.030 C 
HETATM   23  C16 UNL     1      32.892   4.527  45.995  1.00  0.00     0.273 C 
ENDBRANCH  16  18
TORSDOF 1
ENDMDL
