MODEL 1
REMARK VINA RESULT:      -7.5      0.000      0.000
REMARK  3 active torsions:
REMARK  status: ('A' for Active; 'I' for Inactive)
REMARK    1  A    between atoms: C2_2  and  C3_3 
REMARK       I    between atoms: C3_3  and  N1_5 
REMARK    2  A    between atoms: N1_5  and  C4_6 
REMARK    3  A    between atoms: C4_6  and  C5_7 
ROOT
HETATM    1  C4  UNL     1      23.978   4.776  51.162  1.00  0.00     0.017 C 
HETATM    2  C7  UNL     1      23.343   3.902  51.991  1.00  0.00    -0.022 C 
HETATM    3  C8  UNL     1      23.882   2.654  52.588  1.00  0.00     0.157 C 
HETATM    4  N2  UNL     1      23.250   1.449  52.103  1.00  0.00    -0.389 N 
HETATM    5  C9  UNL     1      23.675   0.338  52.948  1.00  0.00     0.007 C 
HETATM    6  C10 UNL     1      25.100   0.043  52.695  1.00  0.00     0.068 C 
HETATM    7  C11 UNL     1      23.023  -0.427  53.864  1.00  0.00     0.074 C 
HETATM    8  S1  UNL     1      21.295  -0.429  54.473  1.00  0.00    -0.100 SA
HETATM    9  C12 UNL     1      20.312   0.440  53.230  1.00  0.00     0.007 A 
HETATM   10  C13 UNL     1      19.436  -0.185  52.383  1.00  0.00     0.019 A 
HETATM   11  C14 UNL     1      18.991   0.657  51.388  1.00  0.00     0.004 A 
HETATM   12  C15 UNL     1      19.405   1.983  51.283  1.00  0.00     0.029 A 
HETATM   13  C16 UNL     1      20.293   2.442  52.227  1.00  0.00     0.029 A 
HETATM   14  C17 UNL     1      20.807   1.716  53.267  1.00  0.00     0.048 A 
HETATM   15  N3  UNL     1      20.858   3.733  52.128  1.00  0.00    -0.386 N 
HETATM   16  C18 UNL     1      22.045   4.398  52.517  1.00  0.00     0.157 C 
HETATM   17  H14 UNL     1      22.697   0.740  51.577  1.00  0.00     0.159 HD
HETATM   18  H23 UNL     1      20.197   4.395  51.613  1.00  0.00     0.160 HD
ENDROOT
BRANCH   1  19
HETATM   19  N1  UNL     1      25.195   5.049  50.497  1.00  0.00    -0.331 N 
HETATM   20  C3  UNL     1      26.086   4.354  49.700  1.00  0.00     0.221 C 
HETATM   21  O1  UNL     1      25.914   3.161  49.384  1.00  0.00    -0.273 OA
HETATM   22  H6  UNL     1      25.749   5.958  50.480  1.00  0.00     0.168 HD
BRANCH  20  23
HETATM   23  C2  UNL     1      27.339   4.539  48.991  1.00  0.00     0.098 C 
HETATM   24  C1  UNL     1      27.542   5.906  48.436  1.00  0.00     0.014 C 
ENDBRANCH  20  23
ENDBRANCH   1  19
BRANCH   1  25
HETATM   25  C5  UNL     1      23.113   5.870  50.571  1.00  0.00     0.053 C 
HETATM   26  C6  UNL     1      23.829   7.228  50.749  1.00  0.00     0.011 C 
ENDBRANCH   1  25
TORSDOF 3
ENDMDL
MODEL 2
REMARK VINA RESULT:      -7.2      3.262      5.646
REMARK  3 active torsions:
REMARK  status: ('A' for Active; 'I' for Inactive)
REMARK    1  A    between atoms: C2_2  and  C3_3 
REMARK       I    between atoms: C3_3  and  N1_5 
REMARK    2  A    between atoms: N1_5  and  C4_6 
REMARK    3  A    between atoms: C4_6  and  C5_7 
ROOT
HETATM    1  C4  UNL     1      25.447   1.430  52.596  1.00  0.00     0.017 C 
HETATM    2  C7  UNL     1      24.306   2.145  52.392  1.00  0.00    -0.022 C 
HETATM    3  C8  UNL     1      23.169   1.815  51.495  1.00  0.00     0.157 C 
HETATM    4  N2  UNL     1      23.015   2.723  50.383  1.00  0.00    -0.389 N 
HETATM    5  C9  UNL     1      21.729   2.453  49.747  1.00  0.00     0.007 C 
HETATM    6  C10 UNL     1      21.786   1.149  49.055  1.00  0.00     0.068 C 
HETATM    7  C11 UNL     1      20.566   3.154  49.682  1.00  0.00     0.074 C 
HETATM    8  S1  UNL     1      20.059   4.779  50.359  1.00  0.00    -0.100 SA
HETATM    9  C12 UNL     1      21.582   5.681  50.724  1.00  0.00     0.007 A 
HETATM   10  C13 UNL     1      22.029   6.744  49.986  1.00  0.00     0.019 A 
HETATM   11  C14 UNL     1      23.315   7.104  50.327  1.00  0.00     0.004 A 
HETATM   12  C15 UNL     1      24.047   6.441  51.309  1.00  0.00     0.029 A 
HETATM   13  C16 UNL     1      23.433   5.390  51.950  1.00  0.00     0.029 A 
HETATM   14  C17 UNL     1      22.164   4.935  51.715  1.00  0.00     0.048 A 
HETATM   15  N3  UNL     1      24.141   4.588  52.872  1.00  0.00    -0.386 N 
HETATM   16  C18 UNL     1      24.108   3.257  53.356  1.00  0.00     0.157 C 
HETATM   17  H14 UNL     1      23.137   3.457  49.654  1.00  0.00     0.159 HD
HETATM   18  H23 UNL     1      24.922   5.146  53.337  1.00  0.00     0.160 HD
ENDROOT
BRANCH   1  19
HETATM   19  N1  UNL     1      26.143   0.253  52.235  1.00  0.00    -0.331 N 
HETATM   20  C3  UNL     1      26.398  -0.981  52.803  1.00  0.00     0.221 C 
HETATM   21  O1  UNL     1      25.966  -1.305  53.926  1.00  0.00    -0.273 OA
HETATM   22  H6  UNL     1      26.690   0.056  51.343  1.00  0.00     0.168 HD
BRANCH  20  23
HETATM   23  C2  UNL     1      27.092  -2.225  52.523  1.00  0.00     0.098 C 
HETATM   24  C1  UNL     1      28.519  -2.250  52.950  1.00  0.00     0.014 C 
ENDBRANCH  20  23
ENDBRANCH   1  19
BRANCH   1  25
HETATM   25  C5  UNL     1      26.509   2.107  53.436  1.00  0.00     0.053 C 
HETATM   26  C6  UNL     1      27.814   2.203  52.614  1.00  0.00     0.011 C 
ENDBRANCH   1  25
TORSDOF 3
ENDMDL
MODEL 3
REMARK VINA RESULT:      -7.1      2.834      4.881
REMARK  3 active torsions:
REMARK  status: ('A' for Active; 'I' for Inactive)
REMARK    1  A    between atoms: C2_2  and  C3_3 
REMARK       I    between atoms: C3_3  and  N1_5 
REMARK    2  A    between atoms: N1_5  and  C4_6 
REMARK    3  A    between atoms: C4_6  and  C5_7 
ROOT
HETATM    1  C4  UNL     1      26.504   1.255  53.125  1.00  0.00     0.017 C 
HETATM    2  C7  UNL     1      25.203   1.656  53.106  1.00  0.00    -0.022 C 
HETATM    3  C8  UNL     1      23.991   0.837  53.361  1.00  0.00     0.157 C 
HETATM    4  N2  UNL     1      23.145   0.663  52.204  1.00  0.00    -0.389 N 
HETATM    5  C9  UNL     1      21.881   0.080  52.644  1.00  0.00     0.007 C 
HETATM    6  C10 UNL     1      22.102  -1.320  53.059  1.00  0.00     0.068 C 
HETATM    7  C11 UNL     1      20.617   0.573  52.727  1.00  0.00     0.074 C 
HETATM    8  S1  UNL     1      19.894   2.207  52.318  1.00  0.00    -0.100 SA
HETATM    9  C12 UNL     1      21.056   3.016  51.194  1.00  0.00     0.007 A 
HETATM   10  C13 UNL     1      20.820   3.190  49.857  1.00  0.00     0.019 A 
HETATM   11  C14 UNL     1      21.944   3.619  49.187  1.00  0.00     0.004 A 
HETATM   12  C15 UNL     1      23.163   3.838  49.825  1.00  0.00     0.029 A 
HETATM   13  C16 UNL     1      23.214   3.611  51.180  1.00  0.00     0.029 A 
HETATM   14  C17 UNL     1      22.174   3.191  51.965  1.00  0.00     0.048 A 
HETATM   15  N3  UNL     1      24.435   3.692  51.886  1.00  0.00    -0.386 N 
HETATM   16  C18 UNL     1      25.024   3.129  53.044  1.00  0.00     0.157 C 
HETATM   17  H14 UNL     1      22.738   0.633  51.245  1.00  0.00     0.159 HD
HETATM   18  H23 UNL     1      25.102   4.374  51.408  1.00  0.00     0.160 HD
ENDROOT
BRANCH   1  19
HETATM   19  N1  UNL     1      27.362   0.150  53.333  1.00  0.00    -0.331 N 
HETATM   20  C3  UNL     1      27.423  -1.170  52.927  1.00  0.00     0.221 C 
HETATM   21  O1  UNL     1      26.575  -1.677  52.167  1.00  0.00    -0.273 OA
HETATM   22  H6  UNL     1      28.242   0.101  53.930  1.00  0.00     0.168 HD
BRANCH  20  23
HETATM   23  C2  UNL     1      28.240  -2.359  53.088  1.00  0.00     0.098 C 
HETATM   24  C1  UNL     1      29.673  -2.090  53.393  1.00  0.00     0.014 C 
ENDBRANCH  20  23
ENDBRANCH   1  19
BRANCH   1  25
HETATM   25  C5  UNL     1      27.516   2.276  52.649  1.00  0.00     0.053 C 
HETATM   26  C6  UNL     1      28.666   2.361  53.678  1.00  0.00     0.011 C 
ENDBRANCH   1  25
TORSDOF 3
ENDMDL
MODEL 4
REMARK VINA RESULT:      -6.9      3.354      7.172
REMARK  3 active torsions:
REMARK  status: ('A' for Active; 'I' for Inactive)
REMARK    1  A    between atoms: C2_2  and  C3_3 
REMARK       I    between atoms: C3_3  and  N1_5 
REMARK    2  A    between atoms: N1_5  and  C4_6 
REMARK    3  A    between atoms: C4_6  and  C5_7 
ROOT
HETATM    1  C4  UNL     1      19.250  -0.054  52.181  1.00  0.00     0.017 C 
HETATM    2  C7  UNL     1      20.362   0.732  52.169  1.00  0.00    -0.022 C 
HETATM    3  C8  UNL     1      20.885   1.557  51.050  1.00  0.00     0.157 C 
HETATM    4  N2  UNL     1      22.149   1.100  50.523  1.00  0.00    -0.389 N 
HETATM    5  C9  UNL     1      22.672   2.130  49.631  1.00  0.00     0.007 C 
HETATM    6  C10 UNL     1      21.848   2.188  48.407  1.00  0.00     0.068 C 
HETATM    7  C11 UNL     1      23.725   2.985  49.727  1.00  0.00     0.074 C 
HETATM    8  S1  UNL     1      24.994   3.250  51.022  1.00  0.00    -0.100 SA
HETATM    9  C12 UNL     1      25.015   1.752  52.033  1.00  0.00     0.007 A 
HETATM   10  C13 UNL     1      26.027   0.831  52.002  1.00  0.00     0.019 A 
HETATM   11  C14 UNL     1      25.697  -0.320  52.686  1.00  0.00     0.004 A 
HETATM   12  C15 UNL     1      24.469  -0.493  53.320  1.00  0.00     0.029 A 
HETATM   13  C16 UNL     1      23.571   0.545  53.246  1.00  0.00     0.029 A 
HETATM   14  C17 UNL     1      23.772   1.739  52.608  1.00  0.00     0.048 A 
HETATM   15  N3  UNL     1      22.260   0.410  53.756  1.00  0.00    -0.386 N 
HETATM   16  C18 UNL     1      20.971   0.941  53.507  1.00  0.00     0.157 C 
HETATM   17  H14 UNL     1      23.008   0.561  50.283  1.00  0.00     0.159 HD
HETATM   18  H23 UNL     1      22.238  -0.291  54.559  1.00  0.00     0.160 HD
ENDROOT
BRANCH   1  19
HETATM   19  N1  UNL     1      18.153  -0.502  51.409  1.00  0.00    -0.331 N 
HETATM   20  C3  UNL     1      17.452  -0.061  50.303  1.00  0.00     0.221 C 
HETATM   21  O1  UNL     1      17.740   0.992  49.702  1.00  0.00    -0.273 OA
HETATM   22  H6  UNL     1      17.563  -1.378  51.547  1.00  0.00     0.168 HD
BRANCH  20  23
HETATM   23  C2  UNL     1      16.332  -0.437  49.459  1.00  0.00     0.098 C 
HETATM   24  C1  UNL     1      15.056   0.265  49.772  1.00  0.00     0.014 C 
ENDBRANCH  20  23
ENDBRANCH   1  19
BRANCH   1  25
HETATM   25  C5  UNL     1      19.068  -0.919  53.410  1.00  0.00     0.053 C 
HETATM   26  C6  UNL     1      17.705  -1.642  53.318  1.00  0.00     0.011 C 
ENDBRANCH   1  25
TORSDOF 3
ENDMDL
MODEL 5
REMARK VINA RESULT:      -6.8      2.721      4.026
REMARK  3 active torsions:
REMARK  status: ('A' for Active; 'I' for Inactive)
REMARK    1  A    between atoms: C2_2  and  C3_3 
REMARK       I    between atoms: C3_3  and  N1_5 
REMARK    2  A    between atoms: N1_5  and  C4_6 
REMARK    3  A    between atoms: C4_6  and  C5_7 
ROOT
HETATM    1  C4  UNL     1      25.977   2.118  52.114  1.00  0.00     0.017 C 
HETATM    2  C7  UNL     1      24.621   2.220  52.169  1.00  0.00    -0.022 C 
HETATM    3  C8  UNL     1      23.664   1.320  52.863  1.00  0.00     0.157 C 
HETATM    4  N2  UNL     1      22.797   0.584  51.973  1.00  0.00    -0.389 N 
HETATM    5  C9  UNL     1      21.749  -0.043  52.771  1.00  0.00     0.007 C 
HETATM    6  C10 UNL     1      22.331  -1.133  53.581  1.00  0.00     0.068 C 
HETATM    7  C11 UNL     1      20.414   0.185  52.884  1.00  0.00     0.074 C 
HETATM    8  S1  UNL     1      19.290   1.391  52.083  1.00  0.00    -0.100 SA
HETATM    9  C12 UNL     1      20.132   1.963  50.590  1.00  0.00     0.007 A 
HETATM   10  C13 UNL     1      19.758   1.603  49.323  1.00  0.00     0.019 A 
HETATM   11  C14 UNL     1      20.691   1.982  48.383  1.00  0.00     0.004 A 
HETATM   12  C15 UNL     1      21.867   2.650  48.716  1.00  0.00     0.029 A 
HETATM   13  C16 UNL     1      22.076   2.931  50.045  1.00  0.00     0.029 A 
HETATM   14  C17 UNL     1      21.232   2.618  51.077  1.00  0.00     0.048 A 
HETATM   15  N3  UNL     1      23.293   3.497  50.486  1.00  0.00    -0.386 N 
HETATM   16  C18 UNL     1      24.088   3.509  51.658  1.00  0.00     0.157 C 
HETATM   17  H14 UNL     1      22.336   0.137  51.152  1.00  0.00     0.159 HD
HETATM   18  H23 UNL     1      23.738   4.084  49.715  1.00  0.00     0.160 HD
ENDROOT
BRANCH   1  19
HETATM   19  N1  UNL     1      27.088   1.352  52.536  1.00  0.00    -0.331 N 
HETATM   20  C3  UNL     1      28.138   1.502  53.422  1.00  0.00     0.221 C 
HETATM   21  O1  UNL     1      28.287   2.525  54.118  1.00  0.00    -0.273 OA
HETATM   22  H6  UNL     1      27.385   0.383  52.208  1.00  0.00     0.168 HD
BRANCH  20  23
HETATM   23  C2  UNL     1      29.307   0.793  53.910  1.00  0.00     0.098 C 
HETATM   24  C1  UNL     1      29.376  -0.640  53.509  1.00  0.00     0.014 C 
ENDBRANCH  20  23
ENDBRANCH   1  19
BRANCH   1  25
HETATM   25  C5  UNL     1      26.673   3.085  51.180  1.00  0.00     0.053 C 
HETATM   26  C6  UNL     1      26.578   2.544  49.735  1.00  0.00     0.011 C 
ENDBRANCH   1  25
TORSDOF 3
ENDMDL
MODEL 6
REMARK VINA RESULT:      -6.8      4.002      6.856
REMARK  3 active torsions:
REMARK  status: ('A' for Active; 'I' for Inactive)
REMARK    1  A    between atoms: C2_2  and  C3_3 
REMARK       I    between atoms: C3_3  and  N1_5 
REMARK    2  A    between atoms: N1_5  and  C4_6 
REMARK    3  A    between atoms: C4_6  and  C5_7 
ROOT
HETATM    1  C4  UNL     1      26.175   2.263  51.422  1.00  0.00     0.017 C 
HETATM    2  C7  UNL     1      25.798   3.173  50.482  1.00  0.00    -0.022 C 
HETATM    3  C8  UNL     1      26.662   3.915  49.529  1.00  0.00     0.157 C 
HETATM    4  N2  UNL     1      26.714   5.338  49.767  1.00  0.00    -0.389 N 
HETATM    5  C9  UNL     1      27.366   5.969  48.624  1.00  0.00     0.007 C 
HETATM    6  C10 UNL     1      28.801   5.620  48.621  1.00  0.00     0.068 C 
HETATM    7  C11 UNL     1      26.908   6.776  47.630  1.00  0.00     0.074 C 
HETATM    8  S1  UNL     1      25.251   7.462  47.254  1.00  0.00    -0.100 SA
HETATM    9  C12 UNL     1      24.296   7.365  48.785  1.00  0.00     0.007 A 
HETATM   10  C13 UNL     1      23.971   8.457  49.545  1.00  0.00     0.019 A 
HETATM   11  C14 UNL     1      23.446   8.096  50.767  1.00  0.00     0.004 A 
HETATM   12  C15 UNL     1      23.282   6.767  51.153  1.00  0.00     0.029 A 
HETATM   13  C16 UNL     1      23.665   5.799  50.255  1.00  0.00     0.029 A 
HETATM   14  C17 UNL     1      24.192   6.019  49.011  1.00  0.00     0.048 A 
HETATM   15  N3  UNL     1      23.646   4.431  50.608  1.00  0.00    -0.386 N 
HETATM   16  C18 UNL     1      24.331   3.242  50.259  1.00  0.00     0.157 C 
HETATM   17  H14 UNL     1      26.638   6.300  50.160  1.00  0.00     0.159 HD
HETATM   18  H23 UNL     1      22.902   4.243  51.348  1.00  0.00     0.160 HD
ENDROOT
BRANCH   1  19
HETATM   19  N1  UNL     1      27.282   1.585  51.983  1.00  0.00    -0.331 N 
HETATM   20  C3  UNL     1      28.084   1.717  53.100  1.00  0.00     0.221 C 
HETATM   21  O1  UNL     1      27.917   2.619  53.944  1.00  0.00    -0.273 OA
HETATM   22  H6  UNL     1      27.793   0.730  51.605  1.00  0.00     0.168 HD
BRANCH  20  23
HETATM   23  C2  UNL     1      29.224   1.090  53.746  1.00  0.00     0.098 C 
HETATM   24  C1  UNL     1      29.215  -0.399  53.710  1.00  0.00     0.014 C 
ENDBRANCH  20  23
ENDBRANCH   1  19
BRANCH   1  25
HETATM   25  C5  UNL     1      25.087   1.805  52.370  1.00  0.00     0.053 C 
HETATM   26  C6  UNL     1      25.088   0.261  52.427  1.00  0.00     0.011 C 
ENDBRANCH   1  25
TORSDOF 3
ENDMDL
MODEL 7
REMARK VINA RESULT:      -6.7      2.830      6.409
REMARK  3 active torsions:
REMARK  status: ('A' for Active; 'I' for Inactive)
REMARK    1  A    between atoms: C2_2  and  C3_3 
REMARK       I    between atoms: C3_3  and  N1_5 
REMARK    2  A    between atoms: N1_5  and  C4_6 
REMARK    3  A    between atoms: C4_6  and  C5_7 
ROOT
HETATM    1  C4  UNL     1      21.240   2.009  52.036  1.00  0.00     0.017 C 
HETATM    2  C7  UNL     1      22.183   2.555  51.219  1.00  0.00    -0.022 C 
HETATM    3  C8  UNL     1      23.618   2.189  51.109  1.00  0.00     0.157 C 
HETATM    4  N2  UNL     1      24.524   3.221  51.555  1.00  0.00    -0.389 N 
HETATM    5  C9  UNL     1      25.876   2.849  51.150  1.00  0.00     0.007 C 
HETATM    6  C10 UNL     1      26.330   1.694  51.951  1.00  0.00     0.068 C 
HETATM    7  C11 UNL     1      26.735   3.356  50.227  1.00  0.00     0.074 C 
HETATM    8  S1  UNL     1      26.607   4.754  49.049  1.00  0.00    -0.100 SA
HETATM    9  C12 UNL     1      25.284   5.822  49.663  1.00  0.00     0.007 A 
HETATM   10  C13 UNL     1      25.503   7.044  50.240  1.00  0.00     0.019 A 
HETATM   11  C14 UNL     1      24.363   7.548  50.827  1.00  0.00     0.004 A 
HETATM   12  C15 UNL     1      23.147   6.868  50.817  1.00  0.00     0.029 A 
HETATM   13  C16 UNL     1      23.114   5.647  50.187  1.00  0.00     0.029 A 
HETATM   14  C17 UNL     1      24.167   5.035  49.562  1.00  0.00     0.048 A 
HETATM   15  N3  UNL     1      21.958   4.835  50.232  1.00  0.00    -0.386 N 
HETATM   16  C18 UNL     1      21.633   3.459  50.177  1.00  0.00     0.157 C 
HETATM   17  H14 UNL     1      24.963   4.069  51.973  1.00  0.00     0.159 HD
HETATM   18  H23 UNL     1      21.082   5.434  50.337  1.00  0.00     0.160 HD
ENDROOT
BRANCH   1  19
HETATM   19  N1  UNL     1      21.011   1.030  53.029  1.00  0.00    -0.331 N 
HETATM   20  C3  UNL     1      21.747   0.049  53.666  1.00  0.00     0.221 C 
HETATM   21  O1  UNL     1      22.952  -0.153  53.419  1.00  0.00    -0.273 OA
HETATM   22  H6  UNL     1      20.106   0.815  53.548  1.00  0.00     0.168 HD
BRANCH  20  23
HETATM   23  C2  UNL     1      21.604  -0.989  54.672  1.00  0.00     0.098 C 
HETATM   24  C1  UNL     1      22.876  -1.389  55.336  1.00  0.00     0.014 C 
ENDBRANCH  20  23
ENDBRANCH   1  19
BRANCH   1  25
HETATM   25  C5  UNL     1      19.899   2.711  52.055  1.00  0.00     0.053 C 
HETATM   26  C6  UNL     1      18.797   1.699  51.668  1.00  0.00     0.011 C 
ENDBRANCH   1  25
TORSDOF 3
ENDMDL
MODEL 8
REMARK VINA RESULT:      -6.6      2.867      5.428
REMARK  3 active torsions:
REMARK  status: ('A' for Active; 'I' for Inactive)
REMARK    1  A    between atoms: C2_2  and  C3_3 
REMARK       I    between atoms: C3_3  and  N1_5 
REMARK    2  A    between atoms: N1_5  and  C4_6 
REMARK    3  A    between atoms: C4_6  and  C5_7 
ROOT
HETATM    1  C4  UNL     1      24.857  -0.221  53.733  1.00  0.00     0.017 C 
HETATM    2  C7  UNL     1      24.226   0.294  52.642  1.00  0.00    -0.022 C 
HETATM    3  C8  UNL     1      24.795   1.172  51.587  1.00  0.00     0.157 C 
HETATM    4  N2  UNL     1      24.243   2.506  51.571  1.00  0.00    -0.389 N 
HETATM    5  C9  UNL     1      24.680   3.167  50.346  1.00  0.00     0.007 C 
HETATM    6  C10 UNL     1      26.127   3.449  50.427  1.00  0.00     0.068 C 
HETATM    7  C11 UNL     1      24.022   3.548  49.219  1.00  0.00     0.074 C 
HETATM    8  S1  UNL     1      22.269   3.418  48.702  1.00  0.00    -0.100 SA
HETATM    9  C12 UNL     1      21.306   3.170  50.211  1.00  0.00     0.007 A 
HETATM   10  C13 UNL     1      20.501   4.131  50.762  1.00  0.00     0.019 A 
HETATM   11  C14 UNL     1      20.064   3.777  52.020  1.00  0.00     0.004 A 
HETATM   12  C15 UNL     1      20.420   2.577  52.631  1.00  0.00     0.029 A 
HETATM   13  C16 UNL     1      21.240   1.729  51.924  1.00  0.00     0.029 A 
HETATM   14  C17 UNL     1      21.739   1.954  50.669  1.00  0.00     0.048 A 
HETATM   15  N3  UNL     1      21.748   0.549  52.511  1.00  0.00    -0.386 N 
HETATM   16  C18 UNL     1      22.883  -0.287  52.387  1.00  0.00     0.157 C 
HETATM   17  H14 UNL     1      23.750   3.398  51.788  1.00  0.00     0.159 HD
HETATM   18  H23 UNL     1      21.082   0.185  53.261  1.00  0.00     0.160 HD
ENDROOT
BRANCH   1  19
HETATM   19  N1  UNL     1      26.091  -0.284  54.421  1.00  0.00    -0.331 N 
HETATM   20  C3  UNL     1      27.411   0.025  54.155  1.00  0.00     0.221 C 
HETATM   21  O1  UNL     1      27.781   0.502  53.065  1.00  0.00    -0.273 OA
HETATM   22  H6  UNL     1      26.278  -0.637  55.409  1.00  0.00     0.168 HD
BRANCH  20  23
HETATM   23  C2  UNL     1      28.721  -0.009  54.779  1.00  0.00     0.098 C 
HETATM   24  C1  UNL     1      29.789  -0.630  53.946  1.00  0.00     0.014 C 
ENDBRANCH  20  23
ENDBRANCH   1  19
BRANCH   1  25
HETATM   25  C5  UNL     1      23.971  -0.938  54.730  1.00  0.00     0.053 C 
HETATM   26  C6  UNL     1      24.746  -1.114  56.055  1.00  0.00     0.011 C 
ENDBRANCH   1  25
TORSDOF 3
ENDMDL
MODEL 9
REMARK VINA RESULT:      -6.6      2.880      5.015
REMARK  3 active torsions:
REMARK  status: ('A' for Active; 'I' for Inactive)
REMARK    1  A    between atoms: C2_2  and  C3_3 
REMARK       I    between atoms: C3_3  and  N1_5 
REMARK    2  A    between atoms: N1_5  and  C4_6 
REMARK    3  A    between atoms: C4_6  and  C5_7 
ROOT
HETATM    1  C4  UNL     1      24.860   1.243  52.677  1.00  0.00     0.017 C 
HETATM    2  C7  UNL     1      24.062   1.630  51.643  1.00  0.00    -0.022 C 
HETATM    3  C8  UNL     1      24.337   2.665  50.615  1.00  0.00     0.157 C 
HETATM    4  N2  UNL     1      23.473   3.819  50.696  1.00  0.00    -0.389 N 
HETATM    5  C9  UNL     1      23.665   4.620  49.491  1.00  0.00     0.007 C 
HETATM    6  C10 UNL     1      25.000   5.251  49.526  1.00  0.00     0.068 C 
HETATM    7  C11 UNL     1      22.872   4.873  48.416  1.00  0.00     0.074 C 
HETATM    8  S1  UNL     1      21.180   4.330  47.967  1.00  0.00    -0.100 SA
HETATM    9  C12 UNL     1      20.393   3.786  49.500  1.00  0.00     0.007 A 
HETATM   10  C13 UNL     1      19.407   4.491  50.137  1.00  0.00     0.019 A 
HETATM   11  C14 UNL     1      19.140   3.986  51.391  1.00  0.00     0.004 A 
HETATM   12  C15 UNL     1      19.815   2.888  51.919  1.00  0.00     0.029 A 
HETATM   13  C16 UNL     1      20.779   2.303  51.132  1.00  0.00     0.029 A 
HETATM   14  C17 UNL     1      21.137   2.698  49.872  1.00  0.00     0.048 A 
HETATM   15  N3  UNL     1      21.594   1.263  51.632  1.00  0.00    -0.386 N 
HETATM   16  C18 UNL     1      22.893   0.743  51.415  1.00  0.00     0.157 C 
HETATM   17  H14 UNL     1      22.787   4.549  50.982  1.00  0.00     0.159 HD
HETATM   18  H23 UNL     1      21.081   0.713  52.389  1.00  0.00     0.160 HD
ENDROOT
BRANCH   1  19
HETATM   19  N1  UNL     1      26.106   1.460  53.308  1.00  0.00    -0.331 N 
HETATM   20  C3  UNL     1      27.312   2.051  52.981  1.00  0.00     0.221 C 
HETATM   21  O1  UNL     1      27.518   2.588  51.876  1.00  0.00    -0.273 OA
HETATM   22  H6  UNL     1      26.411   1.167  54.285  1.00  0.00     0.168 HD
BRANCH  20  23
HETATM   23  C2  UNL     1      28.624   2.314  53.544  1.00  0.00     0.098 C 
HETATM   24  C1  UNL     1      29.181   1.202  54.365  1.00  0.00     0.014 C 
ENDBRANCH  20  23
ENDBRANCH   1  19
BRANCH   1  25
HETATM   25  C5  UNL     1      24.234   0.286  53.669  1.00  0.00     0.053 C 
HETATM   26  C6  UNL     1      25.313  -0.709  54.156  1.00  0.00     0.011 C 
ENDBRANCH   1  25
TORSDOF 3
ENDMDL
