MODEL 1
REMARK VINA RESULT:      -9.1      0.000      0.000
REMARK  2 active torsions:
REMARK  status: ('A' for Active; 'I' for Inactive)
REMARK    1  A    between atoms: C9_10  and  N1_11 
REMARK    2  A    between atoms: N1_11  and  C10_12 
ROOT
HETATM    1  C1  UNL     1      21.521  -1.606  54.207  1.00  0.00     0.012 C 
HETATM    2  C2  UNL     1      22.350  -0.657  53.293  1.00  0.00     0.006 C 
HETATM    3  C3  UNL     1      23.701  -0.539  53.891  1.00  0.00     0.008 C 
HETATM    4  C4  UNL     1      24.791  -0.042  52.955  1.00  0.00     0.027 C 
HETATM    5  C5  UNL     1      24.440   1.186  52.217  1.00  0.00     0.176 C 
HETATM    6  O1  UNL     1      24.185   2.242  53.151  1.00  0.00    -0.348 OA
HETATM    7  C6  UNL     1      23.641   3.377  52.495  1.00  0.00     0.103 A 
HETATM    8  C7  UNL     1      24.038   4.590  52.030  1.00  0.00     0.057 A 
HETATM    9  C8  UNL     1      23.103   5.386  51.431  1.00  0.00     0.042 A 
HETATM   10  C9  UNL     1      23.562   6.600  50.980  1.00  0.00     0.142 A 
HETATM   11  N2  UNL     1      22.669   7.394  50.393  1.00  0.00    -0.224 NA
HETATM   12  C16 UNL     1      21.398   7.023  50.253  1.00  0.00     0.236 A 
HETATM   13  N3  UNL     1      20.969   5.828  50.703  1.00  0.00    -0.241 NA
HETATM   14  C17 UNL     1      21.804   4.966  51.307  1.00  0.00     0.075 A 
HETATM   15  C18 UNL     1      21.388   3.741  51.774  1.00  0.00     0.072 A 
HETATM   16  C19 UNL     1      22.295   2.904  52.385  1.00  0.00     0.104 A 
HETATM   17  O2  UNL     1      22.007   1.741  52.859  1.00  0.00    -0.348 OA
HETATM   18  C20 UNL     1      21.531   0.674  53.422  1.00  0.00     0.180 C 
ENDROOT
BRANCH  10  19
HETATM   19  N1  UNL     1      24.914   6.976  51.137  1.00  0.00    -0.338 N 
HETATM   20  H12 UNL     1      25.321   7.105  52.080  1.00  0.00     0.167 HD
BRANCH  19  21
HETATM   21  C10 UNL     1      25.900   7.231  50.160  1.00  0.00     0.072 A 
HETATM   22  C11 UNL     1      26.591   8.413  50.080  1.00  0.00     0.034 A 
HETATM   23  C12 UNL     1      27.560   8.713  49.149  1.00  0.00     0.021 A 
HETATM   24  C13 UNL     1      27.891   7.774  48.203  1.00  0.00     0.014 A 
HETATM   25 BR1  UNL     1      29.214   8.076  46.867  1.00  0.00    -0.051 Br
HETATM   26  C14 UNL     1      27.228   6.569  48.235  1.00  0.00     0.063 A 
HETATM   27  C15 UNL     1      26.271   6.332  49.189  1.00  0.00     0.144 A 
HETATM   28  F1  UNL     1      25.659   5.102  49.150  1.00  0.00    -0.204 F 
ENDBRANCH  19  21
ENDBRANCH  10  19
TORSDOF 2
ENDMDL
MODEL 2
REMARK VINA RESULT:      -9.0      2.764      4.150
REMARK  2 active torsions:
REMARK  status: ('A' for Active; 'I' for Inactive)
REMARK    1  A    between atoms: C9_10  and  N1_11 
REMARK    2  A    between atoms: N1_11  and  C10_12 
ROOT
HETATM    1  C1  UNL     1      18.339  -1.146  53.276  1.00  0.00     0.012 C 
HETATM    2  C2  UNL     1      19.220   0.047  52.802  1.00  0.00     0.006 C 
HETATM    3  C3  UNL     1      18.963   0.237  51.354  1.00  0.00     0.008 C 
HETATM    4  C4  UNL     1      19.355   1.593  50.791  1.00  0.00     0.027 C 
HETATM    5  C5  UNL     1      20.725   2.016  51.135  1.00  0.00     0.176 C 
HETATM    6  O1  UNL     1      21.660   1.065  50.611  1.00  0.00    -0.348 OA
HETATM    7  C6  UNL     1      22.969   1.320  51.098  1.00  0.00     0.103 A 
HETATM    8  C7  UNL     1      24.127   1.900  50.691  1.00  0.00     0.057 A 
HETATM    9  C8  UNL     1      25.181   1.910  51.560  1.00  0.00     0.042 A 
HETATM   10  C9  UNL     1      26.326   2.510  51.094  1.00  0.00     0.142 A 
HETATM   11  N2  UNL     1      27.368   2.531  51.923  1.00  0.00    -0.224 NA
HETATM   12  C16 UNL     1      27.295   1.997  53.140  1.00  0.00     0.236 A 
HETATM   13  N3  UNL     1      26.163   1.413  53.577  1.00  0.00    -0.241 NA
HETATM   14  C17 UNL     1      25.066   1.348  52.805  1.00  0.00     0.075 A 
HETATM   15  C18 UNL     1      23.899   0.757  53.230  1.00  0.00     0.072 A 
HETATM   16  C19 UNL     1      22.809   0.723  52.389  1.00  0.00     0.104 A 
HETATM   17  O2  UNL     1      21.674   0.192  52.689  1.00  0.00    -0.348 OA
HETATM   18  C20 UNL     1      20.658  -0.515  53.076  1.00  0.00     0.180 C 
ENDROOT
BRANCH  10  19
HETATM   19  N1  UNL     1      26.384   3.072  49.800  1.00  0.00    -0.338 N 
HETATM   20  H12 UNL     1      26.254   2.480  48.960  1.00  0.00     0.167 HD
BRANCH  19  21
HETATM   21  C10 UNL     1      26.605   4.408  49.404  1.00  0.00     0.072 A 
HETATM   22  C11 UNL     1      27.681   4.800  48.650  1.00  0.00     0.034 A 
HETATM   23  C12 UNL     1      27.943   6.088  48.237  1.00  0.00     0.021 A 
HETATM   24  C13 UNL     1      27.077   7.093  48.592  1.00  0.00     0.014 A 
HETATM   25 BR1  UNL     1      27.336   8.909  48.081  1.00  0.00    -0.051 Br
HETATM   26  C14 UNL     1      25.980   6.756  49.350  1.00  0.00     0.063 A 
HETATM   27  C15 UNL     1      25.774   5.454  49.729  1.00  0.00     0.144 A 
HETATM   28  F1  UNL     1      24.653   5.205  50.485  1.00  0.00    -0.204 F 
ENDBRANCH  19  21
ENDBRANCH  10  19
TORSDOF 2
ENDMDL
MODEL 3
REMARK VINA RESULT:      -8.8      5.487      9.459
REMARK  2 active torsions:
REMARK  status: ('A' for Active; 'I' for Inactive)
REMARK    1  A    between atoms: C9_10  and  N1_11 
REMARK    2  A    between atoms: N1_11  and  C10_12 
ROOT
HETATM    1  C1  UNL     1      26.831   4.422  49.192  1.00  0.00     0.012 C 
HETATM    2  C2  UNL     1      25.593   3.487  49.326  1.00  0.00     0.006 C 
HETATM    3  C3  UNL     1      24.387   4.319  49.102  1.00  0.00     0.008 C 
HETATM    4  C4  UNL     1      23.122   3.556  48.742  1.00  0.00     0.027 C 
HETATM    5  C5  UNL     1      22.818   2.432  49.647  1.00  0.00     0.176 C 
HETATM    6  O1  UNL     1      22.635   2.931  50.978  1.00  0.00    -0.348 OA
HETATM    7  C6  UNL     1      22.549   1.865  51.911  1.00  0.00     0.103 A 
HETATM    8  C7  UNL     1      21.610   1.170  52.603  1.00  0.00     0.057 A 
HETATM    9  C8  UNL     1      22.030   0.167  53.428  1.00  0.00     0.042 A 
HETATM   10  C9  UNL     1      21.036  -0.501  54.101  1.00  0.00     0.142 A 
HETATM   11  N2  UNL     1      21.421  -1.483  54.913  1.00  0.00    -0.224 NA
HETATM   12  C16 UNL     1      22.706  -1.797  55.059  1.00  0.00     0.236 A 
HETATM   13  N3  UNL     1      23.665  -1.130  54.390  1.00  0.00    -0.241 NA
HETATM   14  C17 UNL     1      23.364  -0.125  53.551  1.00  0.00     0.075 A 
HETATM   15  C18 UNL     1      24.327   0.570  52.857  1.00  0.00     0.072 A 
HETATM   16  C19 UNL     1      23.951   1.591  52.012  1.00  0.00     0.104 A 
HETATM   17  O2  UNL     1      24.772   2.304  51.322  1.00  0.00    -0.348 OA
HETATM   18  C20 UNL     1      25.724   3.029  50.820  1.00  0.00     0.180 C 
ENDROOT
BRANCH  10  19
HETATM   19  N1  UNL     1      19.677  -0.154  53.933  1.00  0.00    -0.338 N 
HETATM   20  H12 UNL     1      19.339   0.793  54.179  1.00  0.00     0.167 HD
BRANCH  19  21
HETATM   21  C10 UNL     1      18.601  -0.927  53.449  1.00  0.00     0.072 A 
HETATM   22  C11 UNL     1      18.254  -2.145  53.977  1.00  0.00     0.034 A 
HETATM   23  C12 UNL     1      17.215  -2.939  53.544  1.00  0.00     0.021 A 
HETATM   24  C13 UNL     1      16.437  -2.509  52.497  1.00  0.00     0.014 A 
HETATM   25 BR1  UNL     1      14.975  -3.520  51.813  1.00  0.00    -0.051 Br
HETATM   26  C14 UNL     1      16.740  -1.293  51.929  1.00  0.00     0.063 A 
HETATM   27  C15 UNL     1      17.789  -0.549  52.407  1.00  0.00     0.144 A 
HETATM   28  F1  UNL     1      18.022   0.653  51.783  1.00  0.00    -0.204 F 
ENDBRANCH  19  21
ENDBRANCH  10  19
TORSDOF 2
ENDMDL
MODEL 4
REMARK VINA RESULT:      -8.8      4.724      8.688
REMARK  2 active torsions:
REMARK  status: ('A' for Active; 'I' for Inactive)
REMARK    1  A    between atoms: C9_10  and  N1_11 
REMARK    2  A    between atoms: N1_11  and  C10_12 
ROOT
HETATM    1  C1  UNL     1      26.356   7.309  47.970  1.00  0.00     0.012 C 
HETATM    2  C2  UNL     1      25.425   6.174  48.488  1.00  0.00     0.006 C 
HETATM    3  C3  UNL     1      24.371   6.810  49.313  1.00  0.00     0.008 C 
HETATM    4  C4  UNL     1      23.122   5.974  49.542  1.00  0.00     0.027 C 
HETATM    5  C5  UNL     1      23.393   4.602  50.012  1.00  0.00     0.176 C 
HETATM    6  O1  UNL     1      24.087   4.659  51.264  1.00  0.00    -0.348 OA
HETATM    7  C6  UNL     1      24.550   3.373  51.645  1.00  0.00     0.103 A 
HETATM    8  C7  UNL     1      24.207   2.356  52.477  1.00  0.00     0.057 A 
HETATM    9  C8  UNL     1      25.004   1.247  52.500  1.00  0.00     0.042 A 
HETATM   10  C9  UNL     1      24.607   0.252  53.360  1.00  0.00     0.142 A 
HETATM   11  N2  UNL     1      25.370  -0.839  53.402  1.00  0.00    -0.224 NA
HETATM   12  C16 UNL     1      26.459  -0.952  52.645  1.00  0.00     0.236 A 
HETATM   13  N3  UNL     1      26.830   0.036  51.810  1.00  0.00    -0.241 NA
HETATM   14  C17 UNL     1      26.118   1.171  51.706  1.00  0.00     0.075 A 
HETATM   15  C18 UNL     1      26.479   2.193  50.859  1.00  0.00     0.072 A 
HETATM   16  C19 UNL     1      25.705   3.331  50.800  1.00  0.00     0.104 A 
HETATM   17  O2  UNL     1      25.957   4.344  50.046  1.00  0.00    -0.348 OA
HETATM   18  C20 UNL     1      26.427   5.337  49.356  1.00  0.00     0.180 C 
ENDROOT
BRANCH  10  19
HETATM   19  N1  UNL     1      23.448   0.390  54.155  1.00  0.00    -0.338 N 
HETATM   20  H12 UNL     1      23.488   0.876  55.068  1.00  0.00     0.167 HD
BRANCH  19  21
HETATM   21  C10 UNL     1      22.130  -0.053  53.913  1.00  0.00     0.072 A 
HETATM   22  C11 UNL     1      21.228   0.649  53.156  1.00  0.00     0.034 A 
HETATM   23  C12 UNL     1      19.933   0.264  52.889  1.00  0.00     0.021 A 
HETATM   24  C13 UNL     1      19.468  -0.920  53.409  1.00  0.00     0.014 A 
HETATM   25 BR1  UNL     1      17.698  -1.555  53.109  1.00  0.00    -0.051 Br
HETATM   26  C14 UNL     1      20.331  -1.665  54.179  1.00  0.00     0.063 A 
HETATM   27  C15 UNL     1      21.610  -1.226  54.407  1.00  0.00     0.144 A 
HETATM   28  F1  UNL     1      22.406  -2.032  55.186  1.00  0.00    -0.204 F 
ENDBRANCH  19  21
ENDBRANCH  10  19
TORSDOF 2
ENDMDL
MODEL 5
REMARK VINA RESULT:      -8.4      4.479      6.615
REMARK  2 active torsions:
REMARK  status: ('A' for Active; 'I' for Inactive)
REMARK    1  A    between atoms: C9_10  and  N1_11 
REMARK    2  A    between atoms: N1_11  and  C10_12 
ROOT
HETATM    1  C1  UNL     1      29.280   0.386  54.521  1.00  0.00     0.012 C 
HETATM    2  C2  UNL     1      28.059   0.476  53.559  1.00  0.00     0.006 C 
HETATM    3  C3  UNL     1      27.952   1.885  53.114  1.00  0.00     0.008 C 
HETATM    4  C4  UNL     1      27.137   2.114  51.851  1.00  0.00     0.027 C 
HETATM    5  C5  UNL     1      25.809   1.472  51.865  1.00  0.00     0.176 C 
HETATM    6  O1  UNL     1      25.041   1.998  52.955  1.00  0.00    -0.348 OA
HETATM    7  C6  UNL     1      23.842   1.259  53.132  1.00  0.00     0.103 A 
HETATM    8  C7  UNL     1      22.519   1.350  52.838  1.00  0.00     0.057 A 
HETATM    9  C8  UNL     1      21.702   0.329  53.231  1.00  0.00     0.042 A 
HETATM   10  C9  UNL     1      20.375   0.477  52.907  1.00  0.00     0.142 A 
HETATM   11  N2  UNL     1      19.556  -0.505  53.281  1.00  0.00    -0.224 NA
HETATM   12  C16 UNL     1      20.010  -1.573  53.935  1.00  0.00     0.236 A 
HETATM   13  N3  UNL     1      21.315  -1.697  54.243  1.00  0.00    -0.241 NA
HETATM   14  C17 UNL     1      22.208  -0.753  53.903  1.00  0.00     0.075 A 
HETATM   15  C18 UNL     1      23.545  -0.859  54.207  1.00  0.00     0.072 A 
HETATM   16  C19 UNL     1      24.409   0.146  53.831  1.00  0.00     0.104 A 
HETATM   17  O2  UNL     1      25.674   0.145  54.070  1.00  0.00    -0.348 OA
HETATM   18  C20 UNL     1      26.889   0.072  54.521  1.00  0.00     0.180 C 
ENDROOT
BRANCH  10  19
HETATM   19  N1  UNL     1      19.912   1.616  52.213  1.00  0.00    -0.338 N 
HETATM   20  H12 UNL     1      19.197   2.237  52.632  1.00  0.00     0.167 HD
BRANCH  19  21
HETATM   21  C10 UNL     1      20.277   2.109  50.942  1.00  0.00     0.072 A 
HETATM   22  C11 UNL     1      20.440   1.305  49.843  1.00  0.00     0.034 A 
HETATM   23  C12 UNL     1      20.793   1.732  48.582  1.00  0.00     0.021 A 
HETATM   24  C13 UNL     1      21.010   3.072  48.368  1.00  0.00     0.014 A 
HETATM   25 BR1  UNL     1      21.503   3.780  46.670  1.00  0.00    -0.051 Br
HETATM   26  C14 UNL     1      20.862   3.925  49.436  1.00  0.00     0.063 A 
HETATM   27  C15 UNL     1      20.507   3.436  50.668  1.00  0.00     0.144 A 
HETATM   28  F1  UNL     1      20.379   4.357  51.680  1.00  0.00    -0.204 F 
ENDBRANCH  19  21
ENDBRANCH  10  19
TORSDOF 2
ENDMDL
MODEL 6
REMARK VINA RESULT:      -8.3      5.511      8.238
REMARK  2 active torsions:
REMARK  status: ('A' for Active; 'I' for Inactive)
REMARK    1  A    between atoms: C9_10  and  N1_11 
REMARK    2  A    between atoms: N1_11  and  C10_12 
ROOT
HETATM    1  C1  UNL     1      29.164   0.832  54.327  1.00  0.00     0.012 C 
HETATM    2  C2  UNL     1      27.915   0.775  53.401  1.00  0.00     0.006 C 
HETATM    3  C3  UNL     1      27.705   2.137  52.857  1.00  0.00     0.008 C 
HETATM    4  C4  UNL     1      26.843   2.220  51.608  1.00  0.00     0.027 C 
HETATM    5  C5  UNL     1      25.560   1.499  51.711  1.00  0.00     0.176 C 
HETATM    6  O1  UNL     1      24.789   2.057  52.783  1.00  0.00    -0.348 OA
HETATM    7  C6  UNL     1      23.646   1.260  53.052  1.00  0.00     0.103 A 
HETATM    8  C7  UNL     1      22.312   1.247  52.794  1.00  0.00     0.057 A 
HETATM    9  C8  UNL     1      21.573   0.210  53.287  1.00  0.00     0.042 A 
HETATM   10  C9  UNL     1      20.231   0.250  52.995  1.00  0.00     0.142 A 
HETATM   11  N2  UNL     1      19.488  -0.750  53.466  1.00  0.00    -0.224 NA
HETATM   12  C16 UNL     1      20.026  -1.735  54.181  1.00  0.00     0.236 A 
HETATM   13  N3  UNL     1      21.344  -1.755  54.455  1.00  0.00    -0.241 NA
HETATM   14  C17 UNL     1      22.165  -0.785  54.020  1.00  0.00     0.075 A 
HETATM   15  C18 UNL     1      23.514  -0.785  54.288  1.00  0.00     0.072 A 
HETATM   16  C19 UNL     1      24.301   0.240  53.812  1.00  0.00     0.104 A 
HETATM   17  O2  UNL     1      25.570   0.335  54.011  1.00  0.00    -0.348 OA
HETATM   18  C20 UNL     1      26.799   0.372  54.427  1.00  0.00     0.180 C 
ENDROOT
BRANCH  10  19
HETATM   19  N1  UNL     1      19.678   1.304  52.235  1.00  0.00    -0.338 N 
HETATM   20  H12 UNL     1      20.112   2.244  52.239  1.00  0.00     0.167 HD
BRANCH  19  21
HETATM   21  C10 UNL     1      18.543   1.313  51.396  1.00  0.00     0.072 A 
HETATM   22  C11 UNL     1      18.159   0.237  50.638  1.00  0.00     0.034 A 
HETATM   23  C12 UNL     1      17.063   0.193  49.806  1.00  0.00     0.021 A 
HETATM   24  C13 UNL     1      16.260   1.303  49.699  1.00  0.00     0.014 A 
HETATM   25 BR1  UNL     1      14.720   1.359  48.580  1.00  0.00    -0.051 Br
HETATM   26  C14 UNL     1      16.599   2.412  50.437  1.00  0.00     0.063 A 
HETATM   27  C15 UNL     1      17.705   2.392  51.249  1.00  0.00     0.144 A 
HETATM   28  F1  UNL     1      17.969   3.544  51.952  1.00  0.00    -0.204 F 
ENDBRANCH  19  21
ENDBRANCH  10  19
TORSDOF 2
ENDMDL
MODEL 7
REMARK VINA RESULT:      -8.2      3.024      4.670
REMARK  2 active torsions:
REMARK  status: ('A' for Active; 'I' for Inactive)
REMARK    1  A    between atoms: C9_10  and  N1_11 
REMARK    2  A    between atoms: N1_11  and  C10_12 
ROOT
HETATM    1  C1  UNL     1      17.279  -2.372  53.562  1.00  0.00     0.012 C 
HETATM    2  C2  UNL     1      18.067  -1.065  53.258  1.00  0.00     0.006 C 
HETATM    3  C3  UNL     1      17.686  -0.627  51.894  1.00  0.00     0.008 C 
HETATM    4  C4  UNL     1      17.972   0.830  51.568  1.00  0.00     0.027 C 
HETATM    5  C5  UNL     1      19.347   1.260  51.887  1.00  0.00     0.176 C 
HETATM    6  O1  UNL     1      20.276   0.476  51.128  1.00  0.00    -0.348 OA
HETATM    7  C6  UNL     1      21.608   0.712  51.559  1.00  0.00     0.103 A 
HETATM    8  C7  UNL     1      22.703   1.422  51.186  1.00  0.00     0.057 A 
HETATM    9  C8  UNL     1      23.823   1.333  51.964  1.00  0.00     0.042 A 
HETATM   10  C9  UNL     1      24.899   2.072  51.538  1.00  0.00     0.142 A 
HETATM   11  N2  UNL     1      26.003   2.001  52.280  1.00  0.00    -0.224 NA
HETATM   12  C16 UNL     1      26.052   1.249  53.377  1.00  0.00     0.236 A 
HETATM   13  N3  UNL     1      24.985   0.532  53.777  1.00  0.00    -0.241 NA
HETATM   14  C17 UNL     1      23.833   0.546  53.087  1.00  0.00     0.075 A 
HETATM   15  C18 UNL     1      22.730  -0.178  53.476  1.00  0.00     0.072 A 
HETATM   16  C19 UNL     1      21.578  -0.119  52.724  1.00  0.00     0.104 A 
HETATM   17  O2  UNL     1      20.496  -0.761  52.999  1.00  0.00    -0.348 OA
HETATM   18  C20 UNL     1      19.545  -1.584  53.318  1.00  0.00     0.180 C 
ENDROOT
BRANCH  10  19
HETATM   19  N1  UNL     1      24.828   2.864  50.371  1.00  0.00    -0.338 N 
HETATM   20  H12 UNL     1      24.579   2.442  49.460  1.00  0.00     0.167 HD
BRANCH  19  21
HETATM   21  C10 UNL     1      25.053   4.247  50.203  1.00  0.00     0.072 A 
HETATM   22  C11 UNL     1      25.891   4.761  49.247  1.00  0.00     0.034 A 
HETATM   23  C12 UNL     1      26.146   6.099  49.040  1.00  0.00     0.021 A 
HETATM   24  C13 UNL     1      25.527   7.029  49.840  1.00  0.00     0.014 A 
HETATM   25 BR1  UNL     1      25.802   8.903  49.649  1.00  0.00    -0.051 Br
HETATM   26  C14 UNL     1      24.676   6.568  50.818  1.00  0.00     0.063 A 
HETATM   27  C15 UNL     1      24.464   5.222  50.973  1.00  0.00     0.144 A 
HETATM   28  F1  UNL     1      23.598   4.849  51.973  1.00  0.00    -0.204 F 
ENDBRANCH  19  21
ENDBRANCH  10  19
TORSDOF 2
ENDMDL
MODEL 8
REMARK VINA RESULT:      -8.2      4.706      8.997
REMARK  2 active torsions:
REMARK  status: ('A' for Active; 'I' for Inactive)
REMARK    1  A    between atoms: C9_10  and  N1_11 
REMARK    2  A    between atoms: N1_11  and  C10_12 
ROOT
HETATM    1  C1  UNL     1      35.344   8.262  47.857  1.00  0.00     0.012 C 
HETATM    2  C2  UNL     1      34.102   7.535  48.449  1.00  0.00     0.006 C 
HETATM    3  C3  UNL     1      33.915   6.283  47.679  1.00  0.00     0.008 C 
HETATM    4  C4  UNL     1      33.064   5.218  48.353  1.00  0.00     0.027 C 
HETATM    5  C5  UNL     1      31.771   5.713  48.861  1.00  0.00     0.176 C 
HETATM    6  O1  UNL     1      30.999   6.229  47.769  1.00  0.00    -0.348 OA
HETATM    7  C6  UNL     1      29.843   6.902  48.241  1.00  0.00     0.103 A 
HETATM    8  C7  UNL     1      28.512   6.684  48.396  1.00  0.00     0.057 A 
HETATM    9  C8  UNL     1      27.754   7.688  48.929  1.00  0.00     0.042 A 
HETATM   10  C9  UNL     1      26.415   7.410  49.063  1.00  0.00     0.142 A 
HETATM   11  N2  UNL     1      25.654   8.374  49.579  1.00  0.00    -0.224 NA
HETATM   12  C16 UNL     1      26.173   9.543  49.946  1.00  0.00     0.236 A 
HETATM   13  N3  UNL     1      27.489   9.794  49.807  1.00  0.00    -0.241 NA
HETATM   14  C17 UNL     1      28.327   8.878  49.294  1.00  0.00     0.075 A 
HETATM   15  C18 UNL     1      29.673   9.114  49.142  1.00  0.00     0.072 A 
HETATM   16  C19 UNL     1      30.478   8.131  48.609  1.00  0.00     0.104 A 
HETATM   17  O2  UNL     1      31.747   8.252  48.422  1.00  0.00    -0.348 OA
HETATM   18  C20 UNL     1      32.972   8.582  48.152  1.00  0.00     0.180 C 
ENDROOT
BRANCH  10  19
HETATM   19  N1  UNL     1      25.883   6.163  48.668  1.00  0.00    -0.338 N 
HETATM   20  H12 UNL     1      25.719   5.950  47.668  1.00  0.00     0.167 HD
BRANCH  19  21
HETATM   21  C10 UNL     1      25.498   5.056  49.454  1.00  0.00     0.072 A 
HETATM   22  C11 UNL     1      24.356   5.033  50.213  1.00  0.00     0.034 A 
HETATM   23  C12 UNL     1      23.935   3.981  50.996  1.00  0.00     0.021 A 
HETATM   24  C13 UNL     1      24.698   2.839  51.047  1.00  0.00     0.014 A 
HETATM   25 BR1  UNL     1      24.218   1.322  52.094  1.00  0.00    -0.051 Br
HETATM   26  C14 UNL     1      25.856   2.807  50.306  1.00  0.00     0.063 A 
HETATM   27  C15 UNL     1      26.220   3.890  49.545  1.00  0.00     0.144 A 
HETATM   28  F1  UNL     1      27.391   3.773  48.834  1.00  0.00    -0.204 F 
ENDBRANCH  19  21
ENDBRANCH  10  19
TORSDOF 2
ENDMDL
MODEL 9
REMARK VINA RESULT:      -8.2      4.122      8.582
REMARK  2 active torsions:
REMARK  status: ('A' for Active; 'I' for Inactive)
REMARK    1  A    between atoms: C9_10  and  N1_11 
REMARK    2  A    between atoms: N1_11  and  C10_12 
ROOT
HETATM    1  C1  UNL     1      32.467   9.824  46.598  1.00  0.00     0.012 C 
HETATM    2  C2  UNL     1      31.793   8.714  47.456  1.00  0.00     0.006 C 
HETATM    3  C3  UNL     1      31.988   7.428  46.745  1.00  0.00     0.008 C 
HETATM    4  C4  UNL     1      31.818   6.177  47.593  1.00  0.00     0.027 C 
HETATM    5  C5  UNL     1      30.574   6.150  48.384  1.00  0.00     0.176 C 
HETATM    6  O1  UNL     1      29.448   6.205  47.498  1.00  0.00    -0.348 OA
HETATM    7  C6  UNL     1      28.243   6.392  48.223  1.00  0.00     0.103 A 
HETATM    8  C7  UNL     1      27.187   5.668  48.677  1.00  0.00     0.057 A 
HETATM    9  C8  UNL     1      26.211   6.323  49.372  1.00  0.00     0.042 A 
HETATM   10  C9  UNL     1      25.169   5.540  49.807  1.00  0.00     0.142 A 
HETATM   11  N2  UNL     1      24.202   6.155  50.486  1.00  0.00    -0.224 NA
HETATM   12  C16 UNL     1      24.252   7.463  50.728  1.00  0.00     0.236 A 
HETATM   13  N3  UNL     1      25.283   8.212  50.292  1.00  0.00    -0.241 NA
HETATM   14  C17 UNL     1      26.299   7.671  49.600  1.00  0.00     0.075 A 
HETATM   15  C18 UNL     1      27.361   8.417  49.145  1.00  0.00     0.072 A 
HETATM   16  C19 UNL     1      28.371   7.801  48.440  1.00  0.00     0.104 A 
HETATM   17  O2  UNL     1      29.405   8.409  47.969  1.00  0.00    -0.348 OA
HETATM   18  C20 UNL     1      30.296   9.180  47.427  1.00  0.00     0.180 C 
ENDROOT
BRANCH  10  19
HETATM   19  N1  UNL     1      25.134   4.153  49.540  1.00  0.00    -0.338 N 
HETATM   20  H12 UNL     1      24.995   3.803  48.576  1.00  0.00     0.167 HD
BRANCH  19  21
HETATM   21  C10 UNL     1      25.265   3.060  50.424  1.00  0.00     0.072 A 
HETATM   22  C11 UNL     1      26.477   2.549  50.811  1.00  0.00     0.034 A 
HETATM   23  C12 UNL     1      26.662   1.487  51.669  1.00  0.00     0.021 A 
HETATM   24  C13 UNL     1      25.561   0.860  52.202  1.00  0.00     0.014 A 
HETATM   25 BR1  UNL     1      25.692  -0.617  53.397  1.00  0.00    -0.051 Br
HETATM   26  C14 UNL     1      24.319   1.332  51.847  1.00  0.00     0.063 A 
HETATM   27  C15 UNL     1      24.203   2.395  50.987  1.00  0.00     0.144 A 
HETATM   28  F1  UNL     1      22.925   2.803  50.686  1.00  0.00    -0.204 F 
ENDBRANCH  19  21
ENDBRANCH  10  19
TORSDOF 2
ENDMDL
