MODEL 1
REMARK VINA RESULT:      -8.4      0.000      0.000
REMARK  7 active torsions:
REMARK  status: ('A' for Active; 'I' for Inactive)
REMARK    1  A    between atoms: C2_2  and  C3_3 
REMARK    2  A    between atoms: C3_3  and  C7_8 
REMARK    3  A    between atoms: C4_4  and  C5_5 
REMARK    4  A    between atoms: C5_5  and  O1_6 
REMARK    5  A    between atoms: N2_10  and  C8_11 
REMARK    6  A    between atoms: C9_13  and  O2_14 
REMARK    7  A    between atoms: C11_17  and  C12_18 
ROOT
HETATM    1  C7  UNL     1      25.730   2.727  51.012  1.00  0.00     0.067 C 
HETATM    2  N1  UNL     1      26.713   1.979  51.375  1.00  0.00    -0.173 NA
HETATM    3  N2  UNL     1      26.321   1.130  52.415  1.00  0.00    -0.236 N 
HETATM    4  C11 UNL     1      25.083   1.600  52.921  1.00  0.00     0.151 C 
HETATM    5  C18 UNL     1      24.516   2.422  51.806  1.00  0.00     0.094 C 
ENDROOT
BRANCH   1   6
HETATM    6  C3  UNL     1      25.790   3.725  49.955  1.00  0.00    -0.015 C 
HETATM    7  C4  UNL     1      26.983   4.142  49.556  1.00  0.00     0.012 C 
BRANCH   6   8
HETATM    8  C2  UNL     1      24.619   4.293  49.294  1.00  0.00    -0.013 C 
HETATM    9  C1  UNL     1      24.033   5.385  49.746  1.00  0.00     0.032 C 
ENDBRANCH   6   8
BRANCH   7  10
HETATM   10  C5  UNL     1      27.473   5.100  48.544  1.00  0.00     0.195 C 
BRANCH  10  11
HETATM   11  O1  UNL     1      28.821   4.848  48.318  1.00  0.00    -0.392 OA
HETATM   12  C6  UNL     1      29.482   6.057  48.141  1.00  0.00     0.201 C 
ENDBRANCH  10  11
ENDBRANCH   7  10
ENDBRANCH   1   6
BRANCH   3  13
HETATM   13  C8  UNL     1      27.192   0.027  52.719  1.00  0.00     0.192 A 
HETATM   14  N3  UNL     1      27.285  -1.107  52.641  1.00  0.00    -0.198 NA
HETATM   15  C9  UNL     1      28.242  -1.933  52.995  1.00  0.00     0.171 A 
HETATM   16  C10 UNL     1      29.325  -1.353  53.559  1.00  0.00     0.111 A 
HETATM   17  S1  UNL     1      28.853   0.443  53.534  1.00  0.00    -0.058 SA
BRANCH  15  18
HETATM   18  O2  UNL     1      28.288  -3.317  52.869  1.00  0.00    -0.344 OA
HETATM   19  H10 UNL     1      27.518  -3.927  52.767  1.00  0.00     0.219 HD
ENDBRANCH  15  18
ENDBRANCH   3  13
BRANCH   4  20
HETATM   20  C12 UNL     1      24.195   0.540  53.436  1.00  0.00    -0.033 A 
HETATM   21  C13 UNL     1      23.010   0.412  52.693  1.00  0.00     0.012 A 
HETATM   22  C14 UNL     1      22.072  -0.512  53.045  1.00  0.00     0.043 A 
HETATM   23  C15 UNL     1      22.273  -1.334  54.137  1.00  0.00     0.116 A 
HETATM   24  F1  UNL     1      21.361  -2.271  54.518  1.00  0.00    -0.206 F 
HETATM   25  C16 UNL     1      23.417  -1.262  54.914  1.00  0.00     0.043 A 
HETATM   26  C17 UNL     1      24.322  -0.308  54.506  1.00  0.00     0.012 A 
ENDBRANCH   4  20
TORSDOF 7
ENDMDL
MODEL 2
REMARK VINA RESULT:      -7.9      1.175      2.043
REMARK  7 active torsions:
REMARK  status: ('A' for Active; 'I' for Inactive)
REMARK    1  A    between atoms: C2_2  and  C3_3 
REMARK    2  A    between atoms: C3_3  and  C7_8 
REMARK    3  A    between atoms: C4_4  and  C5_5 
REMARK    4  A    between atoms: C5_5  and  O1_6 
REMARK    5  A    between atoms: N2_10  and  C8_11 
REMARK    6  A    between atoms: C9_13  and  O2_14 
REMARK    7  A    between atoms: C11_17  and  C12_18 
ROOT
HETATM    1  C7  UNL     1      25.892   2.833  50.931  1.00  0.00     0.067 C 
HETATM    2  N1  UNL     1      26.862   2.087  51.332  1.00  0.00    -0.173 NA
HETATM    3  N2  UNL     1      26.434   1.244  52.363  1.00  0.00    -0.236 N 
HETATM    4  C11 UNL     1      25.179   1.717  52.822  1.00  0.00     0.151 C 
HETATM    5  C18 UNL     1      24.651   2.533  51.684  1.00  0.00     0.094 C 
ENDROOT
BRANCH   1   6
HETATM    6  C3  UNL     1      25.989   3.824  49.871  1.00  0.00    -0.015 C 
HETATM    7  C4  UNL     1      25.008   4.706  49.747  1.00  0.00     0.012 C 
BRANCH   6   8
HETATM    8  C2  UNL     1      27.107   3.921  48.936  1.00  0.00    -0.013 C 
HETATM    9  C1  UNL     1      27.824   5.022  48.828  1.00  0.00     0.032 C 
ENDBRANCH   6   8
BRANCH   7  10
HETATM   10  C5  UNL     1      24.728   5.843  48.845  1.00  0.00     0.195 C 
BRANCH  10  11
HETATM   11  O1  UNL     1      24.232   6.894  49.606  1.00  0.00    -0.392 OA
HETATM   12  C6  UNL     1      23.465   6.377  50.643  1.00  0.00     0.201 C 
ENDBRANCH  10  11
ENDBRANCH   7  10
ENDBRANCH   1   6
BRANCH   3  13
HETATM   13  C8  UNL     1      27.293   0.142  52.703  1.00  0.00     0.192 A 
HETATM   14  N3  UNL     1      27.397  -0.990  52.620  1.00  0.00    -0.198 NA
HETATM   15  C9  UNL     1      28.337  -1.814  53.018  1.00  0.00     0.171 A 
HETATM   16  C10 UNL     1      29.385  -1.234  53.644  1.00  0.00     0.111 A 
HETATM   17  S1  UNL     1      28.905   0.559  53.611  1.00  0.00    -0.058 SA
BRANCH  15  18
HETATM   18  O2  UNL     1      28.399  -3.196  52.882  1.00  0.00    -0.344 OA
HETATM   19  H10 UNL     1      28.736  -3.842  53.550  1.00  0.00     0.219 HD
ENDBRANCH  15  18
ENDBRANCH   3  13
BRANCH   4  20
HETATM   20  C12 UNL     1      24.273   0.661  53.313  1.00  0.00    -0.033 A 
HETATM   21  C13 UNL     1      23.102   0.547  52.546  1.00  0.00     0.012 A 
HETATM   22  C14 UNL     1      22.151  -0.372  52.873  1.00  0.00     0.043 A 
HETATM   23  C15 UNL     1      22.324  -1.204  53.963  1.00  0.00     0.116 A 
HETATM   24  F1  UNL     1      21.398  -2.136  54.320  1.00  0.00    -0.206 F 
HETATM   25  C16 UNL     1      23.454  -1.146  54.763  1.00  0.00     0.043 A 
HETATM   26  C17 UNL     1      24.373  -0.197  54.379  1.00  0.00     0.012 A 
ENDBRANCH   4  20
TORSDOF 7
ENDMDL
MODEL 3
REMARK VINA RESULT:      -7.8      3.284      4.680
REMARK  7 active torsions:
REMARK  status: ('A' for Active; 'I' for Inactive)
REMARK    1  A    between atoms: C2_2  and  C3_3 
REMARK    2  A    between atoms: C3_3  and  C7_8 
REMARK    3  A    between atoms: C4_4  and  C5_5 
REMARK    4  A    between atoms: C5_5  and  O1_6 
REMARK    5  A    between atoms: N2_10  and  C8_11 
REMARK    6  A    between atoms: C9_13  and  O2_14 
REMARK    7  A    between atoms: C11_17  and  C12_18 
ROOT
HETATM    1  C7  UNL     1      23.899   3.381  51.797  1.00  0.00     0.067 C 
HETATM    2  N1  UNL     1      23.136   2.489  52.326  1.00  0.00    -0.173 NA
HETATM    3  N2  UNL     1      23.834   1.290  52.499  1.00  0.00    -0.236 N 
HETATM    4  C11 UNL     1      25.035   1.371  51.751  1.00  0.00     0.151 C 
HETATM    5  C18 UNL     1      25.260   2.840  51.569  1.00  0.00     0.094 C 
ENDROOT
BRANCH   1   6
HETATM    6  C3  UNL     1      23.493   4.741  51.480  1.00  0.00    -0.015 C 
HETATM    7  C4  UNL     1      24.384   5.545  50.920  1.00  0.00     0.012 C 
BRANCH   6   8
HETATM    8  C2  UNL     1      22.160   5.280  51.731  1.00  0.00    -0.013 C 
HETATM    9  C1  UNL     1      21.164   5.078  50.890  1.00  0.00     0.032 C 
ENDBRANCH   6   8
BRANCH   7  10
HETATM   10  C5  UNL     1      24.381   6.946  50.447  1.00  0.00     0.195 C 
BRANCH  10  11
HETATM   11  O1  UNL     1      25.679   7.435  50.519  1.00  0.00    -0.392 OA
HETATM   12  C6  UNL     1      26.341   7.132  49.335  1.00  0.00     0.201 C 
ENDBRANCH  10  11
ENDBRANCH   7  10
ENDBRANCH   1   6
BRANCH   3  13
HETATM   13  C8  UNL     1      23.233   0.303  53.355  1.00  0.00     0.192 A 
HETATM   14  N3  UNL     1      23.445  -0.385  54.239  1.00  0.00    -0.198 NA
HETATM   15  C9  UNL     1      22.683  -1.231  54.892  1.00  0.00     0.171 A 
HETATM   16  C10 UNL     1      21.408  -1.317  54.452  1.00  0.00     0.111 A 
HETATM   17  S1  UNL     1      21.406  -0.102  53.047  1.00  0.00    -0.058 SA
BRANCH  15  18
HETATM   18  O2  UNL     1      23.011  -2.046  55.970  1.00  0.00    -0.344 OA
HETATM   19  H10 UNL     1      23.608  -1.817  56.724  1.00  0.00     0.219 HD
ENDBRANCH  15  18
ENDBRANCH   3  13
BRANCH   4  20
HETATM   20  C12 UNL     1      26.168   0.629  52.336  1.00  0.00    -0.033 A 
HETATM   21  C13 UNL     1      27.027   1.447  53.088  1.00  0.00     0.012 A 
HETATM   22  C14 UNL     1      28.133   0.920  53.684  1.00  0.00     0.043 A 
HETATM   23  C15 UNL     1      28.425  -0.425  53.559  1.00  0.00     0.116 A 
HETATM   24  F1  UNL     1      29.518  -0.988  54.143  1.00  0.00    -0.206 F 
HETATM   25  C16 UNL     1      27.622  -1.289  52.833  1.00  0.00     0.043 A 
HETATM   26  C17 UNL     1      26.524  -0.694  52.255  1.00  0.00     0.012 A 
ENDBRANCH   4  20
TORSDOF 7
ENDMDL
MODEL 4
REMARK VINA RESULT:      -7.7      3.569      5.205
REMARK  7 active torsions:
REMARK  status: ('A' for Active; 'I' for Inactive)
REMARK    1  A    between atoms: C2_2  and  C3_3 
REMARK    2  A    between atoms: C3_3  and  C7_8 
REMARK    3  A    between atoms: C4_4  and  C5_5 
REMARK    4  A    between atoms: C5_5  and  O1_6 
REMARK    5  A    between atoms: N2_10  and  C8_11 
REMARK    6  A    between atoms: C9_13  and  O2_14 
REMARK    7  A    between atoms: C11_17  and  C12_18 
ROOT
HETATM    1  C7  UNL     1      24.080   3.198  51.512  1.00  0.00     0.067 C 
HETATM    2  N1  UNL     1      23.312   2.347  52.097  1.00  0.00    -0.173 NA
HETATM    3  N2  UNL     1      24.013   1.170  52.378  1.00  0.00    -0.236 N 
HETATM    4  C11 UNL     1      25.227   1.200  51.647  1.00  0.00     0.151 C 
HETATM    5  C18 UNL     1      25.447   2.651  51.352  1.00  0.00     0.094 C 
ENDROOT
BRANCH   1   6
HETATM    6  C3  UNL     1      23.672   4.527  51.080  1.00  0.00    -0.015 C 
HETATM    7  C4  UNL     1      22.469   4.956  51.431  1.00  0.00     0.012 C 
BRANCH   6   8
HETATM    8  C2  UNL     1      24.508   5.427  50.292  1.00  0.00    -0.013 C 
HETATM    9  C1  UNL     1      24.535   5.368  48.974  1.00  0.00     0.032 C 
ENDBRANCH   6   8
BRANCH   7  10
HETATM   10  C5  UNL     1      21.696   6.198  51.217  1.00  0.00     0.195 C 
BRANCH  10  11
HETATM   11  O1  UNL     1      21.033   6.098  50.001  1.00  0.00    -0.392 OA
HETATM   12  C6  UNL     1      20.523   7.345  49.661  1.00  0.00     0.201 C 
ENDBRANCH  10  11
ENDBRANCH   7  10
ENDBRANCH   1   6
BRANCH   3  13
HETATM   13  C8  UNL     1      23.402   0.251  53.299  1.00  0.00     0.192 A 
HETATM   14  N3  UNL     1      23.618  -0.409  54.204  1.00  0.00    -0.198 NA
HETATM   15  C9  UNL     1      22.844  -1.189  54.922  1.00  0.00     0.171 A 
HETATM   16  C10 UNL     1      21.549  -1.231  54.536  1.00  0.00     0.111 A 
HETATM   17  S1  UNL     1      21.547  -0.078  53.081  1.00  0.00    -0.058 SA
BRANCH  15  18
HETATM   18  O2  UNL     1      23.178  -1.973  56.021  1.00  0.00    -0.344 OA
HETATM   19  H10 UNL     1      23.458  -1.651  56.913  1.00  0.00     0.219 HD
ENDBRANCH  15  18
ENDBRANCH   3  13
BRANCH   4  20
HETATM   20  C12 UNL     1      26.354   0.514  52.309  1.00  0.00    -0.033 A 
HETATM   21  C13 UNL     1      27.161   1.387  53.057  1.00  0.00     0.012 A 
HETATM   22  C14 UNL     1      28.254   0.917  53.720  1.00  0.00     0.043 A 
HETATM   23  C15 UNL     1      28.584  -0.424  53.667  1.00  0.00     0.116 A 
HETATM   24  F1  UNL     1      29.666  -0.932  54.319  1.00  0.00    -0.206 F 
HETATM   25  C16 UNL     1      27.833  -1.341  52.950  1.00  0.00     0.043 A 
HETATM   26  C17 UNL     1      26.745  -0.801  52.302  1.00  0.00     0.012 A 
ENDBRANCH   4  20
TORSDOF 7
ENDMDL
MODEL 5
REMARK VINA RESULT:      -7.7      3.671      6.943
REMARK  7 active torsions:
REMARK  status: ('A' for Active; 'I' for Inactive)
REMARK    1  A    between atoms: C2_2  and  C3_3 
REMARK    2  A    between atoms: C3_3  and  C7_8 
REMARK    3  A    between atoms: C4_4  and  C5_5 
REMARK    4  A    between atoms: C5_5  and  O1_6 
REMARK    5  A    between atoms: N2_10  and  C8_11 
REMARK    6  A    between atoms: C9_13  and  O2_14 
REMARK    7  A    between atoms: C11_17  and  C12_18 
ROOT
HETATM    1  C7  UNL     1      23.152   0.876  52.511  1.00  0.00     0.067 C 
HETATM    2  N1  UNL     1      23.470   1.861  51.746  1.00  0.00    -0.173 NA
HETATM    3  N2  UNL     1      24.771   2.293  52.023  1.00  0.00    -0.236 N 
HETATM    4  C11 UNL     1      25.173   1.711  53.252  1.00  0.00     0.151 C 
HETATM    5  C18 UNL     1      24.276   0.523  53.410  1.00  0.00     0.094 C 
ENDROOT
BRANCH   1   6
HETATM    6  C3  UNL     1      21.872   0.185  52.488  1.00  0.00    -0.015 C 
HETATM    7  C4  UNL     1      20.934   0.634  51.667  1.00  0.00     0.012 C 
BRANCH   6   8
HETATM    8  C2  UNL     1      21.552  -0.981  53.306  1.00  0.00    -0.013 C 
HETATM    9  C1  UNL     1      21.202  -0.862  54.572  1.00  0.00     0.032 C 
ENDBRANCH   6   8
BRANCH   7  10
HETATM   10  C5  UNL     1      19.549   0.234  51.338  1.00  0.00     0.195 C 
BRANCH  10  11
HETATM   11  O1  UNL     1      18.679   1.147  51.920  1.00  0.00    -0.392 OA
HETATM   12  C6  UNL     1      17.403   0.940  51.411  1.00  0.00     0.201 C 
ENDBRANCH  10  11
ENDBRANCH   7  10
ENDBRANCH   1   6
BRANCH   3  13
HETATM   13  C8  UNL     1      25.389   3.163  51.060  1.00  0.00     0.192 A 
HETATM   14  N3  UNL     1      26.358   3.346  50.488  1.00  0.00    -0.198 NA
HETATM   15  C9  UNL     1      26.691   4.249  49.596  1.00  0.00     0.171 A 
HETATM   16  C10 UNL     1      25.721   5.137  49.284  1.00  0.00     0.111 A 
HETATM   17  S1  UNL     1      24.321   4.569  50.363  1.00  0.00    -0.058 SA
BRANCH  15  18
HETATM   18  O2  UNL     1      27.903   4.414  48.935  1.00  0.00    -0.344 OA
HETATM   19  H10 UNL     1      28.755   4.723  49.330  1.00  0.00     0.219 HD
ENDBRANCH  15  18
ENDBRANCH   3  13
BRANCH   4  20
HETATM   20  C12 UNL     1      26.617   1.427  53.348  1.00  0.00    -0.033 A 
HETATM   21  C13 UNL     1      26.923   0.074  53.125  1.00  0.00     0.012 A 
HETATM   22  C14 UNL     1      28.213  -0.360  53.191  1.00  0.00     0.043 A 
HETATM   23  C15 UNL     1      29.237   0.522  53.479  1.00  0.00     0.116 A 
HETATM   24  F1  UNL     1      30.538   0.126  53.551  1.00  0.00    -0.206 F 
HETATM   25  C16 UNL     1      29.007   1.868  53.709  1.00  0.00     0.043 A 
HETATM   26  C17 UNL     1      27.685   2.241  53.629  1.00  0.00     0.012 A 
ENDBRANCH   4  20
TORSDOF 7
ENDMDL
MODEL 6
REMARK VINA RESULT:      -7.6      4.256      8.094
REMARK  7 active torsions:
REMARK  status: ('A' for Active; 'I' for Inactive)
REMARK    1  A    between atoms: C2_2  and  C3_3 
REMARK    2  A    between atoms: C3_3  and  C7_8 
REMARK    3  A    between atoms: C4_4  and  C5_5 
REMARK    4  A    between atoms: C5_5  and  O1_6 
REMARK    5  A    between atoms: N2_10  and  C8_11 
REMARK    6  A    between atoms: C9_13  and  O2_14 
REMARK    7  A    between atoms: C11_17  and  C12_18 
ROOT
HETATM    1  C7  UNL     1      24.291   1.202  52.284  1.00  0.00     0.067 C 
HETATM    2  N1  UNL     1      23.350   1.370  51.422  1.00  0.00    -0.173 NA
HETATM    3  N2  UNL     1      23.588   2.517  50.658  1.00  0.00    -0.236 N 
HETATM    4  C11 UNL     1      24.607   3.266  51.298  1.00  0.00     0.151 C 
HETATM    5  C18 UNL     1      25.314   2.268  52.161  1.00  0.00     0.094 C 
ENDROOT
BRANCH   1   6
HETATM    6  C3  UNL     1      24.358   0.107  53.239  1.00  0.00    -0.015 C 
HETATM    7  C4  UNL     1      23.247  -0.240  53.871  1.00  0.00     0.012 C 
BRANCH   6   8
HETATM    8  C2  UNL     1      25.572  -0.646  53.543  1.00  0.00    -0.013 C 
HETATM    9  C1  UNL     1      26.443  -0.959  52.603  1.00  0.00     0.032 C 
ENDBRANCH   6   8
BRANCH   7  10
HETATM   10  C5  UNL     1      22.888  -1.265  54.875  1.00  0.00     0.195 C 
BRANCH  10  11
HETATM   11  O1  UNL     1      21.517  -1.205  55.090  1.00  0.00    -0.392 OA
HETATM   12  C6  UNL     1      21.044   0.023  54.647  1.00  0.00     0.201 C 
ENDBRANCH  10  11
ENDBRANCH   7  10
ENDBRANCH   1   6
BRANCH   3  13
HETATM   13  C8  UNL     1      22.812   2.673  49.457  1.00  0.00     0.192 A 
HETATM   14  N3  UNL     1      22.897   2.886  48.340  1.00  0.00    -0.198 NA
HETATM   15  C9  UNL     1      21.992   2.964  47.393  1.00  0.00     0.171 A 
HETATM   16  C10 UNL     1      20.718   2.757  47.794  1.00  0.00     0.111 A 
HETATM   17  S1  UNL     1      20.935   2.448  49.612  1.00  0.00    -0.058 SA
BRANCH  15  18
HETATM   18  O2  UNL     1      22.168   3.231  46.040  1.00  0.00    -0.344 OA
HETATM   19  H10 UNL     1      21.519   3.664  45.433  1.00  0.00     0.219 HD
ENDBRANCH  15  18
ENDBRANCH   3  13
BRANCH   4  20
HETATM   20  C12 UNL     1      25.473   4.027  50.377  1.00  0.00    -0.033 A 
HETATM   21  C13 UNL     1      25.040   5.350  50.190  1.00  0.00     0.012 A 
HETATM   22  C14 UNL     1      25.721   6.186  49.357  1.00  0.00     0.043 A 
HETATM   23  C15 UNL     1      26.846   5.745  48.686  1.00  0.00     0.116 A 
HETATM   24  F1  UNL     1      27.555   6.551  47.848  1.00  0.00    -0.206 F 
HETATM   25  C16 UNL     1      27.329   4.454  48.825  1.00  0.00     0.043 A 
HETATM   26  C17 UNL     1      26.595   3.662  49.678  1.00  0.00     0.012 A 
ENDBRANCH   4  20
TORSDOF 7
ENDMDL
MODEL 7
REMARK VINA RESULT:      -7.6      4.225      7.928
REMARK  7 active torsions:
REMARK  status: ('A' for Active; 'I' for Inactive)
REMARK    1  A    between atoms: C2_2  and  C3_3 
REMARK    2  A    between atoms: C3_3  and  C7_8 
REMARK    3  A    between atoms: C4_4  and  C5_5 
REMARK    4  A    between atoms: C5_5  and  O1_6 
REMARK    5  A    between atoms: N2_10  and  C8_11 
REMARK    6  A    between atoms: C9_13  and  O2_14 
REMARK    7  A    between atoms: C11_17  and  C12_18 
ROOT
HETATM    1  C7  UNL     1      23.669   1.623  51.845  1.00  0.00     0.067 C 
HETATM    2  N1  UNL     1      22.821   1.807  50.894  1.00  0.00    -0.173 NA
HETATM    3  N2  UNL     1      23.150   2.952  50.162  1.00  0.00    -0.236 N 
HETATM    4  C11 UNL     1      24.111   3.684  50.903  1.00  0.00     0.151 C 
HETATM    5  C18 UNL     1      24.714   2.673  51.828  1.00  0.00     0.094 C 
ENDROOT
BRANCH   1   6
HETATM    6  C3  UNL     1      23.624   0.524  52.797  1.00  0.00    -0.015 C 
HETATM    7  C4  UNL     1      24.742   0.199  53.430  1.00  0.00     0.012 C 
BRANCH   6   8
HETATM    8  C2  UNL     1      22.422  -0.242  53.113  1.00  0.00    -0.013 C 
HETATM    9  C1  UNL     1      21.555   0.174  54.016  1.00  0.00     0.032 C 
ENDBRANCH   6   8
BRANCH   7  10
HETATM   10  C5  UNL     1      25.117  -0.808  54.445  1.00  0.00     0.195 C 
BRANCH  10  11
HETATM   11  O1  UNL     1      26.501  -0.816  54.563  1.00  0.00    -0.392 OA
HETATM   12  C6  UNL     1      26.961   0.495  54.561  1.00  0.00     0.201 C 
ENDBRANCH  10  11
ENDBRANCH   7  10
ENDBRANCH   1   6
BRANCH   3  13
HETATM   13  C8  UNL     1      22.501   3.122  48.890  1.00  0.00     0.192 A 
HETATM   14  N3  UNL     1      22.700   3.214  47.771  1.00  0.00    -0.198 NA
HETATM   15  C9  UNL     1      21.892   3.353  46.747  1.00  0.00     0.171 A 
HETATM   16  C10 UNL     1      20.576   3.398  47.052  1.00  0.00     0.111 A 
HETATM   17  S1  UNL     1      20.607   3.228  48.901  1.00  0.00    -0.058 SA
BRANCH  15  18
HETATM   18  O2  UNL     1      22.207   3.460  45.397  1.00  0.00    -0.344 OA
HETATM   19  H10 UNL     1      21.854   2.902  44.661  1.00  0.00     0.219 HD
ENDBRANCH  15  18
ENDBRANCH   3  13
BRANCH   4  20
HETATM   20  C12 UNL     1      25.076   4.435  50.077  1.00  0.00    -0.033 A 
HETATM   21  C13 UNL     1      26.223   3.688  49.763  1.00  0.00     0.012 A 
HETATM   22  C14 UNL     1      27.221   4.240  49.017  1.00  0.00     0.043 A 
HETATM   23  C15 UNL     1      27.119   5.540  48.560  1.00  0.00     0.116 A 
HETATM   24  F1  UNL     1      28.093   6.125  47.810  1.00  0.00    -0.206 F 
HETATM   25  C16 UNL     1      26.016   6.333  48.832  1.00  0.00     0.043 A 
HETATM   26  C17 UNL     1      25.047   5.717  49.590  1.00  0.00     0.012 A 
ENDBRANCH   4  20
TORSDOF 7
ENDMDL
MODEL 8
REMARK VINA RESULT:      -7.6      1.717      2.420
REMARK  7 active torsions:
REMARK  status: ('A' for Active; 'I' for Inactive)
REMARK    1  A    between atoms: C2_2  and  C3_3 
REMARK    2  A    between atoms: C3_3  and  C7_8 
REMARK    3  A    between atoms: C4_4  and  C5_5 
REMARK    4  A    between atoms: C5_5  and  O1_6 
REMARK    5  A    between atoms: N2_10  and  C8_11 
REMARK    6  A    between atoms: C9_13  and  O2_14 
REMARK    7  A    between atoms: C11_17  and  C12_18 
ROOT
HETATM    1  C7  UNL     1      26.216   4.130  49.930  1.00  0.00     0.067 C 
HETATM    2  N1  UNL     1      26.856   3.236  50.602  1.00  0.00    -0.173 NA
HETATM    3  N2  UNL     1      25.966   2.464  51.354  1.00  0.00    -0.236 N 
HETATM    4  C11 UNL     1      24.712   3.124  51.364  1.00  0.00     0.151 C 
HETATM    5  C18 UNL     1      24.758   4.023  50.167  1.00  0.00     0.094 C 
ENDROOT
BRANCH   1   6
HETATM    6  C3  UNL     1      26.834   5.102  49.042  1.00  0.00    -0.015 C 
HETATM    7  C4  UNL     1      28.110   4.938  48.725  1.00  0.00     0.012 C 
BRANCH   6   8
HETATM    8  C2  UNL     1      26.137   6.248  48.465  1.00  0.00    -0.013 C 
HETATM    9  C1  UNL     1      26.012   7.384  49.123  1.00  0.00     0.032 C 
ENDBRANCH   6   8
BRANCH   7  10
HETATM   10  C5  UNL     1      29.082   5.662  47.879  1.00  0.00     0.195 C 
BRANCH  10  11
HETATM   11  O1  UNL     1      30.336   5.095  48.068  1.00  0.00    -0.392 OA
HETATM   12  C6  UNL     1      31.308   6.042  47.770  1.00  0.00     0.201 C 
ENDBRANCH  10  11
ENDBRANCH   7  10
ENDBRANCH   1   6
BRANCH   3  13
HETATM   13  C8  UNL     1      26.474   1.237  51.907  1.00  0.00     0.192 A 
HETATM   14  N3  UNL     1      26.382   0.103  51.842  1.00  0.00    -0.198 NA
HETATM   15  C9  UNL     1      27.004  -0.863  52.477  1.00  0.00     0.171 A 
HETATM   16  C10 UNL     1      27.927  -0.461  53.378  1.00  0.00     0.111 A 
HETATM   17  S1  UNL     1      27.821   1.387  53.234  1.00  0.00    -0.058 SA
BRANCH  15  18
HETATM   18  O2  UNL     1      26.839  -2.238  52.346  1.00  0.00    -0.344 OA
HETATM   19  H10 UNL     1      25.990  -2.740  52.409  1.00  0.00     0.219 HD
ENDBRANCH  15  18
ENDBRANCH   3  13
BRANCH   4  20
HETATM   20  C12 UNL     1      23.547   2.220  51.427  1.00  0.00    -0.033 A 
HETATM   21  C13 UNL     1      23.190   1.883  52.743  1.00  0.00     0.012 A 
HETATM   22  C14 UNL     1      22.143   1.043  52.978  1.00  0.00     0.043 A 
HETATM   23  C15 UNL     1      21.419   0.512  51.928  1.00  0.00     0.116 A 
HETATM   24  F1  UNL     1      20.365  -0.327  52.123  1.00  0.00    -0.206 F 
HETATM   25  C16 UNL     1      21.716   0.803  50.606  1.00  0.00     0.043 A 
HETATM   26  C17 UNL     1      22.784   1.654  50.438  1.00  0.00     0.012 A 
ENDBRANCH   4  20
TORSDOF 7
ENDMDL
MODEL 9
REMARK VINA RESULT:      -7.3      3.090      4.504
REMARK  7 active torsions:
REMARK  status: ('A' for Active; 'I' for Inactive)
REMARK    1  A    between atoms: C2_2  and  C3_3 
REMARK    2  A    between atoms: C3_3  and  C7_8 
REMARK    3  A    between atoms: C4_4  and  C5_5 
REMARK    4  A    between atoms: C5_5  and  O1_6 
REMARK    5  A    between atoms: N2_10  and  C8_11 
REMARK    6  A    between atoms: C9_13  and  O2_14 
REMARK    7  A    between atoms: C11_17  and  C12_18 
ROOT
HETATM    1  C7  UNL     1      25.410   4.002  49.886  1.00  0.00     0.067 C 
HETATM    2  N1  UNL     1      24.339   3.430  50.314  1.00  0.00    -0.173 NA
HETATM    3  N2  UNL     1      24.657   2.260  51.011  1.00  0.00    -0.236 N 
HETATM    4  C11 UNL     1      26.011   1.942  50.739  1.00  0.00     0.151 C 
HETATM    5  C18 UNL     1      26.613   3.238  50.293  1.00  0.00     0.094 C 
ENDROOT
BRANCH   1   6
HETATM    6  C3  UNL     1      25.444   5.240  49.123  1.00  0.00    -0.015 C 
HETATM    7  C4  UNL     1      26.625   5.746  48.803  1.00  0.00     0.012 C 
BRANCH   6   8
HETATM    8  C2  UNL     1      24.256   5.961  48.675  1.00  0.00    -0.013 C 
HETATM    9  C1  UNL     1      23.663   6.857  49.439  1.00  0.00     0.032 C 
ENDBRANCH   6   8
BRANCH   7  10
HETATM   10  C5  UNL     1      27.090   6.935  48.057  1.00  0.00     0.195 C 
BRANCH  10  11
HETATM   11  O1  UNL     1      28.428   6.753  47.733  1.00  0.00    -0.392 OA
HETATM   12  C6  UNL     1      28.870   5.561  48.294  1.00  0.00     0.201 C 
ENDBRANCH  10  11
ENDBRANCH   7  10
ENDBRANCH   1   6
BRANCH   3  13
HETATM   13  C8  UNL     1      23.616   1.677  51.815  1.00  0.00     0.192 A 
HETATM   14  N3  UNL     1      23.388   0.809  52.518  1.00  0.00    -0.198 NA
HETATM   15  C9  UNL     1      22.304   0.482  53.181  1.00  0.00     0.171 A 
HETATM   16  C10 UNL     1      21.252   1.315  53.014  1.00  0.00     0.111 A 
HETATM   17  S1  UNL     1      21.947   2.578  51.845  1.00  0.00    -0.058 SA
BRANCH  15  18
HETATM   18  O2  UNL     1      22.094  -0.601  54.027  1.00  0.00    -0.344 OA
HETATM   19  H10 UNL     1      21.679  -1.466  53.789  1.00  0.00     0.219 HD
ENDBRANCH  15  18
ENDBRANCH   3  13
BRANCH   4  20
HETATM   20  C12 UNL     1      26.714   1.270  51.849  1.00  0.00    -0.033 A 
HETATM   21  C13 UNL     1      27.398   2.168  52.684  1.00  0.00     0.012 A 
HETATM   22  C14 UNL     1      28.112   1.709  53.750  1.00  0.00     0.043 A 
HETATM   23  C15 UNL     1      28.173   0.356  54.024  1.00  0.00     0.116 A 
HETATM   24  F1  UNL     1      28.873  -0.141  55.081  1.00  0.00    -0.206 F 
HETATM   25  C16 UNL     1      27.522  -0.585  53.243  1.00  0.00     0.043 A 
HETATM   26  C17 UNL     1      26.822  -0.056  52.183  1.00  0.00     0.012 A 
ENDBRANCH   4  20
TORSDOF 7
ENDMDL
