MODEL 1
REMARK VINA RESULT:      -8.6      0.000      0.000
REMARK  2 active torsions:
REMARK  status: ('A' for Active; 'I' for Inactive)
REMARK    1  A    between atoms: C3_4  and  C4_5 
REMARK    2  A    between atoms: S1_9  and  C6_10 
ROOT
HETATM    1  C4  UNL     1      26.273   6.609  49.403  1.00  0.00     0.089 A 
HETATM    2  N2  UNL     1      25.315   6.051  50.064  1.00  0.00    -0.174 NA
HETATM    3  N3  UNL     1      25.232   4.643  50.195  1.00  0.00    -0.271 N 
HETATM    4  C5  UNL     1      24.341   3.695  50.881  1.00  0.00     0.228 C 
HETATM    5  S1  UNL     1      25.625   2.718  51.738  1.00  0.00    -0.099 SA
HETATM    6  N5  UNL     1      26.737   2.936  50.621  1.00  0.00    -0.157 NA
HETATM    7  C14 UNL     1      26.170   3.749  49.577  1.00  0.00     0.229 A 
HETATM    8  C15 UNL     1      27.213   4.516  48.856  1.00  0.00     0.020 A 
HETATM    9  C16 UNL     1      27.298   5.831  48.749  1.00  0.00     0.034 A 
ENDROOT
BRANCH   5  10
HETATM   10  C6  UNL     1      25.052   1.032  51.791  1.00  0.00     0.103 A 
HETATM   11  C7  UNL     1      23.595   0.947  52.031  1.00  0.00     0.006 A 
HETATM   12  C8  UNL     1      23.360   0.245  53.127  1.00  0.00    -0.010 A 
HETATM   13  C9  UNL     1      22.243  -0.169  53.846  1.00  0.00     0.015 A 
HETATM   14  C12 UNL     1      24.555  -0.162  53.663  1.00  0.00     0.064 A 
HETATM   15  C10 UNL     1      22.355  -0.922  54.993  1.00  0.00     0.020 A 
HETATM   16  C11 UNL     1      23.599  -1.294  55.472  1.00  0.00     0.117 A 
HETATM   17  N4  UNL     1      24.706  -0.898  54.782  1.00  0.00    -0.261 NA
HETATM   18  C13 UNL     1      25.581   0.261  52.936  1.00  0.00     0.025 A 
ENDBRANCH   5  10
BRANCH   1  19
HETATM   19  C3  UNL     1      26.330   8.063  49.287  1.00  0.00     0.031 A 
HETATM   20  C2  UNL     1      25.626   8.880  48.455  1.00  0.00     0.127 A 
HETATM   21  N1  UNL     1      26.015  10.160  48.705  1.00  0.00    -0.285 N 
HETATM   22  C1  UNL     1      25.575  11.384  48.097  1.00  0.00     0.179 C 
HETATM   23  N6  UNL     1      26.936  10.172  49.662  1.00  0.00    -0.185 NA
HETATM   24  C17 UNL     1      27.145   8.908  50.033  1.00  0.00     0.154 A 
ENDBRANCH   1  19
TORSDOF 2
ENDMDL
MODEL 2
REMARK VINA RESULT:      -8.1      5.634      8.363
REMARK  2 active torsions:
REMARK  status: ('A' for Active; 'I' for Inactive)
REMARK    1  A    between atoms: C3_4  and  C4_5 
REMARK    2  A    between atoms: S1_9  and  C6_10 
ROOT
HETATM    1  C4  UNL     1      24.663   0.057  53.225  1.00  0.00     0.089 A 
HETATM    2  N2  UNL     1      24.392   0.819  52.219  1.00  0.00    -0.174 NA
HETATM    3  N3  UNL     1      23.061   1.003  51.770  1.00  0.00    -0.271 N 
HETATM    4  C5  UNL     1      22.397   1.797  50.725  1.00  0.00     0.228 C 
HETATM    5  S1  UNL     1      21.112   2.566  51.770  1.00  0.00    -0.099 SA
HETATM    6  N5  UNL     1      21.011   1.347  52.788  1.00  0.00    -0.157 NA
HETATM    7  C14 UNL     1      21.941   0.333  52.367  1.00  0.00     0.229 A 
HETATM    8  C15 UNL     1      22.389  -0.503  53.505  1.00  0.00     0.020 A 
HETATM    9  C16 UNL     1      23.630  -0.660  53.934  1.00  0.00     0.034 A 
ENDROOT
BRANCH   5  10
HETATM   10  C6  UNL     1      19.648   2.724  50.769  1.00  0.00     0.103 A 
HETATM   11  C7  UNL     1      18.847   3.911  51.139  1.00  0.00     0.006 A 
HETATM   12  C8  UNL     1      17.627   3.540  51.490  1.00  0.00    -0.010 A 
HETATM   13  C9  UNL     1      16.461   4.164  51.921  1.00  0.00     0.015 A 
HETATM   14  C12 UNL     1      17.528   2.176  51.388  1.00  0.00     0.064 A 
HETATM   15  C10 UNL     1      15.320   3.451  52.213  1.00  0.00     0.020 A 
HETATM   16  C11 UNL     1      15.299   2.074  52.085  1.00  0.00     0.117 A 
HETATM   17  N4  UNL     1      16.431   1.442  51.664  1.00  0.00    -0.261 NA
HETATM   18  C13 UNL     1      18.668   1.636  50.974  1.00  0.00     0.025 A 
ENDBRANCH   5  10
BRANCH   1  19
HETATM   19  C3  UNL     1      26.045  -0.110  53.664  1.00  0.00     0.031 A 
HETATM   20  C2  UNL     1      27.116  -0.558  52.952  1.00  0.00     0.127 A 
HETATM   21  N1  UNL     1      28.198  -0.543  53.778  1.00  0.00    -0.285 N 
HETATM   22  C1  UNL     1      29.558  -0.920  53.511  1.00  0.00     0.179 C 
HETATM   23  N6  UNL     1      27.841  -0.101  54.979  1.00  0.00    -0.185 NA
HETATM   24  C17 UNL     1      26.535   0.169  54.935  1.00  0.00     0.154 A 
ENDBRANCH   1  19
TORSDOF 2
ENDMDL
MODEL 3
REMARK VINA RESULT:      -8.1      5.463      8.290
REMARK  2 active torsions:
REMARK  status: ('A' for Active; 'I' for Inactive)
REMARK    1  A    between atoms: C3_4  and  C4_5 
REMARK    2  A    between atoms: S1_9  and  C6_10 
ROOT
HETATM    1  C4  UNL     1      25.411   0.119  52.672  1.00  0.00     0.089 A 
HETATM    2  N2  UNL     1      24.316  -0.425  53.083  1.00  0.00    -0.174 NA
HETATM    3  N3  UNL     1      23.057   0.178  52.842  1.00  0.00    -0.271 N 
HETATM    4  C5  UNL     1      21.652  -0.161  53.115  1.00  0.00     0.228 C 
HETATM    5  S1  UNL     1      20.999   0.094  51.428  1.00  0.00    -0.099 SA
HETATM    6  N5  UNL     1      22.049   1.225  51.040  1.00  0.00    -0.157 NA
HETATM    7  C14 UNL     1      22.916   1.438  52.170  1.00  0.00     0.229 A 
HETATM    8  C15 UNL     1      24.242   1.949  51.751  1.00  0.00     0.020 A 
HETATM    9  C16 UNL     1      25.415   1.376  51.962  1.00  0.00     0.034 A 
ENDROOT
BRANCH   5  10
HETATM   10  C6  UNL     1      19.349   0.742  51.597  1.00  0.00     0.103 A 
HETATM   11  C7  UNL     1      18.505  -0.104  52.467  1.00  0.00     0.006 A 
HETATM   12  C8  UNL     1      17.440  -0.517  51.799  1.00  0.00    -0.010 A 
HETATM   13  C9  UNL     1      16.324  -1.305  52.056  1.00  0.00     0.015 A 
HETATM   14  C12 UNL     1      17.490  -0.012  50.524  1.00  0.00     0.064 A 
HETATM   15  C10 UNL     1      15.365  -1.543  51.097  1.00  0.00     0.020 A 
HETATM   16  C11 UNL     1      15.486  -0.998  49.831  1.00  0.00     0.117 A 
HETATM   17  N4  UNL     1      16.574  -0.222  49.558  1.00  0.00    -0.261 NA
HETATM   18  C13 UNL     1      18.574   0.729  50.337  1.00  0.00     0.025 A 
ENDBRANCH   5  10
BRANCH   1  19
HETATM   19  C3  UNL     1      26.693  -0.528  52.936  1.00  0.00     0.031 A 
HETATM   20  C2  UNL     1      27.854   0.030  53.377  1.00  0.00     0.127 A 
HETATM   21  N1  UNL     1      28.780  -0.962  53.474  1.00  0.00    -0.285 N 
HETATM   22  C1  UNL     1      30.153  -0.895  53.890  1.00  0.00     0.179 C 
HETATM   23  N6  UNL     1      28.239  -2.120  53.110  1.00  0.00    -0.185 NA
HETATM   24  C17 UNL     1      26.970  -1.882  52.777  1.00  0.00     0.154 A 
ENDBRANCH   1  19
TORSDOF 2
ENDMDL
MODEL 4
REMARK VINA RESULT:      -8.0      2.941      4.283
REMARK  2 active torsions:
REMARK  status: ('A' for Active; 'I' for Inactive)
REMARK    1  A    between atoms: C3_4  and  C4_5 
REMARK    2  A    between atoms: S1_9  and  C6_10 
ROOT
HETATM    1  C4  UNL     1      23.749   5.021  49.880  1.00  0.00     0.089 A 
HETATM    2  N2  UNL     1      24.616   4.065  49.866  1.00  0.00    -0.174 NA
HETATM    3  N3  UNL     1      24.918   3.326  51.036  1.00  0.00    -0.271 N 
HETATM    4  C5  UNL     1      25.785   2.186  51.374  1.00  0.00     0.228 C 
HETATM    5  S1  UNL     1      24.537   1.166  52.232  1.00  0.00    -0.099 SA
HETATM    6  N5  UNL     1      23.687   2.401  52.765  1.00  0.00    -0.157 NA
HETATM    7  C14 UNL     1      24.320   3.610  52.310  1.00  0.00     0.229 A 
HETATM    8  C15 UNL     1      23.348   4.722  52.185  1.00  0.00     0.020 A 
HETATM    9  C16 UNL     1      23.055   5.399  51.089  1.00  0.00     0.034 A 
ENDROOT
BRANCH   5  10
HETATM   10  C6  UNL     1      25.375   0.312  53.551  1.00  0.00     0.103 A 
HETATM   11  C7  UNL     1      26.585   1.034  54.001  1.00  0.00     0.006 A 
HETATM   12  C8  UNL     1      27.648   0.259  53.867  1.00  0.00    -0.010 A 
HETATM   13  C9  UNL     1      29.015   0.361  54.107  1.00  0.00     0.015 A 
HETATM   14  C12 UNL     1      27.257  -0.952  53.355  1.00  0.00     0.064 A 
HETATM   15  C10 UNL     1      29.878  -0.678  53.844  1.00  0.00     0.020 A 
HETATM   16  C11 UNL     1      29.407  -1.872  53.327  1.00  0.00     0.117 A 
HETATM   17  N4  UNL     1      28.071  -1.992  53.084  1.00  0.00    -0.261 NA
HETATM   18  C13 UNL     1      25.947  -0.990  53.147  1.00  0.00     0.025 A 
ENDBRANCH   5  10
BRANCH   1  19
HETATM   19  C3  UNL     1      23.459   5.763  48.657  1.00  0.00     0.031 A 
HETATM   20  C2  UNL     1      24.070   6.880  48.174  1.00  0.00     0.127 A 
HETATM   21  N1  UNL     1      23.460   7.212  47.003  1.00  0.00    -0.285 N 
HETATM   22  C1  UNL     1      23.729   8.303  46.109  1.00  0.00     0.179 C 
HETATM   23  N6  UNL     1      22.491   6.343  46.738  1.00  0.00    -0.185 NA
HETATM   24  C17 UNL     1      22.470   5.451  47.730  1.00  0.00     0.154 A 
ENDBRANCH   1  19
TORSDOF 2
ENDMDL
MODEL 5
REMARK VINA RESULT:      -8.0      1.960      9.081
REMARK  2 active torsions:
REMARK  status: ('A' for Active; 'I' for Inactive)
REMARK    1  A    between atoms: C3_4  and  C4_5 
REMARK    2  A    between atoms: S1_9  and  C6_10 
ROOT
HETATM    1  C4  UNL     1      23.648   1.567  51.389  1.00  0.00     0.089 A 
HETATM    2  N2  UNL     1      24.807   2.133  51.380  1.00  0.00    -0.174 NA
HETATM    3  N3  UNL     1      25.169   3.057  50.369  1.00  0.00    -0.271 N 
HETATM    4  C5  UNL     1      26.340   3.896  50.073  1.00  0.00     0.228 C 
HETATM    5  S1  UNL     1      25.462   5.480  49.839  1.00  0.00    -0.099 SA
HETATM    6  N5  UNL     1      24.121   4.820  49.296  1.00  0.00    -0.157 NA
HETATM    7  C14 UNL     1      24.300   3.392  49.277  1.00  0.00     0.229 A 
HETATM    8  C15 UNL     1      23.008   2.678  49.410  1.00  0.00     0.020 A 
HETATM    9  C16 UNL     1      22.666   1.829  50.364  1.00  0.00     0.034 A 
ENDROOT
BRANCH   5  10
HETATM   10  C6  UNL     1      26.329   6.377  48.568  1.00  0.00     0.103 A 
HETATM   11  C7  UNL     1      27.630   5.757  48.238  1.00  0.00     0.006 A 
HETATM   12  C8  UNL     1      28.607   6.627  48.435  1.00  0.00    -0.010 A 
HETATM   13  C9  UNL     1      29.992   6.643  48.308  1.00  0.00     0.015 A 
HETATM   14  C12 UNL     1      28.070   7.808  48.879  1.00  0.00     0.064 A 
HETATM   15  C10 UNL     1      30.737   7.761  48.610  1.00  0.00     0.020 A 
HETATM   16  C11 UNL     1      30.121   8.918  49.053  1.00  0.00     0.117 A 
HETATM   17  N4  UNL     1      28.764   8.923  49.184  1.00  0.00    -0.261 NA
HETATM   18  C13 UNL     1      26.749   7.734  48.979  1.00  0.00     0.025 A 
ENDBRANCH   5  10
BRANCH   1  19
HETATM   19  C3  UNL     1      23.304   0.620  52.447  1.00  0.00     0.031 A 
HETATM   20  C2  UNL     1      22.084   0.106  52.766  1.00  0.00     0.127 A 
HETATM   21  N1  UNL     1      22.253  -0.735  53.823  1.00  0.00    -0.285 N 
HETATM   22  C1  UNL     1      21.282  -1.520  54.532  1.00  0.00     0.179 C 
HETATM   23  N6  UNL     1      23.534  -0.764  54.175  1.00  0.00    -0.185 NA
HETATM   24  C17 UNL     1      24.194   0.053  53.353  1.00  0.00     0.154 A 
ENDBRANCH   1  19
TORSDOF 2
ENDMDL
MODEL 6
REMARK VINA RESULT:      -7.6      5.235      8.216
REMARK  2 active torsions:
REMARK  status: ('A' for Active; 'I' for Inactive)
REMARK    1  A    between atoms: C3_4  and  C4_5 
REMARK    2  A    between atoms: S1_9  and  C6_10 
ROOT
HETATM    1  C4  UNL     1      19.377   0.971  52.014  1.00  0.00     0.089 A 
HETATM    2  N2  UNL     1      20.140   1.948  51.656  1.00  0.00    -0.174 NA
HETATM    3  N3  UNL     1      21.470   2.057  52.131  1.00  0.00    -0.271 N 
HETATM    4  C5  UNL     1      22.599   2.974  51.914  1.00  0.00     0.228 C 
HETATM    5  S1  UNL     1      23.874   1.721  51.540  1.00  0.00    -0.099 SA
HETATM    6  N5  UNL     1      23.230   0.588  52.453  1.00  0.00    -0.157 NA
HETATM    7  C14 UNL     1      22.041   1.125  53.061  1.00  0.00     0.229 A 
HETATM    8  C15 UNL     1      21.065   0.058  53.384  1.00  0.00     0.020 A 
HETATM    9  C16 UNL     1      19.829  -0.051  52.927  1.00  0.00     0.034 A 
ENDROOT
BRANCH   5  10
HETATM   10  C6  UNL     1      25.412   2.323  52.206  1.00  0.00     0.103 A 
HETATM   11  C7  UNL     1      26.579   1.611  51.643  1.00  0.00     0.006 A 
HETATM   12  C8  UNL     1      27.275   1.046  52.616  1.00  0.00    -0.010 A 
HETATM   13  C9  UNL     1      28.426   0.272  52.722  1.00  0.00     0.015 A 
HETATM   14  C12 UNL     1      26.668   1.318  53.815  1.00  0.00     0.064 A 
HETATM   15  C10 UNL     1      28.894  -0.170  53.939  1.00  0.00     0.020 A 
HETATM   16  C11 UNL     1      28.225   0.147  55.108  1.00  0.00     0.117 A 
HETATM   17  N4  UNL     1      27.095   0.904  55.025  1.00  0.00    -0.261 NA
HETATM   18  C13 UNL     1      25.578   2.057  53.651  1.00  0.00     0.025 A 
ENDBRANCH   5  10
BRANCH   1  19
HETATM   19  C3  UNL     1      18.011   0.887  51.505  1.00  0.00     0.031 A 
HETATM   20  C2  UNL     1      17.044   1.847  51.497  1.00  0.00     0.127 A 
HETATM   21  N1  UNL     1      15.933   1.311  50.922  1.00  0.00    -0.285 N 
HETATM   22  C1  UNL     1      14.650   1.909  50.679  1.00  0.00     0.179 C 
HETATM   23  N6  UNL     1      16.171   0.052  50.572  1.00  0.00    -0.185 NA
HETATM   24  C17 UNL     1      17.428  -0.230  50.916  1.00  0.00     0.154 A 
ENDBRANCH   1  19
TORSDOF 2
ENDMDL
MODEL 7
REMARK VINA RESULT:      -7.6      5.079      9.572
REMARK  2 active torsions:
REMARK  status: ('A' for Active; 'I' for Inactive)
REMARK    1  A    between atoms: C3_4  and  C4_5 
REMARK    2  A    between atoms: S1_9  and  C6_10 
ROOT
HETATM    1  C4  UNL     1      26.714   5.301  48.843  1.00  0.00     0.089 A 
HETATM    2  N2  UNL     1      27.845   4.694  48.716  1.00  0.00    -0.174 NA
HETATM    3  N3  UNL     1      28.972   5.345  48.158  1.00  0.00    -0.271 N 
HETATM    4  C5  UNL     1      30.379   4.994  47.905  1.00  0.00     0.228 C 
HETATM    5  S1  UNL     1      31.147   6.455  48.686  1.00  0.00    -0.099 SA
HETATM    6  N5  UNL     1      29.937   7.438  48.367  1.00  0.00    -0.157 NA
HETATM    7  C14 UNL     1      28.926   6.692  47.665  1.00  0.00     0.229 A 
HETATM    8  C15 UNL     1      27.578   7.270  47.874  1.00  0.00     0.020 A 
HETATM    9  C16 UNL     1      26.531   6.666  48.411  1.00  0.00     0.034 A 
ENDROOT
BRANCH   5  10
HETATM   10  C6  UNL     1      32.601   6.853  47.737  1.00  0.00     0.103 A 
HETATM   11  C7  UNL     1      32.344   6.808  46.282  1.00  0.00     0.006 A 
HETATM   12  C8  UNL     1      33.156   5.935  45.708  1.00  0.00    -0.010 A 
HETATM   13  C9  UNL     1      33.392   5.463  44.421  1.00  0.00     0.015 A 
HETATM   14  C12 UNL     1      33.958   5.373  46.668  1.00  0.00     0.064 A 
HETATM   15  C10 UNL     1      34.352   4.511  44.160  1.00  0.00     0.020 A 
HETATM   16  C11 UNL     1      35.123   3.990  45.185  1.00  0.00     0.117 A 
HETATM   17  N4  UNL     1      34.908   4.440  46.454  1.00  0.00    -0.261 NA
HETATM   18  C13 UNL     1      33.688   5.861  47.872  1.00  0.00     0.025 A 
ENDBRANCH   5  10
BRANCH   1  19
HETATM   19  C3  UNL     1      25.570   4.602  49.424  1.00  0.00     0.031 A 
HETATM   20  C2  UNL     1      25.533   3.375  50.014  1.00  0.00     0.127 A 
HETATM   21  N1  UNL     1      24.250   3.143  50.404  1.00  0.00    -0.285 N 
HETATM   22  C1  UNL     1      23.689   2.000  51.068  1.00  0.00     0.179 C 
HETATM   23  N6  UNL     1      23.486   4.179  50.079  1.00  0.00    -0.185 NA
HETATM   24  C17 UNL     1      24.266   5.081  49.480  1.00  0.00     0.154 A 
ENDBRANCH   1  19
TORSDOF 2
ENDMDL
MODEL 8
REMARK VINA RESULT:      -7.6      2.560      8.729
REMARK  2 active torsions:
REMARK  status: ('A' for Active; 'I' for Inactive)
REMARK    1  A    between atoms: C3_4  and  C4_5 
REMARK    2  A    between atoms: S1_9  and  C6_10 
ROOT
HETATM    1  C4  UNL     1      25.505   1.088  52.178  1.00  0.00     0.089 A 
HETATM    2  N2  UNL     1      25.832   2.179  51.572  1.00  0.00    -0.174 NA
HETATM    3  N3  UNL     1      24.850   3.099  51.129  1.00  0.00    -0.271 N 
HETATM    4  C5  UNL     1      24.854   4.412  50.466  1.00  0.00     0.228 C 
HETATM    5  S1  UNL     1      23.738   5.281  51.622  1.00  0.00    -0.099 SA
HETATM    6  N5  UNL     1      22.902   3.985  52.012  1.00  0.00    -0.157 NA
HETATM    7  C14 UNL     1      23.442   2.867  51.284  1.00  0.00     0.229 A 
HETATM    8  C15 UNL     1      23.207   1.588  51.993  1.00  0.00     0.020 A 
HETATM    9  C16 UNL     1      24.125   0.739  52.422  1.00  0.00     0.034 A 
ENDROOT
BRANCH   5  10
HETATM   10  C6  UNL     1      22.777   6.431  50.659  1.00  0.00     0.103 A 
HETATM   11  C7  UNL     1      22.628   5.991  49.255  1.00  0.00     0.006 A 
HETATM   12  C8  UNL     1      23.114   6.913  48.440  1.00  0.00    -0.010 A 
HETATM   13  C9  UNL     1      23.258   7.079  47.066  1.00  0.00     0.015 A 
HETATM   14  C12 UNL     1      23.591   7.961  49.185  1.00  0.00     0.064 A 
HETATM   15  C10 UNL     1      23.833   8.207  46.527  1.00  0.00     0.020 A 
HETATM   16  C11 UNL     1      24.291   9.224  47.346  1.00  0.00     0.117 A 
HETATM   17  N4  UNL     1      24.159   9.081  48.695  1.00  0.00    -0.261 NA
HETATM   18  C13 UNL     1      23.427   7.748  50.484  1.00  0.00     0.025 A 
ENDBRANCH   5  10
BRANCH   1  19
HETATM   19  C3  UNL     1      26.541   0.161  52.625  1.00  0.00     0.031 A 
HETATM   20  C2  UNL     1      27.838   0.425  52.947  1.00  0.00     0.127 A 
HETATM   21  N1  UNL     1      28.422  -0.750  53.307  1.00  0.00    -0.285 N 
HETATM   22  C1  UNL     1      29.770  -1.010  53.730  1.00  0.00     0.179 C 
HETATM   23  N6  UNL     1      27.538  -1.738  53.220  1.00  0.00    -0.185 NA
HETATM   24  C17 UNL     1      26.385  -1.209  52.807  1.00  0.00     0.154 A 
ENDBRANCH   1  19
TORSDOF 2
ENDMDL
MODEL 9
REMARK VINA RESULT:      -7.5      5.225      7.625
REMARK  2 active torsions:
REMARK  status: ('A' for Active; 'I' for Inactive)
REMARK    1  A    between atoms: C3_4  and  C4_5 
REMARK    2  A    between atoms: S1_9  and  C6_10 
ROOT
HETATM    1  C4  UNL     1      25.781   1.105  52.684  1.00  0.00     0.089 A 
HETATM    2  N2  UNL     1      24.791   0.621  53.357  1.00  0.00    -0.174 NA
HETATM    3  N3  UNL     1      23.450   0.912  53.007  1.00  0.00    -0.271 N 
HETATM    4  C5  UNL     1      22.120   0.521  53.499  1.00  0.00     0.228 C 
HETATM    5  S1  UNL     1      21.398   0.015  51.899  1.00  0.00    -0.099 SA
HETATM    6  N5  UNL     1      22.253   1.037  51.029  1.00  0.00    -0.157 NA
HETATM    7  C14 UNL     1      23.102   1.783  51.920  1.00  0.00     0.229 A 
HETATM    8  C15 UNL     1      24.325   2.263  51.235  1.00  0.00     0.020 A 
HETATM    9  C16 UNL     1      25.576   1.977  51.553  1.00  0.00     0.034 A 
ENDROOT
BRANCH   5  10
HETATM   10  C6  UNL     1      19.672   0.453  51.941  1.00  0.00     0.103 A 
HETATM   11  C7  UNL     1      19.084   0.526  50.586  1.00  0.00     0.006 A 
HETATM   12  C8  UNL     1      18.587   1.734  50.375  1.00  0.00    -0.010 A 
HETATM   13  C9  UNL     1      17.933   2.394  49.340  1.00  0.00     0.015 A 
HETATM   14  C12 UNL     1      18.792   2.503  51.492  1.00  0.00     0.064 A 
HETATM   15  C10 UNL     1      17.536   3.708  49.453  1.00  0.00     0.020 A 
HETATM   16  C11 UNL     1      17.779   4.419  50.615  1.00  0.00     0.117 A 
HETATM   17  N4  UNL     1      18.420   3.790  51.641  1.00  0.00    -0.261 NA
HETATM   18  C13 UNL     1      19.419   1.821  52.442  1.00  0.00     0.025 A 
ENDBRANCH   5  10
BRANCH   1  19
HETATM   19  C3  UNL     1      27.153   0.785  53.070  1.00  0.00     0.031 A 
HETATM   20  C2  UNL     1      27.772  -0.428  53.083  1.00  0.00     0.127 A 
HETATM   21  N1  UNL     1      29.048  -0.235  53.516  1.00  0.00    -0.285 N 
HETATM   22  C1  UNL     1      30.104  -1.191  53.706  1.00  0.00     0.179 C 
HETATM   23  N6  UNL     1      29.247   1.052  53.774  1.00  0.00    -0.185 NA
HETATM   24  C17 UNL     1      28.108   1.694  53.511  1.00  0.00     0.154 A 
ENDBRANCH   1  19
TORSDOF 2
ENDMDL
