MODEL 1
REMARK VINA RESULT:      -8.0      0.000      0.000
REMARK  5 active torsions:
REMARK  status: ('A' for Active; 'I' for Inactive)
REMARK    1  A    between atoms: C2_2  and  C3_3 
REMARK    2  A    between atoms: C3_3  and  C4_4 
REMARK    3  A    between atoms: C4_4  and  C5_5 
REMARK    4  A    between atoms: C13_15  and  C14_16 
REMARK    5  A    between atoms: C15_17  and  O2_18 
ROOT
HETATM    1  C5  UNL     1      23.166   5.138  48.535  1.00  0.00    -0.040 C 
HETATM    2  C6  UNL     1      22.843   3.889  49.116  1.00  0.00    -0.014 C 
HETATM    3  C7  UNL     1      23.726   2.964  49.731  1.00  0.00     0.064 C 
HETATM    4  C8  UNL     1      23.783   2.127  50.853  1.00  0.00    -0.039 C 
HETATM    5  C9  UNL     1      22.498   1.530  51.087  1.00  0.00     0.288 A 
HETATM    6  N1  UNL     1      22.035   0.523  52.147  1.00  0.00     0.110 N 
HETATM    7  C10 UNL     1      23.079   0.027  53.042  1.00  0.00     0.234 A 
HETATM    8  O1  UNL     1      22.576   0.624  52.130  1.00  0.00     0.000 OA
HETATM    9  C11 UNL     1      24.306  -0.379  53.850  1.00  0.00     0.053 C 
HETATM   10  C12 UNL     1      25.488  -0.451  52.864  1.00  0.00     0.061 C 
HETATM   11  C13 UNL     1      26.486   0.566  52.976  1.00  0.00     0.031 C 
HETATM   12  N2  UNL     1      27.160   1.667  52.561  1.00  0.00    -0.288 NA
HETATM   13  C17 UNL     1      27.122   2.539  51.511  1.00  0.00     0.205 C 
HETATM   14  C18 UNL     1      26.045   3.060  50.715  1.00  0.00     0.025 C 
HETATM   15  C19 UNL     1      25.322   2.152  51.272  1.00  0.00     0.031 C 
HETATM   16  N3  UNL     1      26.387   4.158  49.895  1.00  0.00    -0.388 N 
HETATM   17  C20 UNL     1      25.399   5.210  50.119  1.00  0.00     0.148 C 
HETATM   18  C21 UNL     1      25.402   6.387  49.254  1.00  0.00     0.017 C 
HETATM   19  C22 UNL     1      24.190   6.209  48.522  1.00  0.00     0.037 C 
HETATM   20 CL1  UNL     1      23.971   7.609  47.497  1.00  0.00    -0.084 Cl
HETATM   21  H12 UNL     1      21.007   0.367  51.770  1.00  0.00     0.318 HD
HETATM   22  H25 UNL     1      27.204   4.084  49.270  1.00  0.00     0.159 HD
ENDROOT
BRANCH   1  23
HETATM   23  C4  UNL     1      21.840   5.703  47.961  1.00  0.00     0.040 C 
BRANCH  23  24
HETATM   24  C3  UNL     1      21.135   5.998  49.369  1.00  0.00     0.009 C 
BRANCH  24  25
HETATM   25  C2  UNL     1      20.731   7.475  49.382  1.00  0.00     0.008 C 
HETATM   26  C1  UNL     1      21.465   7.486  50.703  1.00  0.00    -0.013 C 
ENDBRANCH  24  25
ENDBRANCH  23  24
ENDBRANCH   1  23
BRANCH  11  27
HETATM   27  C14 UNL     1      26.848   0.277  54.408  1.00  0.00     0.050 C 
HETATM   28  C15 UNL     1      28.113   0.062  54.923  1.00  0.00     0.136 C 
BRANCH  28  29
HETATM   29  O2  UNL     1      29.472   0.013  54.415  1.00  0.00    -0.368 OA
HETATM   30  C16 UNL     1      29.656  -1.205  53.647  1.00  0.00     0.208 C 
ENDBRANCH  28  29
ENDBRANCH  11  27
TORSDOF 5
ENDMDL
MODEL 2
REMARK VINA RESULT:      -7.8      3.467      8.406
REMARK  5 active torsions:
REMARK  status: ('A' for Active; 'I' for Inactive)
REMARK    1  A    between atoms: C2_2  and  C3_3 
REMARK    2  A    between atoms: C3_3  and  C4_4 
REMARK    3  A    between atoms: C4_4  and  C5_5 
REMARK    4  A    between atoms: C13_15  and  C14_16 
REMARK    5  A    between atoms: C15_17  and  O2_18 
ROOT
HETATM    1  C5  UNL     1      25.983   0.974  51.893  1.00  0.00    -0.040 C 
HETATM    2  C6  UNL     1      26.473   1.868  50.912  1.00  0.00    -0.014 C 
HETATM    3  C7  UNL     1      25.745   2.848  50.189  1.00  0.00     0.064 C 
HETATM    4  C8  UNL     1      25.882   4.172  49.752  1.00  0.00    -0.039 C 
HETATM    5  C9  UNL     1      27.232   4.411  49.323  1.00  0.00     0.288 A 
HETATM    6  N1  UNL     1      27.892   5.662  48.729  1.00  0.00     0.110 N 
HETATM    7  C10 UNL     1      26.997   6.794  48.496  1.00  0.00     0.234 A 
HETATM    8  O1  UNL     1      27.345   5.685  48.794  1.00  0.00     0.000 OA
HETATM    9  C11 UNL     1      25.905   7.839  48.310  1.00  0.00     0.053 C 
HETATM   10  C12 UNL     1      24.634   7.087  47.870  1.00  0.00     0.061 C 
HETATM   11  C13 UNL     1      23.569   7.007  48.820  1.00  0.00     0.031 C 
HETATM   12  N2  UNL     1      22.762   6.361  49.699  1.00  0.00    -0.288 NA
HETATM   13  C17 UNL     1      22.611   5.097  50.192  1.00  0.00     0.205 C 
HETATM   14  C18 UNL     1      23.546   4.046  50.482  1.00  0.00     0.025 C 
HETATM   15  C19 UNL     1      24.401   4.758  49.835  1.00  0.00     0.031 C 
HETATM   16  N3  UNL     1      23.024   2.977  51.244  1.00  0.00    -0.388 N 
HETATM   17  C20 UNL     1      23.936   2.733  52.359  1.00  0.00     0.148 C 
HETATM   18  C21 UNL     1      23.737   1.554  53.198  1.00  0.00     0.017 C 
HETATM   19  C22 UNL     1      24.874   0.763  52.854  1.00  0.00     0.037 C 
HETATM   20 CL1  UNL     1      24.859  -0.665  53.864  1.00  0.00    -0.084 Cl
HETATM   21  H12 UNL     1      28.882   5.221  48.512  1.00  0.00     0.318 HD
HETATM   22  H25 UNL     1      22.154   2.518  50.936  1.00  0.00     0.159 HD
ENDROOT
BRANCH   1  23
HETATM   23  C4  UNL     1      27.185   0.087  52.309  1.00  0.00     0.040 C 
BRANCH  23  24
HETATM   24  C3  UNL     1      27.936   1.189  53.196  1.00  0.00     0.009 C 
BRANCH  24  25
HETATM   25  C2  UNL     1      28.375   0.513  54.498  1.00  0.00     0.008 C 
HETATM   26  C1  UNL     1      29.051  -0.462  53.563  1.00  0.00    -0.013 C 
ENDBRANCH  24  25
ENDBRANCH  23  24
ENDBRANCH   1  23
BRANCH  11  27
HETATM   27  C14 UNL     1      23.390   8.492  48.986  1.00  0.00     0.050 C 
HETATM   28  C15 UNL     1      22.222   9.215  48.832  1.00  0.00     0.136 C 
BRANCH  28  29
HETATM   29  O2  UNL     1      20.839   8.937  48.489  1.00  0.00    -0.368 OA
HETATM   30  C16 UNL     1      20.065   8.769  49.705  1.00  0.00     0.208 C 
ENDBRANCH  28  29
ENDBRANCH  11  27
TORSDOF 5
ENDMDL
MODEL 3
REMARK VINA RESULT:      -7.4      3.229      8.397
REMARK  5 active torsions:
REMARK  status: ('A' for Active; 'I' for Inactive)
REMARK    1  A    between atoms: C2_2  and  C3_3 
REMARK    2  A    between atoms: C3_3  and  C4_4 
REMARK    3  A    between atoms: C4_4  and  C5_5 
REMARK    4  A    between atoms: C13_15  and  C14_16 
REMARK    5  A    between atoms: C15_17  and  O2_18 
ROOT
HETATM    1  C5  UNL     1      25.104   0.100  53.777  1.00  0.00    -0.040 C 
HETATM    2  C6  UNL     1      25.524   1.012  52.780  1.00  0.00    -0.014 C 
HETATM    3  C7  UNL     1      24.803   1.441  51.636  1.00  0.00     0.064 C 
HETATM    4  C8  UNL     1      24.545   2.615  50.916  1.00  0.00    -0.039 C 
HETATM    5  C9  UNL     1      25.728   3.427  50.858  1.00  0.00     0.288 A 
HETATM    6  N1  UNL     1      25.992   4.773  50.170  1.00  0.00     0.110 N 
HETATM    7  C10 UNL     1      24.880   5.304  49.383  1.00  0.00     0.234 A 
HETATM    8  O1  UNL     1      25.506   4.536  50.061  1.00  0.00     0.000 OA
HETATM    9  C11 UNL     1      23.624   5.671  48.604  1.00  0.00     0.053 C 
HETATM   10  C12 UNL     1      23.053   4.359  48.030  1.00  0.00     0.061 C 
HETATM   11  C13 UNL     1      21.838   3.876  48.606  1.00  0.00     0.031 C 
HETATM   12  N2  UNL     1      21.094   3.016  49.347  1.00  0.00    -0.288 NA
HETATM   13  C17 UNL     1      21.295   1.894  50.097  1.00  0.00     0.205 C 
HETATM   14  C18 UNL     1      22.384   1.458  50.927  1.00  0.00     0.025 C 
HETATM   15  C19 UNL     1      23.049   2.422  50.394  1.00  0.00     0.031 C 
HETATM   16  N3  UNL     1      22.095   0.355  51.761  1.00  0.00    -0.388 N 
HETATM   17  C20 UNL     1      22.513   0.696  53.118  1.00  0.00     0.148 C 
HETATM   18  C21 UNL     1      22.506  -0.340  54.147  1.00  0.00     0.017 C 
HETATM   19  C22 UNL     1      23.902  -0.518  54.385  1.00  0.00     0.037 C 
HETATM   20 CL1  UNL     1      24.081  -1.664  55.693  1.00  0.00    -0.084 Cl
HETATM   21  H12 UNL     1      27.074   4.842  50.384  1.00  0.00     0.318 HD
HETATM   22  H25 UNL     1      21.684  -0.495  51.345  1.00  0.00     0.159 HD
ENDROOT
BRANCH   1  23
HETATM   23  C4  UNL     1      26.298  -0.053  54.755  1.00  0.00     0.040 C 
BRANCH  23  24
HETATM   24  C3  UNL     1      27.432  -0.242  53.641  1.00  0.00     0.009 C 
BRANCH  24  25
HETATM   25  C2  UNL     1      28.784   0.024  54.309  1.00  0.00     0.008 C 
HETATM   26  C1  UNL     1      29.243  -1.131  53.449  1.00  0.00    -0.013 C 
ENDBRANCH  24  25
ENDBRANCH  23  24
ENDBRANCH   1  23
BRANCH  11  27
HETATM   27  C14 UNL     1      21.018   5.100  48.301  1.00  0.00     0.050 C 
HETATM   28  C15 UNL     1      20.040   5.231  47.332  1.00  0.00     0.136 C 
BRANCH  28  29
HETATM   29  O2  UNL     1      19.440   4.393  46.310  1.00  0.00    -0.368 OA
HETATM   30  C16 UNL     1      20.423   4.107  45.281  1.00  0.00     0.208 C 
ENDBRANCH  28  29
ENDBRANCH  11  27
TORSDOF 5
ENDMDL
MODEL 4
REMARK VINA RESULT:      -7.4      3.452      7.431
REMARK  5 active torsions:
REMARK  status: ('A' for Active; 'I' for Inactive)
REMARK    1  A    between atoms: C2_2  and  C3_3 
REMARK    2  A    between atoms: C3_3  and  C4_4 
REMARK    3  A    between atoms: C4_4  and  C5_5 
REMARK    4  A    between atoms: C13_15  and  C14_16 
REMARK    5  A    between atoms: C15_17  and  O2_18 
ROOT
HETATM    1  C5  UNL     1      24.704   0.770  53.174  1.00  0.00    -0.040 C 
HETATM    2  C6  UNL     1      23.662   1.718  53.044  1.00  0.00    -0.014 C 
HETATM    3  C7  UNL     1      23.727   3.003  52.446  1.00  0.00     0.064 C 
HETATM    4  C8  UNL     1      22.970   3.827  51.602  1.00  0.00    -0.039 C 
HETATM    5  C9  UNL     1      21.574   3.703  51.916  1.00  0.00     0.288 A 
HETATM    6  N1  UNL     1      20.344   4.404  51.326  1.00  0.00     0.110 N 
HETATM    7  C10 UNL     1      20.626   5.421  50.313  1.00  0.00     0.234 A 
HETATM    8  O1  UNL     1      20.834   4.591  51.155  1.00  0.00     0.000 OA
HETATM    9  C11 UNL     1      21.128   6.448  49.307  1.00  0.00     0.053 C 
HETATM   10  C12 UNL     1      22.427   7.044  49.884  1.00  0.00     0.061 C 
HETATM   11  C13 UNL     1      23.647   6.686  49.232  1.00  0.00     0.031 C 
HETATM   12  N2  UNL     1      24.844   6.054  49.141  1.00  0.00    -0.288 NA
HETATM   13  C17 UNL     1      25.605   5.215  49.903  1.00  0.00     0.205 C 
HETATM   14  C18 UNL     1      25.271   4.166  50.828  1.00  0.00     0.025 C 
HETATM   15  C19 UNL     1      24.067   4.616  50.753  1.00  0.00     0.031 C 
HETATM   16  N3  UNL     1      26.352   3.341  51.209  1.00  0.00    -0.388 N 
HETATM   17  C20 UNL     1      25.939   1.951  51.034  1.00  0.00     0.148 C 
HETATM   18  C21 UNL     1      26.799   0.884  51.538  1.00  0.00     0.017 C 
HETATM   19  C22 UNL     1      26.018   0.371  52.616  1.00  0.00     0.037 C 
HETATM   20 CL1  UNL     1      26.859  -1.012  53.278  1.00  0.00    -0.084 Cl
HETATM   21  H12 UNL     1      19.588   3.989  52.016  1.00  0.00     0.318 HD
HETATM   22  H25 UNL     1      27.217   3.778  51.562  1.00  0.00     0.159 HD
ENDROOT
BRANCH   1  23
HETATM   23  C4  UNL     1      24.104  -0.428  53.956  1.00  0.00     0.040 C 
BRANCH  23  24
HETATM   24  C3  UNL     1      22.696  -0.465  53.193  1.00  0.00     0.009 C 
BRANCH  24  25
HETATM   25  C2  UNL     1      21.860  -1.584  53.821  1.00  0.00     0.008 C 
HETATM   26  C1  UNL     1      21.528  -0.526  54.847  1.00  0.00    -0.013 C 
ENDBRANCH  24  25
ENDBRANCH  23  24
ENDBRANCH   1  23
BRANCH  11  27
HETATM   27  C14 UNL     1      23.265   7.216  47.876  1.00  0.00     0.050 C 
HETATM   28  C15 UNL     1      23.972   8.118  47.102  1.00  0.00     0.136 C 
BRANCH  28  29
HETATM   29  O2  UNL     1      25.210   8.867  47.208  1.00  0.00    -0.368 OA
HETATM   30  C16 UNL     1      25.048   9.930  48.183  1.00  0.00     0.208 C 
ENDBRANCH  28  29
ENDBRANCH  11  27
TORSDOF 5
ENDMDL
MODEL 5
REMARK VINA RESULT:      -7.3      4.267      8.057
REMARK  5 active torsions:
REMARK  status: ('A' for Active; 'I' for Inactive)
REMARK    1  A    between atoms: C2_2  and  C3_3 
REMARK    2  A    between atoms: C3_3  and  C4_4 
REMARK    3  A    between atoms: C4_4  and  C5_5 
REMARK    4  A    between atoms: C13_15  and  C14_16 
REMARK    5  A    between atoms: C15_17  and  O2_18 
ROOT
HETATM    1  C5  UNL     1      24.268   2.409  51.955  1.00  0.00    -0.040 C 
HETATM    2  C6  UNL     1      23.209   1.825  52.688  1.00  0.00    -0.014 C 
HETATM    3  C7  UNL     1      21.825   1.838  52.374  1.00  0.00     0.064 C 
HETATM    4  C8  UNL     1      20.721   0.975  52.382  1.00  0.00    -0.039 C 
HETATM    5  C9  UNL     1      20.767   0.128  53.540  1.00  0.00     0.288 A 
HETATM    6  N1  UNL     1      19.796  -0.950  54.038  1.00  0.00     0.110 N 
HETATM    7  C10 UNL     1      18.579  -1.114  53.243  1.00  0.00     0.234 A 
HETATM    8  O1  UNL     1      19.626  -0.652  53.605  1.00  0.00     0.000 OA
HETATM    9  C11 UNL     1      17.380  -1.113  52.304  1.00  0.00     0.053 C 
HETATM   10  C12 UNL     1      17.117   0.355  51.915  1.00  0.00     0.061 C 
HETATM   11  C13 UNL     1      17.418   0.731  50.570  1.00  0.00     0.031 C 
HETATM   12  N2  UNL     1      18.133   1.372  49.611  1.00  0.00    -0.288 NA
HETATM   13  C17 UNL     1      19.230   2.182  49.540  1.00  0.00     0.205 C 
HETATM   14  C18 UNL     1      20.447   2.244  50.303  1.00  0.00     0.025 C 
HETATM   15  C19 UNL     1      19.860   1.445  51.123  1.00  0.00     0.031 C 
HETATM   16  N3  UNL     1      21.462   3.049  49.741  1.00  0.00    -0.388 N 
HETATM   17  C20 UNL     1      22.695   2.265  49.718  1.00  0.00     0.148 C 
HETATM   18  C21 UNL     1      23.950   2.922  49.363  1.00  0.00     0.017 C 
HETATM   19  C22 UNL     1      24.647   2.901  50.609  1.00  0.00     0.037 C 
HETATM   20 CL1  UNL     1      26.245   3.560  50.341  1.00  0.00    -0.084 Cl
HETATM   21  H12 UNL     1      20.295  -1.172  54.998  1.00  0.00     0.318 HD
HETATM   22  H25 UNL     1      21.240   4.017  49.463  1.00  0.00     0.159 HD
ENDROOT
BRANCH   1  23
HETATM   23  C4  UNL     1      25.558   2.148  52.775  1.00  0.00     0.040 C 
BRANCH  23  24
HETATM   24  C3  UNL     1      25.480   0.549  52.747  1.00  0.00     0.009 C 
BRANCH  24  25
HETATM   25  C2  UNL     1      26.736   0.037  52.036  1.00  0.00     0.008 C 
HETATM   26  C1  UNL     1      26.418  -1.247  52.766  1.00  0.00    -0.013 C 
ENDBRANCH  24  25
ENDBRANCH  23  24
ENDBRANCH   1  23
BRANCH  11  27
HETATM   27  C14 UNL     1      16.498  -0.264  49.915  1.00  0.00     0.050 C 
HETATM   28  C15 UNL     1      15.219  -0.033  49.442  1.00  0.00     0.136 C 
BRANCH  28  29
HETATM   29  O2  UNL     1      14.301   1.089  49.367  1.00  0.00    -0.368 OA
HETATM   30  C16 UNL     1      13.534   1.167  50.597  1.00  0.00     0.208 C 
ENDBRANCH  28  29
ENDBRANCH  11  27
TORSDOF 5
ENDMDL
MODEL 6
REMARK VINA RESULT:      -7.3      3.467      7.659
REMARK  5 active torsions:
REMARK  status: ('A' for Active; 'I' for Inactive)
REMARK    1  A    between atoms: C2_2  and  C3_3 
REMARK    2  A    between atoms: C3_3  and  C4_4 
REMARK    3  A    between atoms: C4_4  and  C5_5 
REMARK    4  A    between atoms: C13_15  and  C14_16 
REMARK    5  A    between atoms: C15_17  and  O2_18 
ROOT
HETATM    1  C5  UNL     1      24.629   0.807  52.936  1.00  0.00    -0.040 C 
HETATM    2  C6  UNL     1      23.402   1.014  52.262  1.00  0.00    -0.014 C 
HETATM    3  C7  UNL     1      23.019   2.136  51.482  1.00  0.00     0.064 C 
HETATM    4  C8  UNL     1      22.359   2.426  50.281  1.00  0.00    -0.039 C 
HETATM    5  C9  UNL     1      21.250   1.531  50.101  1.00  0.00     0.288 A 
HETATM    6  N1  UNL     1      20.196   1.446  48.989  1.00  0.00     0.110 N 
HETATM    7  C10 UNL     1      20.283   2.481  47.961  1.00  0.00     0.234 A 
HETATM    8  O1  UNL     1      20.535   1.880  48.969  1.00  0.00     0.000 OA
HETATM    9  C11 UNL     1      20.528   3.648  47.013  1.00  0.00     0.053 C 
HETATM   10  C12 UNL     1      20.959   4.847  47.879  1.00  0.00     0.061 C 
HETATM   11  C13 UNL     1      22.325   5.256  47.783  1.00  0.00     0.031 C 
HETATM   12  N2  UNL     1      23.591   5.405  48.247  1.00  0.00    -0.288 NA
HETATM   13  C17 UNL     1      24.295   5.107  49.378  1.00  0.00     0.205 C 
HETATM   14  C18 UNL     1      24.221   4.019  50.314  1.00  0.00     0.025 C 
HETATM   15  C19 UNL     1      23.111   3.722  49.734  1.00  0.00     0.031 C 
HETATM   16  N3  UNL     1      25.311   3.927  51.208  1.00  0.00    -0.388 N 
HETATM   17  C20 UNL     1      25.799   2.551  51.178  1.00  0.00     0.148 C 
HETATM   18  C21 UNL     1      26.802   2.129  52.154  1.00  0.00     0.017 C 
HETATM   19  C22 UNL     1      26.049   1.229  52.967  1.00  0.00     0.037 C 
HETATM   20 CL1  UNL     1      27.138   0.530  54.143  1.00  0.00    -0.084 Cl
HETATM   21  H12 UNL     1      19.567   0.655  49.438  1.00  0.00     0.318 HD
HETATM   22  H25 UNL     1      25.590   4.760  51.748  1.00  0.00     0.159 HD
ENDROOT
BRANCH   1  23
HETATM   23  C4  UNL     1      24.491  -0.549  53.678  1.00  0.00     0.040 C 
BRANCH  23  24
HETATM   24  C3  UNL     1      22.894  -0.535  53.801  1.00  0.00     0.009 C 
BRANCH  24  25
HETATM   25  C2  UNL     1      22.514  -1.449  54.970  1.00  0.00     0.008 C 
HETATM   26  C1  UNL     1      21.217  -1.596  54.208  1.00  0.00    -0.013 C 
ENDBRANCH  24  25
ENDBRANCH  23  24
ENDBRANCH   1  23
BRANCH  11  27
HETATM   27  C14 UNL     1      22.307   5.529  46.303  1.00  0.00     0.050 C 
HETATM   28  C15 UNL     1      22.549   6.735  45.673  1.00  0.00     0.136 C 
BRANCH  28  29
HETATM   29  O2  UNL     1      22.877   8.093  46.068  1.00  0.00    -0.368 OA
HETATM   30  C16 UNL     1      21.703   8.724  46.643  1.00  0.00     0.208 C 
ENDBRANCH  28  29
ENDBRANCH  11  27
TORSDOF 5
ENDMDL
MODEL 7
REMARK VINA RESULT:      -7.2      5.586      9.399
REMARK  5 active torsions:
REMARK  status: ('A' for Active; 'I' for Inactive)
REMARK    1  A    between atoms: C2_2  and  C3_3 
REMARK    2  A    between atoms: C3_3  and  C4_4 
REMARK    3  A    between atoms: C4_4  and  C5_5 
REMARK    4  A    between atoms: C13_15  and  C14_16 
REMARK    5  A    between atoms: C15_17  and  O2_18 
ROOT
HETATM    1  C5  UNL     1      23.114   0.063  52.667  1.00  0.00    -0.040 C 
HETATM    2  C6  UNL     1      22.169   0.513  51.715  1.00  0.00    -0.014 C 
HETATM    3  C7  UNL     1      20.802   0.148  51.609  1.00  0.00     0.064 C 
HETATM    4  C8  UNL     1      19.555   0.738  51.362  1.00  0.00    -0.039 C 
HETATM    5  C9  UNL     1      19.683   1.752  50.352  1.00  0.00     0.288 A 
HETATM    6  N1  UNL     1      18.632   2.658  49.698  1.00  0.00     0.110 N 
HETATM    7  C10 UNL     1      17.251   2.420  50.115  1.00  0.00     0.234 A 
HETATM    8  O1  UNL     1      18.438   2.264  50.032  1.00  0.00     0.000 OA
HETATM    9  C11 UNL     1      15.890   2.004  50.659  1.00  0.00     0.053 C 
HETATM   10  C12 UNL     1      15.919   0.471  50.814  1.00  0.00     0.061 C 
HETATM   11  C13 UNL     1      15.947  -0.044  52.147  1.00  0.00     0.031 C 
HETATM   12  N2  UNL     1      16.527  -0.661  53.206  1.00  0.00    -0.288 NA
HETATM   13  C17 UNL     1      17.737  -1.211  53.517  1.00  0.00     0.205 C 
HETATM   14  C18 UNL     1      19.084  -0.881  53.140  1.00  0.00     0.025 C 
HETATM   15  C19 UNL     1      18.546  -0.107  52.264  1.00  0.00     0.031 C 
HETATM   16  N3  UNL     1      20.089  -1.525  53.895  1.00  0.00    -0.388 N 
HETATM   17  C20 UNL     1      21.031  -0.506  54.351  1.00  0.00     0.148 C 
HETATM   18  C21 UNL     1      22.276  -0.921  54.992  1.00  0.00     0.017 C 
HETATM   19  C22 UNL     1      23.242  -0.546  54.011  1.00  0.00     0.037 C 
HETATM   20 CL1  UNL     1      24.829  -0.874  54.669  1.00  0.00    -0.084 Cl
HETATM   21  H12 UNL     1      19.290   3.136  48.950  1.00  0.00     0.318 HD
HETATM   22  H25 UNL     1      20.057  -2.550  54.003  1.00  0.00     0.159 HD
ENDROOT
BRANCH   1  23
HETATM   23  C4  UNL     1      24.462   0.730  52.286  1.00  0.00     0.040 C 
BRANCH  23  24
HETATM   24  C3  UNL     1      24.153   2.162  52.933  1.00  0.00     0.009 C 
BRANCH  24  25
HETATM   25  C2  UNL     1      25.376   2.569  53.761  1.00  0.00     0.008 C 
HETATM   26  C1  UNL     1      26.140   2.105  52.542  1.00  0.00    -0.013 C 
ENDBRANCH  24  25
ENDBRANCH  23  24
ENDBRANCH   1  23
BRANCH  11  27
HETATM   27  C14 UNL     1      14.665   0.606  52.596  1.00  0.00     0.050 C 
HETATM   28  C15 UNL     1      13.512  -0.028  53.021  1.00  0.00     0.136 C 
BRANCH  28  29
HETATM   29  O2  UNL     1      13.057  -1.394  53.204  1.00  0.00    -0.368 OA
HETATM   30  C16 UNL     1      11.668  -1.498  52.795  1.00  0.00     0.208 C 
ENDBRANCH  28  29
ENDBRANCH  11  27
TORSDOF 5
ENDMDL
MODEL 8
REMARK VINA RESULT:      -7.2      4.703      8.264
REMARK  5 active torsions:
REMARK  status: ('A' for Active; 'I' for Inactive)
REMARK    1  A    between atoms: C2_2  and  C3_3 
REMARK    2  A    between atoms: C3_3  and  C4_4 
REMARK    3  A    between atoms: C4_4  and  C5_5 
REMARK    4  A    between atoms: C13_15  and  C14_16 
REMARK    5  A    between atoms: C15_17  and  O2_18 
ROOT
HETATM    1  C5  UNL     1      23.752   3.751  50.354  1.00  0.00    -0.040 C 
HETATM    2  C6  UNL     1      24.915   3.960  49.576  1.00  0.00    -0.014 C 
HETATM    3  C7  UNL     1      25.421   5.191  49.085  1.00  0.00     0.064 C 
HETATM    4  C8  UNL     1      26.645   5.857  48.933  1.00  0.00    -0.039 C 
HETATM    5  C9  UNL     1      27.667   4.925  48.546  1.00  0.00     0.288 A 
HETATM    6  N1  UNL     1      29.150   5.138  48.219  1.00  0.00     0.110 N 
HETATM    7  C10 UNL     1      29.605   6.527  48.240  1.00  0.00     0.234 A 
HETATM    8  O1  UNL     1      28.851   5.595  48.295  1.00  0.00     0.000 OA
HETATM    9  C11 UNL     1      29.871   8.026  48.292  1.00  0.00     0.053 C 
HETATM   10  C12 UNL     1      28.621   8.724  47.722  1.00  0.00     0.061 C 
HETATM   11  C13 UNL     1      27.801   9.439  48.648  1.00  0.00     0.031 C 
HETATM   12  N2  UNL     1      26.678   9.642  49.382  1.00  0.00    -0.288 NA
HETATM   13  C17 UNL     1      25.486   9.013  49.601  1.00  0.00     0.205 C 
HETATM   14  C18 UNL     1      25.110   7.627  49.652  1.00  0.00     0.025 C 
HETATM   15  C19 UNL     1      26.275   7.392  49.157  1.00  0.00     0.031 C 
HETATM   16  N3  UNL     1      23.824   7.377  50.180  1.00  0.00    -0.388 N 
HETATM   17  C20 UNL     1      23.952   6.346  51.206  1.00  0.00     0.148 C 
HETATM   18  C21 UNL     1      22.745   5.759  51.781  1.00  0.00     0.017 C 
HETATM   19  C22 UNL     1      22.798   4.430  51.264  1.00  0.00     0.037 C 
HETATM   20 CL1  UNL     1      21.464   3.532  51.952  1.00  0.00    -0.084 Cl
HETATM   21  H12 UNL     1      29.385   4.106  47.900  1.00  0.00     0.318 HD
HETATM   22  H25 UNL     1      23.015   7.887  49.793  1.00  0.00     0.159 HD
ENDROOT
BRANCH   1  23
HETATM   23  C4  UNL     1      23.637   2.218  50.559  1.00  0.00     0.040 C 
BRANCH  23  24
HETATM   24  C3  UNL     1      24.947   2.049  51.463  1.00  0.00     0.009 C 
BRANCH  24  25
HETATM   25  C2  UNL     1      24.556   1.224  52.693  1.00  0.00     0.008 C 
HETATM   26  C1  UNL     1      25.124   2.402  53.451  1.00  0.00    -0.013 C 
ENDBRANCH  24  25
ENDBRANCH  23  24
ENDBRANCH   1  23
BRANCH  11  27
HETATM   27  C14 UNL     1      28.877  10.377  49.124  1.00  0.00     0.050 C 
HETATM   28  C15 UNL     1      29.088  11.682  48.717  1.00  0.00     0.136 C 
BRANCH  28  29
HETATM   29  O2  UNL     1      28.479  12.616  47.788  1.00  0.00    -0.368 OA
HETATM   30  C16 UNL     1      27.661  13.563  48.524  1.00  0.00     0.208 C 
ENDBRANCH  28  29
ENDBRANCH  11  27
TORSDOF 5
ENDMDL
MODEL 9
REMARK VINA RESULT:      -7.1      6.932     10.453
REMARK  5 active torsions:
REMARK  status: ('A' for Active; 'I' for Inactive)
REMARK    1  A    between atoms: C2_2  and  C3_3 
REMARK    2  A    between atoms: C3_3  and  C4_4 
REMARK    3  A    between atoms: C4_4  and  C5_5 
REMARK    4  A    between atoms: C13_15  and  C14_16 
REMARK    5  A    between atoms: C15_17  and  O2_18 
ROOT
HETATM    1  C5  UNL     1      32.687   4.218  46.572  1.00  0.00    -0.040 C 
HETATM    2  C6  UNL     1      31.521   4.351  47.362  1.00  0.00    -0.014 C 
HETATM    3  C7  UNL     1      30.937   5.548  47.851  1.00  0.00     0.064 C 
HETATM    4  C8  UNL     1      29.673   6.130  48.013  1.00  0.00    -0.039 C 
HETATM    5  C9  UNL     1      28.721   5.133  48.417  1.00  0.00     0.288 A 
HETATM    6  N1  UNL     1      27.230   5.247  48.759  1.00  0.00     0.110 N 
HETATM    7  C10 UNL     1      26.681   6.602  48.735  1.00  0.00     0.234 A 
HETATM    8  O1  UNL     1      27.496   5.722  48.677  1.00  0.00     0.000 OA
HETATM    9  C11 UNL     1      26.312   8.078  48.677  1.00  0.00     0.053 C 
HETATM   10  C12 UNL     1      27.518   8.863  49.229  1.00  0.00     0.061 C 
HETATM   11  C13 UNL     1      28.277   9.627  48.289  1.00  0.00     0.031 C 
HETATM   12  N2  UNL     1      29.376   9.901  47.541  1.00  0.00    -0.288 NA
HETATM   13  C17 UNL     1      30.605   9.354  47.313  1.00  0.00     0.205 C 
HETATM   14  C18 UNL     1      31.075   7.996  47.266  1.00  0.00     0.025 C 
HETATM   15  C19 UNL     1      29.934   7.686  47.775  1.00  0.00     0.031 C 
HETATM   16  N3  UNL     1      32.369   7.831  46.725  1.00  0.00    -0.388 N 
HETATM   17  C20 UNL     1      32.300   6.787  45.707  1.00  0.00     0.148 C 
HETATM   18  C21 UNL     1      33.539   6.280  45.122  1.00  0.00     0.017 C 
HETATM   19  C22 UNL     1      33.582   4.954  45.648  1.00  0.00     0.037 C 
HETATM   20 CL1  UNL     1      34.967   4.145  44.950  1.00  0.00    -0.084 Cl
HETATM   21  H12 UNL     1      27.070   4.203  49.086  1.00  0.00     0.318 HD
HETATM   22  H25 UNL     1      33.146   8.398  47.100  1.00  0.00     0.159 HD
ENDROOT
BRANCH   1  23
HETATM   23  C4  UNL     1      32.904   2.694  46.375  1.00  0.00     0.040 C 
BRANCH  23  24
HETATM   24  C3  UNL     1      32.709   2.277  47.909  1.00  0.00     0.009 C 
BRANCH  24  25
HETATM   25  C2  UNL     1      32.936   0.765  48.008  1.00  0.00     0.008 C 
HETATM   26  C1  UNL     1      32.061   0.726  46.777  1.00  0.00    -0.013 C 
ENDBRANCH  24  25
ENDBRANCH  23  24
ENDBRANCH   1  23
BRANCH  11  27
HETATM   27  C14 UNL     1      27.134  10.486  47.820  1.00  0.00     0.050 C 
HETATM   28  C15 UNL     1      26.915  11.819  48.115  1.00  0.00     0.136 C 
BRANCH  28  29
HETATM   29  O2  UNL     1      27.567  12.855  48.894  1.00  0.00    -0.368 OA
HETATM   30  C16 UNL     1      28.224  13.789  47.999  1.00  0.00     0.208 C 
ENDBRANCH  28  29
ENDBRANCH  11  27
TORSDOF 5
ENDMDL
