MODEL 1
REMARK VINA RESULT:      -9.2      0.000      0.000
REMARK  5 active torsions:
REMARK  status: ('A' for Active; 'I' for Inactive)
REMARK    1  A    between atoms: C3_3  and  O1_4 
REMARK    2  A    between atoms: N1_7  and  C6_8 
REMARK    3  A    between atoms: C6_8  and  C7_9 
REMARK    4  A    between atoms: C7_9  and  C8_10 
REMARK    5  A    between atoms: C11_13  and  O2_14 
ROOT
HETATM    1  C1  UNL     1      23.955   6.916  50.729  1.00  0.00     0.050 C 
HETATM    2  C2  UNL     1      23.057   5.695  50.685  1.00  0.00    -0.033 C 
HETATM    3  C3  UNL     1      23.465   5.600  51.938  1.00  0.00     0.050 C 
HETATM    4  C4  UNL     1      23.045   4.467  52.832  1.00  0.00     0.084 C 
HETATM    5  C5  UNL     1      24.328   3.579  53.008  1.00  0.00     0.128 C 
HETATM    6  N1  UNL     1      24.458   2.946  51.654  1.00  0.00    -0.348 N 
HETATM    7  C14 UNL     1      24.882   2.919  50.258  1.00  0.00     0.452 A 
HETATM    8  O3  UNL     1      25.191   4.027  50.676  1.00  0.00    -0.120 OA
HETATM    9  N2  UNL     1      25.500   3.785  49.311  1.00  0.00     0.142 N 
HETATM   10  C15 UNL     1      26.102   5.019  48.833  1.00  0.00     0.183 A 
HETATM   11  C16 UNL     1      27.464   5.034  48.870  1.00  0.00     0.041 A 
HETATM   12  C17 UNL     1      28.058   6.178  48.452  1.00  0.00     0.002 A 
HETATM   13  C18 UNL     1      27.306   7.224  48.029  1.00  0.00     0.001 A 
HETATM   14  C19 UNL     1      25.937   7.225  47.984  1.00  0.00     0.014 A 
HETATM   15  C20 UNL     1      25.267   6.098  48.394  1.00  0.00     0.001 A 
HETATM   16  C21 UNL     1      23.789   6.008  48.354  1.00  0.00     0.014 C 
HETATM   17  C22 UNL     1      22.804   5.836  49.273  1.00  0.00     0.010 C 
HETATM   18  H18 UNL     1      25.600   3.182  48.437  1.00  0.00     0.332 HD
ENDROOT
BRANCH   6  19
HETATM   19  C6  UNL     1      23.852   1.626  51.627  1.00  0.00     0.126 C 
BRANCH  19  20
HETATM   20  C7  UNL     1      23.864   0.982  52.995  1.00  0.00     0.055 C 
BRANCH  20  21
HETATM   21  C8  UNL     1      25.114   0.228  53.275  1.00  0.00    -0.064 C 
HETATM   22  C9  UNL     1      25.365  -0.337  54.427  1.00  0.00    -0.020 C 
HETATM   23  C10 UNL     1      26.494   0.024  54.994  1.00  0.00     0.048 C 
HETATM   24  C11 UNL     1      27.575   0.628  54.190  1.00  0.00     0.063 C 
HETATM   25  C12 UNL     1      27.409   0.646  52.868  1.00  0.00     0.014 C 
HETATM   26  C13 UNL     1      26.169   0.071  52.237  1.00  0.00     0.065 C 
BRANCH  24  27
HETATM   27  O2  UNL     1      28.686   1.137  54.843  1.00  0.00    -0.361 OA
HETATM   28  H14 UNL     1      29.626   1.049  54.449  1.00  0.00     0.217 HD
ENDBRANCH  24  27
ENDBRANCH  20  21
ENDBRANCH  19  20
ENDBRANCH   6  19
BRANCH   3  29
HETATM   29  O1  UNL     1      24.296   6.328  52.779  1.00  0.00    -0.364 OA
HETATM   30  H4  UNL     1      25.257   6.054  52.966  1.00  0.00     0.217 HD
ENDBRANCH   3  29
TORSDOF 5
ENDMDL
MODEL 2
REMARK VINA RESULT:      -8.9      3.211      4.697
REMARK  5 active torsions:
REMARK  status: ('A' for Active; 'I' for Inactive)
REMARK    1  A    between atoms: C3_3  and  O1_4 
REMARK    2  A    between atoms: N1_7  and  C6_8 
REMARK    3  A    between atoms: C6_8  and  C7_9 
REMARK    4  A    between atoms: C7_9  and  C8_10 
REMARK    5  A    between atoms: C11_13  and  O2_14 
ROOT
HETATM    1  C1  UNL     1      23.829   3.469  49.171  1.00  0.00     0.050 C 
HETATM    2  C2  UNL     1      23.390   2.449  50.203  1.00  0.00    -0.033 C 
HETATM    3  C3  UNL     1      22.531   2.149  49.247  1.00  0.00     0.050 C 
HETATM    4  C4  UNL     1      21.481   1.088  49.419  1.00  0.00     0.084 C 
HETATM    5  C5  UNL     1      20.120   1.862  49.534  1.00  0.00     0.128 C 
HETATM    6  N1  UNL     1      20.231   2.488  50.892  1.00  0.00    -0.348 N 
HETATM    7  C14 UNL     1      20.663   3.525  51.823  1.00  0.00     0.452 A 
HETATM    8  O3  UNL     1      21.130   3.842  50.737  1.00  0.00    -0.120 OA
HETATM    9  N2  UNL     1      21.445   4.715  51.811  1.00  0.00     0.142 N 
HETATM   10  C15 UNL     1      22.284   5.749  51.225  1.00  0.00     0.183 A 
HETATM   11  C16 UNL     1      21.613   6.874  50.848  1.00  0.00     0.041 A 
HETATM   12  C17 UNL     1      22.361   7.849  50.278  1.00  0.00     0.002 A 
HETATM   13  C18 UNL     1      23.696   7.678  50.111  1.00  0.00     0.001 A 
HETATM   14  C19 UNL     1      24.385   6.555  50.485  1.00  0.00     0.014 A 
HETATM   15  C20 UNL     1      23.690   5.524  51.069  1.00  0.00     0.001 A 
HETATM   16  C21 UNL     1      24.364   4.286  51.525  1.00  0.00     0.014 C 
HETATM   17  C22 UNL     1      24.284   2.968  51.209  1.00  0.00     0.010 C 
HETATM   18  H18 UNL     1      21.366   5.086  52.807  1.00  0.00     0.332 HD
ENDROOT
BRANCH   6  19
HETATM   19  C6  UNL     1      19.570   1.680  51.902  1.00  0.00     0.126 C 
BRANCH  19  20
HETATM   20  C7  UNL     1      20.439   1.504  53.127  1.00  0.00     0.055 C 
BRANCH  20  21
HETATM   21  C8  UNL     1      21.123   0.185  53.174  1.00  0.00    -0.064 C 
HETATM   22  C9  UNL     1      20.532  -0.912  53.570  1.00  0.00    -0.020 C 
HETATM   23  C10 UNL     1      21.132  -1.551  54.549  1.00  0.00     0.048 C 
HETATM   24  C11 UNL     1      22.560  -1.308  54.835  1.00  0.00     0.063 C 
HETATM   25  C12 UNL     1      23.229  -0.545  53.973  1.00  0.00     0.014 C 
HETATM   26  C13 UNL     1      22.546   0.039  52.765  1.00  0.00     0.065 C 
BRANCH  24  27
HETATM   27  O2  UNL     1      23.119  -1.879  55.968  1.00  0.00    -0.361 OA
HETATM   28  H14 UNL     1      23.733  -2.695  55.909  1.00  0.00     0.217 HD
ENDBRANCH  24  27
ENDBRANCH  20  21
ENDBRANCH  19  20
ENDBRANCH   6  19
BRANCH   3  29
HETATM   29  O1  UNL     1      22.263   2.604  47.962  1.00  0.00    -0.364 OA
HETATM   30  H4  UNL     1      21.386   3.054  47.715  1.00  0.00     0.217 HD
ENDBRANCH   3  29
TORSDOF 5
ENDMDL
MODEL 3
REMARK VINA RESULT:      -8.7      3.185      4.513
REMARK  5 active torsions:
REMARK  status: ('A' for Active; 'I' for Inactive)
REMARK    1  A    between atoms: C3_3  and  O1_4 
REMARK    2  A    between atoms: N1_7  and  C6_8 
REMARK    3  A    between atoms: C6_8  and  C7_9 
REMARK    4  A    between atoms: C7_9  and  C8_10 
REMARK    5  A    between atoms: C11_13  and  O2_14 
ROOT
HETATM    1  C1  UNL     1      20.157   1.686  50.827  1.00  0.00     0.050 C 
HETATM    2  C2  UNL     1      21.154   0.544  50.853  1.00  0.00    -0.033 C 
HETATM    3  C3  UNL     1      20.636   0.386  52.057  1.00  0.00     0.050 C 
HETATM    4  C4  UNL     1      21.122  -0.675  53.004  1.00  0.00     0.084 C 
HETATM    5  C5  UNL     1      21.902   0.095  54.128  1.00  0.00     0.128 C 
HETATM    6  N1  UNL     1      23.140   0.533  53.404  1.00  0.00    -0.348 N 
HETATM    7  C14 UNL     1      23.905   1.432  52.545  1.00  0.00     0.452 A 
HETATM    8  O3  UNL     1      22.768   1.884  52.566  1.00  0.00    -0.120 OA
HETATM    9  N2  UNL     1      23.692   2.602  51.762  1.00  0.00     0.142 N 
HETATM   10  C15 UNL     1      22.923   3.693  51.184  1.00  0.00     0.183 A 
HETATM   11  C16 UNL     1      23.005   4.867  51.872  1.00  0.00     0.041 A 
HETATM   12  C17 UNL     1      22.283   5.899  51.373  1.00  0.00     0.002 A 
HETATM   13  C18 UNL     1      21.537   5.734  50.253  1.00  0.00     0.001 A 
HETATM   14  C19 UNL     1      21.445   4.562  49.550  1.00  0.00     0.014 A 
HETATM   15  C20 UNL     1      22.150   3.472  49.999  1.00  0.00     0.001 A 
HETATM   16  C21 UNL     1      22.125   2.175  49.283  1.00  0.00     0.014 C 
HETATM   17  C22 UNL     1      21.727   0.912  49.582  1.00  0.00     0.010 C 
HETATM   18  H18 UNL     1      24.660   2.838  51.382  1.00  0.00     0.332 HD
ENDROOT
BRANCH   6  19
HETATM   19  C6  UNL     1      24.238  -0.392  53.625  1.00  0.00     0.126 C 
BRANCH  19  20
HETATM   20  C7  UNL     1      25.557   0.334  53.760  1.00  0.00     0.055 C 
BRANCH  20  21
HETATM   21  C8  UNL     1      26.656  -0.300  52.985  1.00  0.00    -0.064 C 
HETATM   22  C9  UNL     1      26.463  -1.282  52.144  1.00  0.00    -0.020 C 
HETATM   23  C10 UNL     1      27.179  -2.360  52.367  1.00  0.00     0.048 C 
HETATM   24  C11 UNL     1      28.407  -2.287  53.183  1.00  0.00     0.063 C 
HETATM   25  C12 UNL     1      28.823  -1.074  53.543  1.00  0.00     0.014 C 
HETATM   26  C13 UNL     1      28.064   0.159  53.128  1.00  0.00     0.065 C 
BRANCH  24  27
HETATM   27  O2  UNL     1      29.050  -3.465  53.526  1.00  0.00    -0.361 OA
HETATM   28  H14 UNL     1      29.276  -4.176  52.827  1.00  0.00     0.217 HD
ENDBRANCH  24  27
ENDBRANCH  20  21
ENDBRANCH  19  20
ENDBRANCH   6  19
BRANCH   3  29
HETATM   29  O1  UNL     1      19.654   1.011  52.815  1.00  0.00    -0.364 OA
HETATM   30  H4  UNL     1      19.452   0.740  53.774  1.00  0.00     0.217 HD
ENDBRANCH   3  29
TORSDOF 5
ENDMDL
MODEL 4
REMARK VINA RESULT:      -8.6      2.404      3.348
REMARK  5 active torsions:
REMARK  status: ('A' for Active; 'I' for Inactive)
REMARK    1  A    between atoms: C3_3  and  O1_4 
REMARK    2  A    between atoms: N1_7  and  C6_8 
REMARK    3  A    between atoms: C6_8  and  C7_9 
REMARK    4  A    between atoms: C7_9  and  C8_10 
REMARK    5  A    between atoms: C11_13  and  O2_14 
ROOT
HETATM    1  C1  UNL     1      24.169   6.961  50.743  1.00  0.00     0.050 C 
HETATM    2  C2  UNL     1      23.060   5.934  50.611  1.00  0.00    -0.033 C 
HETATM    3  C3  UNL     1      23.386   5.717  51.872  1.00  0.00     0.050 C 
HETATM    4  C4  UNL     1      22.721   4.652  52.698  1.00  0.00     0.084 C 
HETATM    5  C5  UNL     1      23.804   3.532  52.882  1.00  0.00     0.128 C 
HETATM    6  N1  UNL     1      23.874   2.936  51.508  1.00  0.00    -0.348 N 
HETATM    7  C14 UNL     1      24.349   2.880  50.128  1.00  0.00     0.452 A 
HETATM    8  O3  UNL     1      24.841   3.894  50.606  1.00  0.00    -0.120 OA
HETATM    9  N2  UNL     1      25.160   3.648  49.245  1.00  0.00     0.142 N 
HETATM   10  C15 UNL     1      26.005   4.762  48.845  1.00  0.00     0.183 A 
HETATM   11  C16 UNL     1      27.342   4.517  48.935  1.00  0.00     0.041 A 
HETATM   12  C17 UNL     1      28.159   5.543  48.591  1.00  0.00     0.002 A 
HETATM   13  C18 UNL     1      27.636   6.727  48.187  1.00  0.00     0.001 A 
HETATM   14  C19 UNL     1      26.295   6.989  48.091  1.00  0.00     0.014 A 
HETATM   15  C20 UNL     1      25.408   5.995  48.424  1.00  0.00     0.001 A 
HETATM   16  C21 UNL     1      23.943   6.189  48.325  1.00  0.00     0.014 C 
HETATM   17  C22 UNL     1      22.903   6.172  49.198  1.00  0.00     0.010 C 
HETATM   18  H18 UNL     1      25.184   3.070  48.349  1.00  0.00     0.332 HD
ENDROOT
BRANCH   6  19
HETATM   19  C6  UNL     1      23.033   1.757  51.398  1.00  0.00     0.126 C 
BRANCH  19  20
HETATM   20  C7  UNL     1      23.295   0.782  52.525  1.00  0.00     0.055 C 
BRANCH  20  21
HETATM   21  C8  UNL     1      22.131   0.611  53.433  1.00  0.00    -0.064 C 
HETATM   22  C9  UNL     1      22.173  -0.116  54.518  1.00  0.00    -0.020 C 
HETATM   23  C10 UNL     1      21.259  -1.056  54.599  1.00  0.00     0.048 C 
HETATM   24  C11 UNL     1      20.032  -0.979  53.779  1.00  0.00     0.063 C 
HETATM   25  C12 UNL     1      19.836   0.143  53.088  1.00  0.00     0.014 C 
HETATM   26  C13 UNL     1      20.829   1.273  53.150  1.00  0.00     0.065 C 
BRANCH  24  27
HETATM   27  O2  UNL     1      19.166  -2.060  53.773  1.00  0.00    -0.361 OA
HETATM   28  H14 UNL     1      18.262  -2.026  54.250  1.00  0.00     0.217 HD
ENDBRANCH  24  27
ENDBRANCH  20  21
ENDBRANCH  19  20
ENDBRANCH   6  19
BRANCH   3  29
HETATM   29  O1  UNL     1      24.300   6.244  52.775  1.00  0.00    -0.364 OA
HETATM   30  H4  UNL     1      24.706   7.169  52.663  1.00  0.00     0.217 HD
ENDBRANCH   3  29
TORSDOF 5
ENDMDL
MODEL 5
REMARK VINA RESULT:      -8.5      2.038      6.699
REMARK  5 active torsions:
REMARK  status: ('A' for Active; 'I' for Inactive)
REMARK    1  A    between atoms: C3_3  and  O1_4 
REMARK    2  A    between atoms: N1_7  and  C6_8 
REMARK    3  A    between atoms: C6_8  and  C7_9 
REMARK    4  A    between atoms: C7_9  and  C8_10 
REMARK    5  A    between atoms: C11_13  and  O2_14 
ROOT
HETATM    1  C1  UNL     1      22.984   2.266  52.309  1.00  0.00     0.050 C 
HETATM    2  C2  UNL     1      23.527   3.663  52.074  1.00  0.00    -0.033 C 
HETATM    3  C3  UNL     1      23.009   3.445  50.879  1.00  0.00     0.050 C 
HETATM    4  C4  UNL     1      23.118   4.447  49.765  1.00  0.00     0.084 C 
HETATM    5  C5  UNL     1      24.136   3.827  48.745  1.00  0.00     0.128 C 
HETATM    6  N1  UNL     1      25.436   3.958  49.482  1.00  0.00    -0.348 N 
HETATM    7  C14 UNL     1      26.447   3.521  50.440  1.00  0.00     0.452 A 
HETATM    8  O3  UNL     1      25.535   2.709  50.528  1.00  0.00    -0.120 OA
HETATM    9  N2  UNL     1      26.635   2.486  51.399  1.00  0.00     0.142 N 
HETATM   10  C15 UNL     1      26.278   1.301  52.163  1.00  0.00     0.183 A 
HETATM   11  C16 UNL     1      26.772   0.135  51.660  1.00  0.00     0.041 A 
HETATM   12  C17 UNL     1      26.440  -0.992  52.336  1.00  0.00     0.002 A 
HETATM   13  C18 UNL     1      25.661  -0.921  53.443  1.00  0.00     0.001 A 
HETATM   14  C19 UNL     1      25.158   0.242  53.963  1.00  0.00     0.014 A 
HETATM   15  C20 UNL     1      25.454   1.425  53.328  1.00  0.00     0.001 A 
HETATM   16  C21 UNL     1      24.970   2.728  53.839  1.00  0.00     0.014 C 
HETATM   17  C22 UNL     1      24.167   3.715  53.365  1.00  0.00     0.010 C 
HETATM   18  H18 UNL     1      27.617   2.658  51.775  1.00  0.00     0.332 HD
ENDROOT
BRANCH   6  19
HETATM   19  C6  UNL     1      26.151   5.157  49.083  1.00  0.00     0.126 C 
BRANCH  19  20
HETATM   20  C7  UNL     1      27.573   4.844  48.671  1.00  0.00     0.055 C 
BRANCH  20  21
HETATM   21  C8  UNL     1      28.299   6.024  48.133  1.00  0.00    -0.064 C 
HETATM   22  C9  UNL     1      29.594   6.047  47.958  1.00  0.00    -0.020 C 
HETATM   23  C10 UNL     1      30.224   7.032  48.556  1.00  0.00     0.048 C 
HETATM   24  C11 UNL     1      29.490   8.243  48.976  1.00  0.00     0.063 C 
HETATM   25  C12 UNL     1      28.220   8.347  48.587  1.00  0.00     0.014 C 
HETATM   26  C13 UNL     1      27.576   7.269  47.756  1.00  0.00     0.065 C 
BRANCH  24  27
HETATM   27  O2  UNL     1      30.150   9.192  49.740  1.00  0.00    -0.361 OA
HETATM   28  H14 UNL     1      29.649   9.799  50.393  1.00  0.00     0.217 HD
ENDBRANCH  24  27
ENDBRANCH  20  21
ENDBRANCH  19  20
ENDBRANCH   6  19
BRANCH   3  29
HETATM   29  O1  UNL     1      22.317   2.411  50.261  1.00  0.00    -0.364 OA
HETATM   30  H4  UNL     1      22.529   2.103  49.316  1.00  0.00     0.217 HD
ENDBRANCH   3  29
TORSDOF 5
ENDMDL
MODEL 6
REMARK VINA RESULT:      -8.3      2.655      6.847
REMARK  5 active torsions:
REMARK  status: ('A' for Active; 'I' for Inactive)
REMARK    1  A    between atoms: C3_3  and  O1_4 
REMARK    2  A    between atoms: N1_7  and  C6_8 
REMARK    3  A    between atoms: C6_8  and  C7_9 
REMARK    4  A    between atoms: C7_9  and  C8_10 
REMARK    5  A    between atoms: C11_13  and  O2_14 
ROOT
HETATM    1  C1  UNL     1      20.594   0.589  50.650  1.00  0.00     0.050 C 
HETATM    2  C2  UNL     1      20.417   2.086  50.487  1.00  0.00    -0.033 C 
HETATM    3  C3  UNL     1      21.035   1.831  49.348  1.00  0.00     0.050 C 
HETATM    4  C4  UNL     1      21.391   2.915  48.370  1.00  0.00     0.084 C 
HETATM    5  C5  UNL     1      22.951   3.059  48.457  1.00  0.00     0.128 C 
HETATM    6  N1  UNL     1      23.131   3.705  49.798  1.00  0.00    -0.348 N 
HETATM    7  C14 UNL     1      23.258   3.687  51.252  1.00  0.00     0.452 A 
HETATM    8  O3  UNL     1      23.054   2.526  50.925  1.00  0.00    -0.120 OA
HETATM    9  N2  UNL     1      23.193   2.748  52.321  1.00  0.00     0.142 N 
HETATM   10  C15 UNL     1      23.017   1.440  52.932  1.00  0.00     0.183 A 
HETATM   11  C16 UNL     1      24.180   0.775  53.184  1.00  0.00     0.041 A 
HETATM   12  C17 UNL     1      24.052  -0.457  53.734  1.00  0.00     0.002 A 
HETATM   13  C18 UNL     1      22.823  -0.962  54.003  1.00  0.00     0.001 A 
HETATM   14  C19 UNL     1      21.646  -0.306  53.757  1.00  0.00     0.014 A 
HETATM   15  C20 UNL     1      21.699   0.948  53.199  1.00  0.00     0.001 A 
HETATM   16  C21 UNL     1      20.474   1.734  52.924  1.00  0.00     0.014 C 
HETATM   17  C22 UNL     1      19.881   2.247  51.815  1.00  0.00     0.010 C 
HETATM   18  H18 UNL     1      23.417   3.327  53.187  1.00  0.00     0.332 HD
ENDROOT
BRANCH   6  19
HETATM   19  C6  UNL     1      23.255   5.147  49.679  1.00  0.00     0.126 C 
BRANCH  19  20
HETATM   20  C7  UNL     1      24.255   5.531  48.611  1.00  0.00     0.055 C 
BRANCH  20  21
HETATM   21  C8  UNL     1      25.629   5.732  49.141  1.00  0.00    -0.064 C 
HETATM   22  C9  UNL     1      26.123   6.910  49.416  1.00  0.00    -0.020 C 
HETATM   23  C10 UNL     1      27.257   7.197  48.817  1.00  0.00     0.048 C 
HETATM   24  C11 UNL     1      28.110   6.120  48.277  1.00  0.00     0.063 C 
HETATM   25  C12 UNL     1      27.755   4.867  48.558  1.00  0.00     0.014 C 
HETATM   26  C13 UNL     1      26.535   4.578  49.392  1.00  0.00     0.065 C 
BRANCH  24  27
HETATM   27  O2  UNL     1      29.217   6.464  47.518  1.00  0.00    -0.361 OA
HETATM   28  H14 UNL     1      29.195   7.251  46.865  1.00  0.00     0.217 HD
ENDBRANCH  24  27
ENDBRANCH  20  21
ENDBRANCH  19  20
ENDBRANCH   6  19
BRANCH   3  29
HETATM   29  O1  UNL     1      21.538   0.703  48.712  1.00  0.00    -0.364 OA
HETATM   30  H4  UNL     1      22.491   0.378  48.853  1.00  0.00     0.217 HD
ENDBRANCH   3  29
TORSDOF 5
ENDMDL
MODEL 7
REMARK VINA RESULT:      -8.1      2.671      6.928
REMARK  5 active torsions:
REMARK  status: ('A' for Active; 'I' for Inactive)
REMARK    1  A    between atoms: C3_3  and  O1_4 
REMARK    2  A    between atoms: N1_7  and  C6_8 
REMARK    3  A    between atoms: C6_8  and  C7_9 
REMARK    4  A    between atoms: C7_9  and  C8_10 
REMARK    5  A    between atoms: C11_13  and  O2_14 
ROOT
HETATM    1  C1  UNL     1      25.234   2.568  53.546  1.00  0.00     0.050 C 
HETATM    2  C2  UNL     1      24.795   2.744  52.105  1.00  0.00    -0.033 C 
HETATM    3  C3  UNL     1      24.063   3.695  52.656  1.00  0.00     0.050 C 
HETATM    4  C4  UNL     1      23.106   4.533  51.856  1.00  0.00     0.084 C 
HETATM    5  C5  UNL     1      21.674   4.054  52.285  1.00  0.00     0.128 C 
HETATM    6  N1  UNL     1      21.594   2.699  51.647  1.00  0.00    -0.348 N 
HETATM    7  C14 UNL     1      21.835   1.260  51.597  1.00  0.00     0.452 A 
HETATM    8  O3  UNL     1      22.373   1.649  52.625  1.00  0.00    -0.120 OA
HETATM    9  N2  UNL     1      22.500   0.259  52.361  1.00  0.00     0.142 N 
HETATM   10  C15 UNL     1      23.292  -0.265  53.463  1.00  0.00     0.183 A 
HETATM   11  C16 UNL     1      22.558  -0.789  54.485  1.00  0.00     0.041 A 
HETATM   12  C17 UNL     1      23.264  -1.267  55.539  1.00  0.00     0.002 A 
HETATM   13  C18 UNL     1      24.618  -1.209  55.538  1.00  0.00     0.001 A 
HETATM   14  C19 UNL     1      25.370  -0.687  54.519  1.00  0.00     0.014 A 
HETATM   15  C20 UNL     1      24.721  -0.183  53.418  1.00  0.00     0.001 A 
HETATM   16  C21 UNL     1      25.460   0.377  52.263  1.00  0.00     0.014 C 
HETATM   17  C22 UNL     1      25.534   1.590  51.657  1.00  0.00     0.010 C 
HETATM   18  H18 UNL     1      22.291  -0.646  51.839  1.00  0.00     0.332 HD
ENDROOT
BRANCH   6  19
HETATM   19  C6  UNL     1      20.917   2.757  50.364  1.00  0.00     0.126 C 
BRANCH  19  20
HETATM   20  C7  UNL     1      21.663   1.974  49.307  1.00  0.00     0.055 C 
BRANCH  20  21
HETATM   21  C8  UNL     1      22.483   2.832  48.413  1.00  0.00    -0.064 C 
HETATM   22  C9  UNL     1      23.715   3.173  48.682  1.00  0.00    -0.020 C 
HETATM   23  C10 UNL     1      23.952   4.465  48.688  1.00  0.00     0.048 C 
HETATM   24  C11 UNL     1      23.038   5.396  47.995  1.00  0.00     0.063 C 
HETATM   25  C12 UNL     1      22.073   4.856  47.253  1.00  0.00     0.014 C 
HETATM   26  C13 UNL     1      21.933   3.361  47.135  1.00  0.00     0.065 C 
BRANCH  24  27
HETATM   27  O2  UNL     1      23.230   6.759  48.152  1.00  0.00    -0.361 OA
HETATM   28  H14 UNL     1      22.443   7.411  48.183  1.00  0.00     0.217 HD
ENDBRANCH  24  27
ENDBRANCH  20  21
ENDBRANCH  19  20
ENDBRANCH   6  19
BRANCH   3  29
HETATM   29  O1  UNL     1      23.881   4.204  53.935  1.00  0.00    -0.364 OA
HETATM   30  H4  UNL     1      22.970   4.231  54.386  1.00  0.00     0.217 HD
ENDBRANCH   3  29
TORSDOF 5
ENDMDL
MODEL 8
REMARK VINA RESULT:      -8.1      7.368     10.413
REMARK  5 active torsions:
REMARK  status: ('A' for Active; 'I' for Inactive)
REMARK    1  A    between atoms: C3_3  and  O1_4 
REMARK    2  A    between atoms: N1_7  and  C6_8 
REMARK    3  A    between atoms: C6_8  and  C7_9 
REMARK    4  A    between atoms: C7_9  and  C8_10 
REMARK    5  A    between atoms: C11_13  and  O2_14 
ROOT
HETATM    1  C1  UNL     1      32.236   6.054  49.507  1.00  0.00     0.050 C 
HETATM    2  C2  UNL     1      32.016   7.464  48.996  1.00  0.00    -0.033 C 
HETATM    3  C3  UNL     1      30.767   7.036  48.949  1.00  0.00     0.050 C 
HETATM    4  C4  UNL     1      29.645   7.896  48.438  1.00  0.00     0.084 C 
HETATM    5  C5  UNL     1      29.246   7.278  47.052  1.00  0.00     0.128 C 
HETATM    6  N1  UNL     1      30.415   7.657  46.193  1.00  0.00    -0.348 N 
HETATM    7  C14 UNL     1      31.760   7.470  45.656  1.00  0.00     0.452 A 
HETATM    8  O3  UNL     1      31.602   6.572  46.472  1.00  0.00    -0.120 OA
HETATM    9  N2  UNL     1      32.869   6.594  45.831  1.00  0.00     0.142 N 
HETATM   10  C15 UNL     1      33.606   5.481  46.408  1.00  0.00     0.183 A 
HETATM   11  C16 UNL     1      33.547   4.329  45.683  1.00  0.00     0.041 A 
HETATM   12  C17 UNL     1      34.206   3.265  46.204  1.00  0.00     0.002 A 
HETATM   13  C18 UNL     1      34.872   3.381  47.380  1.00  0.00     0.001 A 
HETATM   14  C19 UNL     1      34.941   4.532  48.120  1.00  0.00     0.014 A 
HETATM   15  C20 UNL     1      34.296   5.651  47.652  1.00  0.00     0.001 A 
HETATM   16  C21 UNL     1      34.343   6.941  48.379  1.00  0.00     0.014 C 
HETATM   17  C22 UNL     1      33.427   7.757  48.962  1.00  0.00     0.010 C 
HETATM   18  H18 UNL     1      33.579   6.929  45.109  1.00  0.00     0.332 HD
ENDROOT
BRANCH   6  19
HETATM   19  C6  UNL     1      30.151   8.874  45.445  1.00  0.00     0.126 C 
BRANCH  19  20
HETATM   20  C7  UNL     1      31.272   9.876  45.602  1.00  0.00     0.055 C 
BRANCH  20  21
HETATM   21  C8  UNL     1      30.918  11.016  46.488  1.00  0.00    -0.064 C 
HETATM   22  C9  UNL     1      31.530  11.261  47.617  1.00  0.00    -0.020 C 
HETATM   23  C10 UNL     1      30.752  11.337  48.672  1.00  0.00     0.048 C 
HETATM   24  C11 UNL     1      29.306  11.595  48.518  1.00  0.00     0.063 C 
HETATM   25  C12 UNL     1      28.871  11.893  47.294  1.00  0.00     0.014 C 
HETATM   26  C13 UNL     1      29.824  11.960  46.130  1.00  0.00     0.065 C 
BRANCH  24  27
HETATM   27  O2  UNL     1      28.491  11.515  49.636  1.00  0.00    -0.361 OA
HETATM   28  H14 UNL     1      27.486  11.694  49.581  1.00  0.00     0.217 HD
ENDBRANCH  24  27
ENDBRANCH  20  21
ENDBRANCH  19  20
ENDBRANCH   6  19
BRANCH   3  29
HETATM   29  O1  UNL     1      30.101   5.857  49.257  1.00  0.00    -0.364 OA
HETATM   30  H4  UNL     1      29.326   5.825  49.914  1.00  0.00     0.217 HD
ENDBRANCH   3  29
TORSDOF 5
ENDMDL
MODEL 9
REMARK VINA RESULT:      -8.1      2.165      6.756
REMARK  5 active torsions:
REMARK  status: ('A' for Active; 'I' for Inactive)
REMARK    1  A    between atoms: C3_3  and  O1_4 
REMARK    2  A    between atoms: N1_7  and  C6_8 
REMARK    3  A    between atoms: C6_8  and  C7_9 
REMARK    4  A    between atoms: C7_9  and  C8_10 
REMARK    5  A    between atoms: C11_13  and  O2_14 
ROOT
HETATM    1  C1  UNL     1      22.283   1.238  50.696  1.00  0.00     0.050 C 
HETATM    2  C2  UNL     1      21.864   2.687  50.847  1.00  0.00    -0.033 C 
HETATM    3  C3  UNL     1      21.949   2.639  49.530  1.00  0.00     0.050 C 
HETATM    4  C4  UNL     1      21.700   3.844  48.668  1.00  0.00     0.084 C 
HETATM    5  C5  UNL     1      23.110   4.258  48.115  1.00  0.00     0.128 C 
HETATM    6  N1  UNL     1      23.773   4.816  49.339  1.00  0.00    -0.348 N 
HETATM    7  C14 UNL     1      24.524   4.706  50.586  1.00  0.00     0.452 A 
HETATM    8  O3  UNL     1      24.347   3.556  50.204  1.00  0.00    -0.120 OA
HETATM    9  N2  UNL     1      25.052   3.687  51.430  1.00  0.00     0.142 N 
HETATM   10  C15 UNL     1      25.329   2.325  51.856  1.00  0.00     0.183 A 
HETATM   11  C16 UNL     1      26.560   1.861  51.496  1.00  0.00     0.041 A 
HETATM   12  C17 UNL     1      26.843   0.586  51.858  1.00  0.00     0.002 A 
HETATM   13  C18 UNL     1      25.930  -0.151  52.536  1.00  0.00     0.001 A 
HETATM   14  C19 UNL     1      24.690   0.299  52.906  1.00  0.00     0.014 A 
HETATM   15  C20 UNL     1      24.335   1.584  52.572  1.00  0.00     0.001 A 
HETATM   16  C21 UNL     1      23.023   2.156  52.955  1.00  0.00     0.014 C 
HETATM   17  C22 UNL     1      21.946   2.642  52.286  1.00  0.00     0.010 C 
HETATM   18  H18 UNL     1      25.557   4.226  52.199  1.00  0.00     0.332 HD
ENDROOT
BRANCH   6  19
HETATM   19  C6  UNL     1      23.648   6.262  49.396  1.00  0.00     0.126 C 
BRANCH  19  20
HETATM   20  C7  UNL     1      23.998   6.902  48.071  1.00  0.00     0.055 C 
BRANCH  20  21
HETATM   21  C8  UNL     1      25.237   7.722  48.127  1.00  0.00    -0.064 C 
HETATM   22  C9  UNL     1      26.416   7.219  48.381  1.00  0.00    -0.020 C 
HETATM   23  C10 UNL     1      27.055   7.769  49.389  1.00  0.00     0.048 C 
HETATM   24  C11 UNL     1      26.682   9.116  49.866  1.00  0.00     0.063 C 
HETATM   25  C12 UNL     1      25.791   9.790  49.140  1.00  0.00     0.014 C 
HETATM   26  C13 UNL     1      25.199   9.191  47.891  1.00  0.00     0.065 C 
BRANCH  24  27
HETATM   27  O2  UNL     1      27.269   9.599  51.024  1.00  0.00    -0.361 OA
HETATM   28  H14 UNL     1      27.071  10.539  51.374  1.00  0.00     0.217 HD
ENDBRANCH  24  27
ENDBRANCH  20  21
ENDBRANCH  19  20
ENDBRANCH   6  19
BRANCH   3  29
HETATM   29  O1  UNL     1      22.263   1.674  48.582  1.00  0.00    -0.364 OA
HETATM   30  H4  UNL     1      23.168   1.638  48.121  1.00  0.00     0.217 HD
ENDBRANCH   3  29
TORSDOF 5
ENDMDL
