MODEL 1
REMARK VINA RESULT:      -7.4      0.000      0.000
REMARK  4 active torsions:
REMARK  status: ('A' for Active; 'I' for Inactive)
REMARK    1  A    between atoms: C4_5  and  C5_6 
REMARK    2  A    between atoms: C6_7  and  N1_8 
REMARK    3  A    between atoms: N1_8  and  C7_9 
REMARK    4  A    between atoms: C12_16  and  N4_17 
ROOT
HETATM    1  C1  UNL     1      26.712  -1.612  52.518  1.00  0.00     0.019 C 
HETATM    2  C2  UNL     1      27.517  -0.779  52.909  1.00  0.00    -0.066 C 
HETATM    3  C3  UNL     1      28.480   0.204  53.357  1.00  0.00     0.083 C 
HETATM    4 CL1  UNL     1      29.894  -0.586  54.040  1.00  0.00    -0.075 Cl
HETATM    5  C4  UNL     1      28.254   1.532  53.235  1.00  0.00     0.014 C 
ENDROOT
BRANCH   5   6
HETATM    6  C5  UNL     1      26.950   1.337  52.615  1.00  0.00     0.095 C 
HETATM    7  C6  UNL     1      25.982   2.144  52.217  1.00  0.00     0.072 C 
BRANCH   7   8
HETATM    8  N1  UNL     1      25.111   1.109  51.744  1.00  0.00    -0.373 N 
HETATM    9  H5  UNL     1      25.551   0.249  51.307  1.00  0.00     0.161 HD
BRANCH   8  10
HETATM   10  C7  UNL     1      23.703   1.328  51.911  1.00  0.00     0.137 A 
HETATM   11  N2  UNL     1      23.113   2.182  51.059  1.00  0.00    -0.224 NA
HETATM   12  C8  UNL     1      21.775   2.437  51.162  1.00  0.00     0.235 A 
HETATM   13  N3  UNL     1      21.014   1.851  52.105  1.00  0.00    -0.241 NA
HETATM   14  C9  UNL     1      21.563   0.988  52.982  1.00  0.00     0.072 A 
HETATM   15  C10 UNL     1      20.809   0.370  53.960  1.00  0.00     0.035 A 
HETATM   16  C14 UNL     1      22.909   0.740  52.868  1.00  0.00     0.041 A 
HETATM   17  C11 UNL     1      21.363  -0.524  54.872  1.00  0.00     0.034 A 
HETATM   18  C12 UNL     1      22.721  -0.734  54.709  1.00  0.00     0.060 A 
HETATM   19  C13 UNL     1      23.481  -0.124  53.737  1.00  0.00     0.049 A 
BRANCH  18  20
HETATM   20  N4  UNL     1      23.338  -1.645  55.622  1.00  0.00    -0.225 N 
HETATM   21  F1  UNL     1      24.683  -1.657  55.742  1.00  0.00    -0.101 F 
HETATM   22  H9  UNL     1      22.746  -2.307  56.200  1.00  0.00     0.199 HD
ENDBRANCH  18  20
ENDBRANCH   8  10
ENDBRANCH   7   8
ENDBRANCH   5   6
TORSDOF 4
ENDMDL
MODEL 2
REMARK VINA RESULT:      -7.3      2.223      3.415
REMARK  4 active torsions:
REMARK  status: ('A' for Active; 'I' for Inactive)
REMARK    1  A    between atoms: C4_5  and  C5_6 
REMARK    2  A    between atoms: C6_7  and  N1_8 
REMARK    3  A    between atoms: N1_8  and  C7_9 
REMARK    4  A    between atoms: C12_16  and  N4_17 
ROOT
HETATM    1  C1  UNL     1      26.794  -2.037  52.428  1.00  0.00     0.019 C 
HETATM    2  C2  UNL     1      27.515  -1.146  52.855  1.00  0.00    -0.066 C 
HETATM    3  C3  UNL     1      28.375  -0.089  53.343  1.00  0.00     0.083 C 
HETATM    4 CL1  UNL     1      30.022  -0.672  53.531  1.00  0.00    -0.075 Cl
HETATM    5  C4  UNL     1      27.904   1.153  53.597  1.00  0.00     0.014 C 
ENDROOT
BRANCH   5   6
HETATM    6  C5  UNL     1      26.544   0.809  53.205  1.00  0.00     0.095 C 
HETATM    7  C6  UNL     1      25.371   1.412  53.296  1.00  0.00     0.072 C 
BRANCH   7   8
HETATM    8  N1  UNL     1      24.618   0.365  52.670  1.00  0.00    -0.373 N 
HETATM    9  H5  UNL     1      24.883   0.083  51.683  1.00  0.00     0.161 HD
BRANCH   8  10
HETATM   10  C7  UNL     1      23.563  -0.218  53.447  1.00  0.00     0.137 A 
HETATM   11  N2  UNL     1      23.910  -0.811  54.600  1.00  0.00    -0.224 NA
HETATM   12  C8  UNL     1      22.955  -1.386  55.390  1.00  0.00     0.235 A 
HETATM   13  N3  UNL     1      21.654  -1.379  55.044  1.00  0.00    -0.241 NA
HETATM   14  C9  UNL     1      21.258  -0.796  53.896  1.00  0.00     0.072 A 
HETATM   15  C10 UNL     1      19.932  -0.771  53.515  1.00  0.00     0.035 A 
HETATM   16  C14 UNL     1      22.228  -0.222  53.112  1.00  0.00     0.041 A 
HETATM   17  C11 UNL     1      19.510  -0.172  52.331  1.00  0.00     0.034 A 
HETATM   18  C12 UNL     1      20.529   0.389  51.583  1.00  0.00     0.060 A 
HETATM   19  C13 UNL     1      21.855   0.371  51.954  1.00  0.00     0.049 A 
BRANCH  18  20
HETATM   20  N4  UNL     1      20.147   1.018  50.357  1.00  0.00    -0.225 N 
HETATM   21  F1  UNL     1      20.898   0.829  49.250  1.00  0.00    -0.101 F 
HETATM   22  H9  UNL     1      19.281   1.628  50.315  1.00  0.00     0.199 HD
ENDBRANCH  18  20
ENDBRANCH   8  10
ENDBRANCH   7   8
ENDBRANCH   5   6
TORSDOF 4
ENDMDL
MODEL 3
REMARK VINA RESULT:      -7.2      2.753      4.441
REMARK  4 active torsions:
REMARK  status: ('A' for Active; 'I' for Inactive)
REMARK    1  A    between atoms: C4_5  and  C5_6 
REMARK    2  A    between atoms: C6_7  and  N1_8 
REMARK    3  A    between atoms: N1_8  and  C7_9 
REMARK    4  A    between atoms: C12_16  and  N4_17 
ROOT
HETATM    1  C1  UNL     1      27.709   2.055  53.747  1.00  0.00     0.019 C 
HETATM    2  C2  UNL     1      28.006   0.888  53.534  1.00  0.00    -0.066 C 
HETATM    3  C3  UNL     1      28.361  -0.495  53.299  1.00  0.00     0.083 C 
HETATM    4 CL1  UNL     1      30.105  -0.701  53.349  1.00  0.00    -0.075 Cl
HETATM    5  C4  UNL     1      27.422  -1.444  53.079  1.00  0.00     0.014 C 
ENDROOT
BRANCH   5   6
HETATM    6  C5  UNL     1      26.319  -0.500  53.197  1.00  0.00     0.095 C 
HETATM    7  C6  UNL     1      25.066  -0.584  53.610  1.00  0.00     0.072 C 
BRANCH   7   8
HETATM    8  N1  UNL     1      24.742   0.793  53.379  1.00  0.00    -0.373 N 
HETATM    9  H5  UNL     1      25.214   1.524  53.986  1.00  0.00     0.161 HD
BRANCH   8  10
HETATM   10  C7  UNL     1      23.801   1.064  52.332  1.00  0.00     0.137 A 
HETATM   11  N2  UNL     1      22.634   0.401  52.373  1.00  0.00    -0.224 NA
HETATM   12  C8  UNL     1      21.692   0.612  51.406  1.00  0.00     0.235 A 
HETATM   13  N3  UNL     1      21.898   1.476  50.396  1.00  0.00    -0.241 NA
HETATM   14  C9  UNL     1      23.053   2.164  50.313  1.00  0.00     0.072 A 
HETATM   15  C10 UNL     1      23.293   3.059  49.289  1.00  0.00     0.035 A 
HETATM   16  C14 UNL     1      23.991   1.943  51.291  1.00  0.00     0.041 A 
HETATM   17  C11 UNL     1      24.482   3.775  49.192  1.00  0.00     0.034 A 
HETATM   18  C12 UNL     1      25.389   3.512  50.203  1.00  0.00     0.060 A 
HETATM   19  C13 UNL     1      25.159   2.623  51.229  1.00  0.00     0.049 A 
BRANCH  18  20
HETATM   20  N4  UNL     1      26.628   4.224  50.149  1.00  0.00    -0.225 N 
HETATM   21  F1  UNL     1      27.402   4.131  49.047  1.00  0.00    -0.101 F 
HETATM   22  H9  UNL     1      26.937   4.822  50.967  1.00  0.00     0.199 HD
ENDBRANCH  18  20
ENDBRANCH   8  10
ENDBRANCH   7   8
ENDBRANCH   5   6
TORSDOF 4
ENDMDL
MODEL 4
REMARK VINA RESULT:      -7.0      2.563      3.511
REMARK  4 active torsions:
REMARK  status: ('A' for Active; 'I' for Inactive)
REMARK    1  A    between atoms: C4_5  and  C5_6 
REMARK    2  A    between atoms: C6_7  and  N1_8 
REMARK    3  A    between atoms: N1_8  and  C7_9 
REMARK    4  A    between atoms: C12_16  and  N4_17 
ROOT
HETATM    1  C1  UNL     1      26.582   1.899  51.123  1.00  0.00     0.019 C 
HETATM    2  C2  UNL     1      26.302   2.816  50.363  1.00  0.00    -0.066 C 
HETATM    3  C3  UNL     1      25.975   3.890  49.450  1.00  0.00     0.083 C 
HETATM    4 CL1  UNL     1      27.436   4.682  48.882  1.00  0.00    -0.075 Cl
HETATM    5  C4  UNL     1      24.695   4.185  49.126  1.00  0.00     0.014 C 
ENDROOT
BRANCH   5   6
HETATM    6  C5  UNL     1      24.150   3.130  49.969  1.00  0.00     0.095 C 
HETATM    7  C6  UNL     1      22.930   2.710  50.257  1.00  0.00     0.072 C 
BRANCH   7   8
HETATM    8  N1  UNL     1      23.341   1.659  51.142  1.00  0.00    -0.373 N 
HETATM    9  H5  UNL     1      24.367   1.396  51.159  1.00  0.00     0.161 HD
BRANCH   8  10
HETATM   10  C7  UNL     1      22.313   1.054  51.939  1.00  0.00     0.137 A 
HETATM   11  N2  UNL     1      21.042   1.281  51.571  1.00  0.00    -0.224 NA
HETATM   12  C8  UNL     1      20.014   0.734  52.286  1.00  0.00     0.235 A 
HETATM   13  N3  UNL     1      20.236  -0.037  53.366  1.00  0.00    -0.241 NA
HETATM   14  C9  UNL     1      21.495  -0.292  53.773  1.00  0.00     0.072 A 
HETATM   15  C10 UNL     1      21.755  -1.079  54.877  1.00  0.00     0.035 A 
HETATM   16  C14 UNL     1      22.519   0.264  53.046  1.00  0.00     0.041 A 
HETATM   17  C11 UNL     1      23.051  -1.350  55.308  1.00  0.00     0.034 A 
HETATM   18  C12 UNL     1      24.040  -0.765  54.538  1.00  0.00     0.060 A 
HETATM   19  C13 UNL     1      23.792   0.021  53.435  1.00  0.00     0.049 A 
BRANCH  18  20
HETATM   20  N4  UNL     1      25.390  -1.013  54.939  1.00  0.00    -0.225 N 
HETATM   21  F1  UNL     1      26.328  -0.061  54.746  1.00  0.00    -0.101 F 
HETATM   22  H9  UNL     1      25.654  -1.938  55.386  1.00  0.00     0.199 HD
ENDBRANCH  18  20
ENDBRANCH   8  10
ENDBRANCH   7   8
ENDBRANCH   5   6
TORSDOF 4
ENDMDL
MODEL 5
REMARK VINA RESULT:      -7.0      4.073      5.823
REMARK  4 active torsions:
REMARK  status: ('A' for Active; 'I' for Inactive)
REMARK    1  A    between atoms: C4_5  and  C5_6 
REMARK    2  A    between atoms: C6_7  and  N1_8 
REMARK    3  A    between atoms: N1_8  and  C7_9 
REMARK    4  A    between atoms: C12_16  and  N4_17 
ROOT
HETATM    1  C1  UNL     1      24.930   6.514  50.521  1.00  0.00     0.019 C 
HETATM    2  C2  UNL     1      25.788   6.349  49.665  1.00  0.00    -0.066 C 
HETATM    3  C3  UNL     1      26.816   6.163  48.663  1.00  0.00     0.083 C 
HETATM    4 CL1  UNL     1      27.026   7.629  47.717  1.00  0.00    -0.075 Cl
HETATM    5  C4  UNL     1      27.480   4.992  48.532  1.00  0.00     0.014 C 
ENDROOT
BRANCH   5   6
HETATM    6  C5  UNL     1      26.750   4.359  49.622  1.00  0.00     0.095 C 
HETATM    7  C6  UNL     1      26.372   3.121  49.889  1.00  0.00     0.072 C 
BRANCH   7   8
HETATM    8  N1  UNL     1      25.728   3.428  51.132  1.00  0.00    -0.373 N 
HETATM    9  H5  UNL     1      25.561   4.449  51.367  1.00  0.00     0.161 HD
BRANCH   8  10
HETATM   10  C7  UNL     1      25.355   2.313  51.953  1.00  0.00     0.137 A 
HETATM   11  N2  UNL     1      24.092   1.871  51.846  1.00  0.00    -0.224 NA
HETATM   12  C8  UNL     1      23.670   0.812  52.599  1.00  0.00     0.235 A 
HETATM   13  N3  UNL     1      24.493   0.186  53.461  1.00  0.00    -0.241 NA
HETATM   14  C9  UNL     1      25.768   0.595  53.603  1.00  0.00     0.072 A 
HETATM   15  C10 UNL     1      26.636  -0.027  54.479  1.00  0.00     0.035 A 
HETATM   16  C14 UNL     1      26.179   1.660  52.840  1.00  0.00     0.041 A 
HETATM   17  C11 UNL     1      27.956   0.386  54.635  1.00  0.00     0.034 A 
HETATM   18  C12 UNL     1      28.314   1.462  53.842  1.00  0.00     0.060 A 
HETATM   19  C13 UNL     1      27.457   2.088  52.965  1.00  0.00     0.049 A 
BRANCH  18  20
HETATM   20  N4  UNL     1      29.661   1.924  53.965  1.00  0.00    -0.225 N 
HETATM   21  F1  UNL     1      30.072   2.476  55.126  1.00  0.00    -0.101 F 
HETATM   22  H9  UNL     1      30.334   1.834  53.151  1.00  0.00     0.199 HD
ENDBRANCH  18  20
ENDBRANCH   8  10
ENDBRANCH   7   8
ENDBRANCH   5   6
TORSDOF 4
ENDMDL
MODEL 6
REMARK VINA RESULT:      -6.9      3.236      4.850
REMARK  4 active torsions:
REMARK  status: ('A' for Active; 'I' for Inactive)
REMARK    1  A    between atoms: C4_5  and  C5_6 
REMARK    2  A    between atoms: C6_7  and  N1_8 
REMARK    3  A    between atoms: N1_8  and  C7_9 
REMARK    4  A    between atoms: C12_16  and  N4_17 
ROOT
HETATM    1  C1  UNL     1      22.840   2.068  50.171  1.00  0.00     0.019 C 
HETATM    2  C2  UNL     1      23.537   2.984  49.759  1.00  0.00    -0.066 C 
HETATM    3  C3  UNL     1      24.354   4.081  49.284  1.00  0.00     0.083 C 
HETATM    4 CL1  UNL     1      23.416   5.144  48.246  1.00  0.00    -0.075 Cl
HETATM    5  C4  UNL     1      25.655   4.204  49.634  1.00  0.00     0.014 C 
ENDROOT
BRANCH   5   6
HETATM    6  C5  UNL     1      25.636   2.998  50.451  1.00  0.00     0.095 C 
HETATM    7  C6  UNL     1      26.501   2.413  51.262  1.00  0.00     0.072 C 
BRANCH   7   8
HETATM    8  N1  UNL     1      25.652   1.313  51.614  1.00  0.00    -0.373 N 
HETATM    9  H5  UNL     1      24.894   1.029  50.929  1.00  0.00     0.161 HD
BRANCH   8  10
HETATM   10  C7  UNL     1      25.912   0.681  52.875  1.00  0.00     0.137 A 
HETATM   11  N2  UNL     1      27.169   0.744  53.342  1.00  0.00    -0.224 NA
HETATM   12  C8  UNL     1      27.485   0.164  54.538  1.00  0.00     0.235 A 
HETATM   13  N3  UNL     1      26.564  -0.481  55.277  1.00  0.00    -0.241 NA
HETATM   14  C9  UNL     1      25.290  -0.569  54.849  1.00  0.00     0.072 A 
HETATM   15  C10 UNL     1      24.321  -1.223  55.584  1.00  0.00     0.035 A 
HETATM   16  C14 UNL     1      24.985   0.018  53.645  1.00  0.00     0.041 A 
HETATM   17  C11 UNL     1      23.001  -1.322  55.153  1.00  0.00     0.034 A 
HETATM   18  C12 UNL     1      22.753  -0.713  53.936  1.00  0.00     0.060 A 
HETATM   19  C13 UNL     1      23.711  -0.058  53.195  1.00  0.00     0.049 A 
BRANCH  18  20
HETATM   20  N4  UNL     1      21.411  -0.786  53.449  1.00  0.00    -0.225 N 
HETATM   21  F1  UNL     1      20.532  -1.623  54.041  1.00  0.00    -0.101 F 
HETATM   22  H9  UNL     1      21.106  -0.188  52.629  1.00  0.00     0.199 HD
ENDBRANCH  18  20
ENDBRANCH   8  10
ENDBRANCH   7   8
ENDBRANCH   5   6
TORSDOF 4
ENDMDL
MODEL 7
REMARK VINA RESULT:      -6.9      2.724      4.019
REMARK  4 active torsions:
REMARK  status: ('A' for Active; 'I' for Inactive)
REMARK    1  A    between atoms: C4_5  and  C5_6 
REMARK    2  A    between atoms: C6_7  and  N1_8 
REMARK    3  A    between atoms: N1_8  and  C7_9 
REMARK    4  A    between atoms: C12_16  and  N4_17 
ROOT
HETATM    1  C1  UNL     1      27.735   2.114  53.293  1.00  0.00     0.019 C 
HETATM    2  C2  UNL     1      28.018   0.925  53.257  1.00  0.00    -0.066 C 
HETATM    3  C3  UNL     1      28.355  -0.483  53.232  1.00  0.00     0.083 C 
HETATM    4 CL1  UNL     1      30.084  -0.706  53.446  1.00  0.00    -0.075 Cl
HETATM    5  C4  UNL     1      27.412  -1.438  53.062  1.00  0.00     0.014 C 
ENDROOT
BRANCH   5   6
HETATM    6  C5  UNL     1      26.328  -0.470  52.969  1.00  0.00     0.095 C 
HETATM    7  C6  UNL     1      25.045  -0.481  53.286  1.00  0.00     0.072 C 
BRANCH   7   8
HETATM    8  N1  UNL     1      24.775   0.860  52.857  1.00  0.00    -0.373 N 
HETATM    9  H5  UNL     1      25.587   1.540  52.807  1.00  0.00     0.161 HD
BRANCH   8  10
HETATM   10  C7  UNL     1      23.413   1.164  52.524  1.00  0.00     0.137 A 
HETATM   11  N2  UNL     1      22.582   0.126  52.344  1.00  0.00    -0.224 NA
HETATM   12  C8  UNL     1      21.271   0.345  52.025  1.00  0.00     0.235 A 
HETATM   13  N3  UNL     1      20.777   1.588  51.882  1.00  0.00    -0.241 NA
HETATM   14  C9  UNL     1      21.574   2.661  52.052  1.00  0.00     0.072 A 
HETATM   15  C10 UNL     1      21.096   3.949  51.912  1.00  0.00     0.035 A 
HETATM   16  C14 UNL     1      22.889   2.427  52.372  1.00  0.00     0.041 A 
HETATM   17  C11 UNL     1      21.909   5.065  52.085  1.00  0.00     0.034 A 
HETATM   18  C12 UNL     1      23.222   4.770  52.406  1.00  0.00     0.060 A 
HETATM   19  C13 UNL     1      23.708   3.489  52.549  1.00  0.00     0.049 A 
BRANCH  18  20
HETATM   20  N4  UNL     1      24.098   5.884  52.595  1.00  0.00    -0.225 N 
HETATM   21  F1  UNL     1      24.367   6.703  51.556  1.00  0.00    -0.101 F 
HETATM   22  H9  UNL     1      24.534   6.067  53.543  1.00  0.00     0.199 HD
ENDBRANCH  18  20
ENDBRANCH   8  10
ENDBRANCH   7   8
ENDBRANCH   5   6
TORSDOF 4
ENDMDL
MODEL 8
REMARK VINA RESULT:      -6.8      3.713      4.721
REMARK  4 active torsions:
REMARK  status: ('A' for Active; 'I' for Inactive)
REMARK    1  A    between atoms: C4_5  and  C5_6 
REMARK    2  A    between atoms: C6_7  and  N1_8 
REMARK    3  A    between atoms: N1_8  and  C7_9 
REMARK    4  A    between atoms: C12_16  and  N4_17 
ROOT
HETATM    1  C1  UNL     1      24.706   6.059  50.519  1.00  0.00     0.019 C 
HETATM    2  C2  UNL     1      25.605   5.970  49.695  1.00  0.00    -0.066 C 
HETATM    3  C3  UNL     1      26.680   5.877  48.730  1.00  0.00     0.083 C 
HETATM    4 CL1  UNL     1      26.742   7.323  47.735  1.00  0.00    -0.075 Cl
HETATM    5  C4  UNL     1      27.486   4.792  48.663  1.00  0.00     0.014 C 
ENDROOT
BRANCH   5   6
HETATM    6  C5  UNL     1      26.802   4.113  49.756  1.00  0.00     0.095 C 
HETATM    7  C6  UNL     1      26.526   2.851  50.036  1.00  0.00     0.072 C 
BRANCH   7   8
HETATM    8  N1  UNL     1      25.849   3.118  51.271  1.00  0.00    -0.373 N 
HETATM    9  H5  UNL     1      26.196   3.925  51.864  1.00  0.00     0.161 HD
BRANCH   8  10
HETATM   10  C7  UNL     1      24.745   2.262  51.595  1.00  0.00     0.137 A 
HETATM   11  N2  UNL     1      23.605   2.449  50.911  1.00  0.00    -0.224 NA
HETATM   12  C8  UNL     1      22.515   1.668  51.169  1.00  0.00     0.235 A 
HETATM   13  N3  UNL     1      22.544   0.699  52.103  1.00  0.00    -0.241 NA
HETATM   14  C9  UNL     1      23.666   0.475  52.815  1.00  0.00     0.072 A 
HETATM   15  C10 UNL     1      23.727  -0.512  53.779  1.00  0.00     0.035 A 
HETATM   16  C14 UNL     1      24.755   1.267  52.546  1.00  0.00     0.041 A 
HETATM   17  C11 UNL     1      24.880  -0.754  54.521  1.00  0.00     0.034 A 
HETATM   18  C12 UNL     1      25.943   0.073  54.207  1.00  0.00     0.060 A 
HETATM   19  C13 UNL     1      25.892   1.059  53.247  1.00  0.00     0.049 A 
BRANCH  18  20
HETATM   20  N4  UNL     1      27.152  -0.135  54.942  1.00  0.00    -0.225 N 
HETATM   21  F1  UNL     1      28.342   0.048  54.333  1.00  0.00    -0.101 F 
HETATM   22  H9  UNL     1      27.115  -0.432  55.959  1.00  0.00     0.199 HD
ENDBRANCH  18  20
ENDBRANCH   8  10
ENDBRANCH   7   8
ENDBRANCH   5   6
TORSDOF 4
ENDMDL
MODEL 9
REMARK VINA RESULT:      -6.7      3.282      4.765
REMARK  4 active torsions:
REMARK  status: ('A' for Active; 'I' for Inactive)
REMARK    1  A    between atoms: C4_5  and  C5_6 
REMARK    2  A    between atoms: C6_7  and  N1_8 
REMARK    3  A    between atoms: N1_8  and  C7_9 
REMARK    4  A    between atoms: C12_16  and  N4_17 
ROOT
HETATM    1  C1  UNL     1      23.547   4.421  50.821  1.00  0.00     0.019 C 
HETATM    2  C2  UNL     1      24.556   4.592  50.152  1.00  0.00    -0.066 C 
HETATM    3  C3  UNL     1      25.757   4.807  49.372  1.00  0.00     0.083 C 
HETATM    4 CL1  UNL     1      25.626   6.288  48.436  1.00  0.00    -0.075 Cl
HETATM    5  C4  UNL     1      26.796   3.941  49.410  1.00  0.00     0.014 C 
ENDROOT
BRANCH   5   6
HETATM    6  C5  UNL     1      26.134   3.057  50.360  1.00  0.00     0.095 C 
HETATM    7  C6  UNL     1      26.521   2.032  51.098  1.00  0.00     0.072 C 
BRANCH   7   8
HETATM    8  N1  UNL     1      25.243   1.793  51.702  1.00  0.00    -0.373 N 
HETATM    9  H5  UNL     1      24.398   2.282  51.289  1.00  0.00     0.161 HD
BRANCH   8  10
HETATM   10  C7  UNL     1      25.220   0.897  52.822  1.00  0.00     0.137 A 
HETATM   11  N2  UNL     1      26.387   0.671  53.447  1.00  0.00    -0.224 NA
HETATM   12  C8  UNL     1      26.436  -0.171  54.521  1.00  0.00     0.235 A 
HETATM   13  N3  UNL     1      25.336  -0.794  54.983  1.00  0.00    -0.241 NA
HETATM   14  C9  UNL     1      24.144  -0.598  54.388  1.00  0.00     0.072 A 
HETATM   15  C10 UNL     1      22.997  -1.221  54.839  1.00  0.00     0.035 A 
HETATM   16  C14 UNL     1      24.107   0.251  53.309  1.00  0.00     0.041 A 
HETATM   17  C11 UNL     1      21.759  -1.028  54.232  1.00  0.00     0.034 A 
HETATM   18  C12 UNL     1      21.783  -0.164  53.152  1.00  0.00     0.060 A 
HETATM   19  C13 UNL     1      22.921   0.464  52.695  1.00  0.00     0.049 A 
BRANCH  18  20
HETATM   20  N4  UNL     1      20.535   0.069  52.495  1.00  0.00    -0.225 N 
HETATM   21  F1  UNL     1      20.429  -0.157  51.168  1.00  0.00    -0.101 F 
HETATM   22  H9  UNL     1      19.698   0.417  53.044  1.00  0.00     0.199 HD
ENDBRANCH  18  20
ENDBRANCH   8  10
ENDBRANCH   7   8
ENDBRANCH   5   6
TORSDOF 4
ENDMDL
