MODEL 1
REMARK VINA RESULT:      -8.9      0.000      0.000
REMARK  5 active torsions:
REMARK  status: ('A' for Active; 'I' for Inactive)
REMARK    1  A    between atoms: N1_2  and  C3_4 
REMARK    2  A    between atoms: C3_4  and  C4_5 
REMARK    3  A    between atoms: C5_6  and  C6_7 
REMARK       I    between atoms: C6_7  and  N2_9 
REMARK    4  A    between atoms: N2_9  and  C7_10 
REMARK    5  A    between atoms: C10_13  and  N3_14 
ROOT
HETATM    1  C7  UNL     1      26.259   3.816  49.691  1.00  0.00     0.131 A 
HETATM    2  C8  UNL     1      26.496   2.953  50.770  1.00  0.00     0.066 A 
HETATM    3  C9  UNL     1      25.368   2.304  51.256  1.00  0.00     0.026 A 
HETATM    4  C10 UNL     1      25.608   1.436  52.318  1.00  0.00     0.073 A 
HETATM    5  C16 UNL     1      24.476   0.781  52.781  1.00  0.00     0.090 A 
HETATM    6  C17 UNL     1      24.583  -0.158  53.880  1.00  0.00     0.103 C 
HETATM    7  N4  UNL     1      24.675  -0.900  54.778  1.00  0.00    -0.191 NA
HETATM    8  C18 UNL     1      23.222   0.972  52.241  1.00  0.00     0.142 A 
HETATM    9  N5  UNL     1      23.040   1.815  51.222  1.00  0.00    -0.257 NA
HETATM   10  C19 UNL     1      24.105   2.475  50.734  1.00  0.00     0.086 A 
HETATM   11  C20 UNL     1      23.919   3.342  49.664  1.00  0.00     0.151 A 
HETATM   12  N6  UNL     1      25.019   3.957  49.214  1.00  0.00    -0.241 NA
ENDROOT
BRANCH   4  13
HETATM   13  N3  UNL     1      26.862   1.195  52.946  1.00  0.00    -0.330 N 
HETATM   14  C11 UNL     1      27.673   2.124  53.653  1.00  0.00     0.093 A 
HETATM   15  C12 UNL     1      28.818   1.724  54.144  1.00  0.00    -0.004 A 
HETATM   16  C13 UNL     1      29.363   0.361  54.026  1.00  0.00     0.076 A 
HETATM   17  C14 UNL     1      28.486  -0.578  53.283  1.00  0.00     0.008 A 
HETATM   18 BR1  UNL     1      29.205  -2.335  53.144  1.00  0.00    -0.054 Br
HETATM   19  C15 UNL     1      27.312  -0.142  52.789  1.00  0.00     0.111 A 
ENDBRANCH   4  13
BRANCH   1  20
HETATM   20  N2  UNL     1      27.261   4.567  49.034  1.00  0.00    -0.308 N 
HETATM   21  C6  UNL     1      27.524   5.892  48.598  1.00  0.00     0.246 C 
HETATM   22  O1  UNL     1      26.519   6.557  48.919  1.00  0.00    -0.268 OA
HETATM   23  H11 UNL     1      27.938   3.747  48.907  1.00  0.00     0.170 HD
BRANCH  21  24
HETATM   24  C5  UNL     1      28.813   6.017  47.955  1.00  0.00     0.072 C 
HETATM   25  C4  UNL     1      30.020   5.642  48.213  1.00  0.00     0.008 C 
BRANCH  25  26
HETATM   26  C3  UNL     1      31.354   5.718  47.645  1.00  0.00     0.299 C 
BRANCH  26  27
HETATM   27  N1  UNL     1      32.387   4.955  48.270  1.00  0.00     0.083 N 
HETATM   28  C1  UNL     1      33.611   5.728  48.443  1.00  0.00     0.309 C 
HETATM   29  C2  UNL     1      32.696   3.694  47.639  1.00  0.00     0.309 C 
ENDBRANCH  26  27
ENDBRANCH  25  26
ENDBRANCH  21  24
ENDBRANCH   1  20
TORSDOF 5
ENDMDL
MODEL 2
REMARK VINA RESULT:      -8.6      2.691      4.752
REMARK  5 active torsions:
REMARK  status: ('A' for Active; 'I' for Inactive)
REMARK    1  A    between atoms: N1_2  and  C3_4 
REMARK    2  A    between atoms: C3_4  and  C4_5 
REMARK    3  A    between atoms: C5_6  and  C6_7 
REMARK       I    between atoms: C6_7  and  N2_9 
REMARK    4  A    between atoms: N2_9  and  C7_10 
REMARK    5  A    between atoms: C10_13  and  N3_14 
ROOT
HETATM    1  C7  UNL     1      26.543   2.425  51.661  1.00  0.00     0.131 A 
HETATM    2  C8  UNL     1      25.277   1.879  51.915  1.00  0.00     0.066 A 
HETATM    3  C9  UNL     1      25.239   0.945  52.943  1.00  0.00     0.026 A 
HETATM    4  C10 UNL     1      23.978   0.416  53.203  1.00  0.00     0.073 A 
HETATM    5  C16 UNL     1      23.953  -0.502  54.243  1.00  0.00     0.090 A 
HETATM    6  C17 UNL     1      22.702  -1.126  54.624  1.00  0.00     0.103 C 
HETATM    7  N4  UNL     1      21.692  -1.639  54.915  1.00  0.00    -0.191 NA
HETATM    8  C18 UNL     1      25.076  -0.861  54.957  1.00  0.00     0.142 A 
HETATM    9  N5  UNL     1      26.265  -0.326  54.671  1.00  0.00    -0.257 NA
HETATM   10  C19 UNL     1      26.345   0.569  53.673  1.00  0.00     0.086 A 
HETATM   11  C20 UNL     1      27.581   1.138  53.384  1.00  0.00     0.151 A 
HETATM   12  N6  UNL     1      27.592   2.033  52.390  1.00  0.00    -0.241 NA
ENDROOT
BRANCH   4  13
HETATM   13  N3  UNL     1      22.775   0.716  52.504  1.00  0.00    -0.330 N 
HETATM   14  C11 UNL     1      21.911  -0.190  51.832  1.00  0.00     0.093 A 
HETATM   15  C12 UNL     1      20.855   0.277  51.216  1.00  0.00    -0.004 A 
HETATM   16  C13 UNL     1      20.468   1.697  51.150  1.00  0.00     0.076 A 
HETATM   17  C14 UNL     1      21.394   2.608  51.866  1.00  0.00     0.008 A 
HETATM   18 BR1  UNL     1      20.876   4.438  51.773  1.00  0.00    -0.054 Br
HETATM   19  C15 UNL     1      22.473   2.103  52.492  1.00  0.00     0.111 A 
ENDBRANCH   4  13
BRANCH   1  20
HETATM   20  N2  UNL     1      26.809   3.399  50.672  1.00  0.00    -0.308 N 
HETATM   21  C6  UNL     1      26.245   3.932  49.483  1.00  0.00     0.246 C 
HETATM   22  O1  UNL     1      25.184   3.300  49.303  1.00  0.00    -0.268 OA
HETATM   23  H11 UNL     1      27.731   3.733  51.101  1.00  0.00     0.170 HD
BRANCH  21  24
HETATM   24  C5  UNL     1      27.056   4.980  48.907  1.00  0.00     0.072 C 
HETATM   25  C4  UNL     1      28.279   5.097  48.510  1.00  0.00     0.008 C 
BRANCH  25  26
HETATM   26  C3  UNL     1      29.170   6.086  47.931  1.00  0.00     0.299 C 
BRANCH  26  27
HETATM   27  N1  UNL     1      30.542   6.056  48.327  1.00  0.00     0.083 N 
HETATM   28  C1  UNL     1      31.166   7.371  48.242  1.00  0.00     0.309 C 
HETATM   29  C2  UNL     1      31.365   5.086  47.646  1.00  0.00     0.309 C 
ENDBRANCH  26  27
ENDBRANCH  25  26
ENDBRANCH  21  24
ENDBRANCH   1  20
TORSDOF 5
ENDMDL
MODEL 3
REMARK VINA RESULT:      -8.4      3.209      5.119
REMARK  5 active torsions:
REMARK  status: ('A' for Active; 'I' for Inactive)
REMARK    1  A    between atoms: N1_2  and  C3_4 
REMARK    2  A    between atoms: C3_4  and  C4_5 
REMARK    3  A    between atoms: C5_6  and  C6_7 
REMARK       I    between atoms: C6_7  and  N2_9 
REMARK    4  A    between atoms: N2_9  and  C7_10 
REMARK    5  A    between atoms: C10_13  and  N3_14 
ROOT
HETATM    1  C7  UNL     1      26.491   2.444  51.578  1.00  0.00     0.131 A 
HETATM    2  C8  UNL     1      25.204   1.997  51.906  1.00  0.00     0.066 A 
HETATM    3  C9  UNL     1      25.163   0.987  52.860  1.00  0.00     0.026 A 
HETATM    4  C10 UNL     1      23.882   0.556  53.195  1.00  0.00     0.073 A 
HETATM    5  C16 UNL     1      23.855  -0.440  54.162  1.00  0.00     0.090 A 
HETATM    6  C17 UNL     1      22.586  -0.977  54.610  1.00  0.00     0.103 C 
HETATM    7  N4  UNL     1      21.560  -1.418  54.953  1.00  0.00    -0.191 NA
HETATM    8  C18 UNL     1      24.994  -0.958  54.740  1.00  0.00     0.142 A 
HETATM    9  N5  UNL     1      26.202  -0.512  54.386  1.00  0.00    -0.257 NA
HETATM   10  C19 UNL     1      26.284   0.453  53.454  1.00  0.00     0.086 A 
HETATM   11  C20 UNL     1      27.541   0.929  53.096  1.00  0.00     0.151 A 
HETATM   12  N6  UNL     1      27.555   1.899  52.175  1.00  0.00    -0.241 NA
ENDROOT
BRANCH   4  13
HETATM   13  N3  UNL     1      22.659   1.021  52.635  1.00  0.00    -0.330 N 
HETATM   14  C11 UNL     1      21.517   1.510  53.326  1.00  0.00     0.093 A 
HETATM   15  C12 UNL     1      20.464   1.871  52.637  1.00  0.00    -0.004 A 
HETATM   16  C13 UNL     1      20.348   1.814  51.170  1.00  0.00     0.076 A 
HETATM   17  C14 UNL     1      21.561   1.299  50.488  1.00  0.00     0.008 A 
HETATM   18 BR1  UNL     1      21.394   1.235  48.593  1.00  0.00    -0.054 Br
HETATM   19  C15 UNL     1      22.632   0.935  51.219  1.00  0.00     0.111 A 
ENDBRANCH   4  13
BRANCH   1  20
HETATM   20  N2  UNL     1      26.767   3.469  50.644  1.00  0.00    -0.308 N 
HETATM   21  C6  UNL     1      26.200   4.082  49.496  1.00  0.00     0.246 C 
HETATM   22  O1  UNL     1      25.125   3.484  49.292  1.00  0.00    -0.268 OA
HETATM   23  H11 UNL     1      27.701   3.758  51.080  1.00  0.00     0.170 HD
BRANCH  21  24
HETATM   24  C5  UNL     1      27.027   5.146  48.972  1.00  0.00     0.072 C 
HETATM   25  C4  UNL     1      26.872   6.399  48.708  1.00  0.00     0.008 C 
BRANCH  25  26
HETATM   26  C3  UNL     1      27.623   7.528  48.189  1.00  0.00     0.299 C 
BRANCH  26  27
HETATM   27  N1  UNL     1      27.628   8.732  48.959  1.00  0.00     0.083 N 
HETATM   28  C1  UNL     1      28.978   9.135  49.336  1.00  0.00     0.309 C 
HETATM   29  C2  UNL     1      26.781   8.727  50.127  1.00  0.00     0.309 C 
ENDBRANCH  26  27
ENDBRANCH  25  26
ENDBRANCH  21  24
ENDBRANCH   1  20
TORSDOF 5
ENDMDL
MODEL 4
REMARK VINA RESULT:      -8.3      3.047      5.125
REMARK  5 active torsions:
REMARK  status: ('A' for Active; 'I' for Inactive)
REMARK    1  A    between atoms: N1_2  and  C3_4 
REMARK    2  A    between atoms: C3_4  and  C4_5 
REMARK    3  A    between atoms: C5_6  and  C6_7 
REMARK       I    between atoms: C6_7  and  N2_9 
REMARK    4  A    between atoms: N2_9  and  C7_10 
REMARK    5  A    between atoms: C10_13  and  N3_14 
ROOT
HETATM    1  C7  UNL     1      26.337   3.206  50.542  1.00  0.00     0.131 A 
HETATM    2  C8  UNL     1      24.984   2.859  50.417  1.00  0.00     0.066 A 
HETATM    3  C9  UNL     1      24.524   1.954  51.366  1.00  0.00     0.026 A 
HETATM    4  C10 UNL     1      23.177   1.623  51.249  1.00  0.00     0.073 A 
HETATM    5  C16 UNL     1      22.728   0.732  52.213  1.00  0.00     0.090 A 
HETATM    6  C17 UNL     1      21.342   0.306  52.213  1.00  0.00     0.103 C 
HETATM    7  N4  UNL     1      20.228  -0.046  52.196  1.00  0.00    -0.191 NA
HETATM    8  C18 UNL     1      23.541   0.217  53.200  1.00  0.00     0.142 A 
HETATM    9  N5  UNL     1      24.828   0.565  53.272  1.00  0.00    -0.257 NA
HETATM   10  C19 UNL     1      25.315   1.426  52.363  1.00  0.00     0.086 A 
HETATM   11  C20 UNL     1      26.651   1.800  52.446  1.00  0.00     0.151 A 
HETATM   12  N6  UNL     1      27.071   2.671  51.521  1.00  0.00    -0.241 NA
ENDROOT
BRANCH   4  13
HETATM   13  N3  UNL     1      22.274   2.090  50.252  1.00  0.00    -0.330 N 
HETATM   14  C11 UNL     1      21.881   1.430  49.057  1.00  0.00     0.093 A 
HETATM   15  C12 UNL     1      21.054   2.033  48.241  1.00  0.00    -0.004 A 
HETATM   16  C13 UNL     1      20.479   3.373  48.450  1.00  0.00     0.076 A 
HETATM   17  C14 UNL     1      20.914   4.026  49.709  1.00  0.00     0.008 A 
HETATM   18 BR1  UNL     1      20.158   5.755  49.964  1.00  0.00    -0.054 Br
HETATM   19  C15 UNL     1      21.764   3.384  50.533  1.00  0.00     0.111 A 
ENDBRANCH   4  13
BRANCH   1  20
HETATM   20  N2  UNL     1      27.009   4.117  49.695  1.00  0.00    -0.308 N 
HETATM   21  C6  UNL     1      26.755   5.278  48.919  1.00  0.00     0.246 C 
HETATM   22  O1  UNL     1      25.541   5.522  49.065  1.00  0.00    -0.268 OA
HETATM   23  H11 UNL     1      27.968   3.649  49.780  1.00  0.00     0.170 HD
BRANCH  21  24
HETATM   24  C5  UNL     1      27.940   5.765  48.247  1.00  0.00     0.072 C 
HETATM   25  C4  UNL     1      29.212   5.582  48.360  1.00  0.00     0.008 C 
BRANCH  25  26
HETATM   26  C3  UNL     1      30.456   6.016  47.749  1.00  0.00     0.299 C 
BRANCH  26  27
HETATM   27  N1  UNL     1      31.349   6.798  48.543  1.00  0.00     0.083 N 
HETATM   28  C1  UNL     1      31.902   6.035  49.657  1.00  0.00     0.309 C 
HETATM   29  C2  UNL     1      30.816   8.047  49.030  1.00  0.00     0.309 C 
ENDBRANCH  26  27
ENDBRANCH  25  26
ENDBRANCH  21  24
ENDBRANCH   1  20
TORSDOF 5
ENDMDL
MODEL 5
REMARK VINA RESULT:      -8.2      5.463     10.684
REMARK  5 active torsions:
REMARK  status: ('A' for Active; 'I' for Inactive)
REMARK    1  A    between atoms: N1_2  and  C3_4 
REMARK    2  A    between atoms: C3_4  and  C4_5 
REMARK    3  A    between atoms: C5_6  and  C6_7 
REMARK       I    between atoms: C6_7  and  N2_9 
REMARK    4  A    between atoms: N2_9  and  C7_10 
REMARK    5  A    between atoms: C10_13  and  N3_14 
ROOT
HETATM    1  C7  UNL     1      20.305  -0.629  53.657  1.00  0.00     0.131 A 
HETATM    2  C8  UNL     1      21.176   0.297  53.065  1.00  0.00     0.066 A 
HETATM    3  C9  UNL     1      22.514   0.140  53.404  1.00  0.00     0.026 A 
HETATM    4  C10 UNL     1      23.378   1.051  52.802  1.00  0.00     0.073 A 
HETATM    5  C16 UNL     1      24.712   0.870  53.137  1.00  0.00     0.090 A 
HETATM    6  C17 UNL     1      25.722   1.746  52.576  1.00  0.00     0.103 C 
HETATM    7  N4  UNL     1      26.528   2.468  52.133  1.00  0.00    -0.191 NA
HETATM    8  C18 UNL     1      25.148  -0.122  53.989  1.00  0.00     0.142 A 
HETATM    9  N5  UNL     1      24.281  -0.973  54.542  1.00  0.00    -0.257 NA
HETATM   10  C19 UNL     1      22.975  -0.843  54.251  1.00  0.00     0.086 A 
HETATM   11  C20 UNL     1      22.074  -1.739  54.815  1.00  0.00     0.151 A 
HETATM   12  N6  UNL     1      20.792  -1.567  54.475  1.00  0.00    -0.241 NA
ENDROOT
BRANCH   4  13
HETATM   13  N3  UNL     1      23.012   2.114  51.929  1.00  0.00    -0.330 N 
HETATM   14  C11 UNL     1      22.729   3.463  52.273  1.00  0.00     0.093 A 
HETATM   15  C12 UNL     1      22.379   4.299  51.329  1.00  0.00    -0.004 A 
HETATM   16  C13 UNL     1      22.246   3.962  49.901  1.00  0.00     0.076 A 
HETATM   17  C14 UNL     1      22.551   2.545  49.585  1.00  0.00     0.008 A 
HETATM   18 BR1  UNL     1      22.377   2.128  47.736  1.00  0.00    -0.054 Br
HETATM   19  C15 UNL     1      22.910   1.704  50.574  1.00  0.00     0.111 A 
ENDBRANCH   4  13
BRANCH   1  20
HETATM   20  N2  UNL     1      18.908  -0.662  53.442  1.00  0.00    -0.308 N 
HETATM   21  C6  UNL     1      17.963  -0.578  52.387  1.00  0.00     0.246 C 
HETATM   22  O1  UNL     1      18.633  -0.423  51.347  1.00  0.00    -0.268 OA
HETATM   23  H11 UNL     1      18.649  -0.798  54.472  1.00  0.00     0.170 HD
BRANCH  21  24
HETATM   24  C5  UNL     1      16.600  -0.695  52.855  1.00  0.00     0.072 C 
HETATM   25  C4  UNL     1      15.527   0.018  52.777  1.00  0.00     0.008 C 
BRANCH  25  26
HETATM   26  C3  UNL     1      14.139  -0.011  53.204  1.00  0.00     0.299 C 
BRANCH  26  27
HETATM   27  N1  UNL     1      13.383   1.196  53.087  1.00  0.00     0.083 N 
HETATM   28  C1  UNL     1      14.239   2.363  52.910  1.00  0.00     0.309 C 
HETATM   29  C2  UNL     1      12.441   1.444  54.152  1.00  0.00     0.309 C 
ENDBRANCH  26  27
ENDBRANCH  25  26
ENDBRANCH  21  24
ENDBRANCH   1  20
TORSDOF 5
ENDMDL
MODEL 6
REMARK VINA RESULT:      -8.2      4.588      9.971
REMARK  5 active torsions:
REMARK  status: ('A' for Active; 'I' for Inactive)
REMARK    1  A    between atoms: N1_2  and  C3_4 
REMARK    2  A    between atoms: C3_4  and  C4_5 
REMARK    3  A    between atoms: C5_6  and  C6_7 
REMARK       I    between atoms: C6_7  and  N2_9 
REMARK    4  A    between atoms: N2_9  and  C7_10 
REMARK    5  A    between atoms: C10_13  and  N3_14 
ROOT
HETATM    1  C7  UNL     1      22.720   0.117  52.745  1.00  0.00     0.131 A 
HETATM    2  C8  UNL     1      22.996   1.144  51.832  1.00  0.00     0.066 A 
HETATM    3  C9  UNL     1      24.335   1.504  51.746  1.00  0.00     0.026 A 
HETATM    4  C10 UNL     1      24.609   2.513  50.827  1.00  0.00     0.073 A 
HETATM    5  C16 UNL     1      25.952   2.850  50.740  1.00  0.00     0.090 A 
HETATM    6  C17 UNL     1      26.379   3.882  49.816  1.00  0.00     0.103 C 
HETATM    7  N4  UNL     1      26.713   4.728  49.083  1.00  0.00    -0.191 NA
HETATM    8  C18 UNL     1      26.932   2.241  51.495  1.00  0.00     0.142 A 
HETATM    9  N5  UNL     1      26.621   1.276  52.364  1.00  0.00    -0.257 NA
HETATM   10  C19 UNL     1      25.333   0.911  52.487  1.00  0.00     0.086 A 
HETATM   11  C20 UNL     1      25.011  -0.104  53.381  1.00  0.00     0.151 A 
HETATM   12  N6  UNL     1      23.715  -0.432  53.447  1.00  0.00    -0.241 NA
ENDROOT
BRANCH   4  13
HETATM   13  N3  UNL     1      23.660   3.206  50.024  1.00  0.00    -0.330 N 
HETATM   14  C11 UNL     1      23.166   2.834  48.745  1.00  0.00     0.093 A 
HETATM   15  C12 UNL     1      22.309   3.617  48.141  1.00  0.00    -0.004 A 
HETATM   16  C13 UNL     1      21.795   4.888  48.678  1.00  0.00     0.076 A 
HETATM   17  C14 UNL     1      22.333   5.240  50.016  1.00  0.00     0.008 A 
HETATM   18 BR1  UNL     1      21.655   6.883  50.696  1.00  0.00    -0.054 Br
HETATM   19  C15 UNL     1      23.213   4.416  50.616  1.00  0.00     0.111 A 
ENDBRANCH   4  13
BRANCH   1  20
HETATM   20  N2  UNL     1      21.432  -0.414  52.983  1.00  0.00    -0.308 N 
HETATM   21  C6  UNL     1      20.396  -0.375  53.953  1.00  0.00     0.246 C 
HETATM   22  O1  UNL     1      20.812   0.376  54.858  1.00  0.00    -0.268 OA
HETATM   23  H11 UNL     1      21.382  -0.978  52.074  1.00  0.00     0.170 HD
BRANCH  21  24
HETATM   24  C5  UNL     1      19.259  -1.187  53.582  1.00  0.00     0.072 C 
HETATM   25  C4  UNL     1      18.094  -0.974  53.070  1.00  0.00     0.008 C 
BRANCH  25  26
HETATM   26  C3  UNL     1      16.905  -1.705  52.668  1.00  0.00     0.299 C 
BRANCH  26  27
HETATM   27  N1  UNL     1      15.907  -0.996  51.932  1.00  0.00     0.083 N 
HETATM   28  C1  UNL     1      16.465  -0.311  50.773  1.00  0.00     0.309 C 
HETATM   29  C2  UNL     1      15.106  -0.074  52.700  1.00  0.00     0.309 C 
ENDBRANCH  26  27
ENDBRANCH  25  26
ENDBRANCH  21  24
ENDBRANCH   1  20
TORSDOF 5
ENDMDL
MODEL 7
REMARK VINA RESULT:      -8.2      4.391      9.442
REMARK  5 active torsions:
REMARK  status: ('A' for Active; 'I' for Inactive)
REMARK    1  A    between atoms: N1_2  and  C3_4 
REMARK    2  A    between atoms: C3_4  and  C4_5 
REMARK    3  A    between atoms: C5_6  and  C6_7 
REMARK       I    between atoms: C6_7  and  N2_9 
REMARK    4  A    between atoms: N2_9  and  C7_10 
REMARK    5  A    between atoms: C10_13  and  N3_14 
ROOT
HETATM    1  C7  UNL     1      22.461  -0.288  53.379  1.00  0.00     0.131 A 
HETATM    2  C8  UNL     1      23.480   0.546  52.898  1.00  0.00     0.066 A 
HETATM    3  C9  UNL     1      24.690   0.436  53.572  1.00  0.00     0.026 A 
HETATM    4  C10 UNL     1      25.705   1.254  53.082  1.00  0.00     0.073 A 
HETATM    5  C16 UNL     1      26.912   1.121  53.754  1.00  0.00     0.090 A 
HETATM    6  C17 UNL     1      28.057   1.909  53.344  1.00  0.00     0.103 C 
HETATM    7  N4  UNL     1      28.971   2.561  53.018  1.00  0.00    -0.191 NA
HETATM    8  C18 UNL     1      27.094   0.258  54.814  1.00  0.00     0.142 A 
HETATM    9  N5  UNL     1      26.089  -0.507  55.248  1.00  0.00    -0.257 NA
HETATM   10  C19 UNL     1      24.899  -0.418  54.632  1.00  0.00     0.086 A 
HETATM   11  C20 UNL     1      23.857  -1.226  55.075  1.00  0.00     0.151 A 
HETATM   12  N6  UNL     1      22.702  -1.102  54.411  1.00  0.00    -0.241 NA
ENDROOT
BRANCH   4  13
HETATM   13  N3  UNL     1      25.599   2.184  52.010  1.00  0.00    -0.330 N 
HETATM   14  C11 UNL     1      26.347   2.208  50.803  1.00  0.00     0.093 A 
HETATM   15  C12 UNL     1      26.127   3.165  49.937  1.00  0.00    -0.004 A 
HETATM   16  C13 UNL     1      25.149   4.254  50.105  1.00  0.00     0.076 A 
HETATM   17  C14 UNL     1      24.388   4.191  51.377  1.00  0.00     0.008 A 
HETATM   18 BR1  UNL     1      23.127   5.603  51.575  1.00  0.00    -0.054 Br
HETATM   19  C15 UNL     1      24.633   3.196  52.251  1.00  0.00     0.111 A 
ENDBRANCH   4  13
BRANCH   1  20
HETATM   20  N2  UNL     1      21.157  -0.350  52.836  1.00  0.00    -0.308 N 
HETATM   21  C6  UNL     1      20.005   0.461  52.665  1.00  0.00     0.246 C 
HETATM   22  O1  UNL     1      20.290   1.562  53.178  1.00  0.00    -0.268 OA
HETATM   23  H11 UNL     1      21.233  -1.364  52.500  1.00  0.00     0.170 HD
BRANCH  21  24
HETATM   24  C5  UNL     1      18.935  -0.233  51.985  1.00  0.00     0.072 C 
HETATM   25  C4  UNL     1      17.824   0.099  51.420  1.00  0.00     0.008 C 
BRANCH  25  26
HETATM   26  C3  UNL     1      16.704  -0.510  50.725  1.00  0.00     0.299 C 
BRANCH  26  27
HETATM   27  N1  UNL     1      15.530  -0.802  51.485  1.00  0.00     0.083 N 
HETATM   28  C1  UNL     1      15.274   0.206  52.506  1.00  0.00     0.309 C 
HETATM   29  C2  UNL     1      15.487  -2.116  52.080  1.00  0.00     0.309 C 
ENDBRANCH  26  27
ENDBRANCH  25  26
ENDBRANCH  21  24
ENDBRANCH   1  20
TORSDOF 5
ENDMDL
MODEL 8
REMARK VINA RESULT:      -7.9      3.029      5.044
REMARK  5 active torsions:
REMARK  status: ('A' for Active; 'I' for Inactive)
REMARK    1  A    between atoms: N1_2  and  C3_4 
REMARK    2  A    between atoms: C3_4  and  C4_5 
REMARK    3  A    between atoms: C5_6  and  C6_7 
REMARK       I    between atoms: C6_7  and  N2_9 
REMARK    4  A    between atoms: N2_9  and  C7_10 
REMARK    5  A    between atoms: C10_13  and  N3_14 
ROOT
HETATM    1  C7  UNL     1      26.323   3.469  50.317  1.00  0.00     0.131 A 
HETATM    2  C8  UNL     1      24.932   3.504  50.487  1.00  0.00     0.066 A 
HETATM    3  C9  UNL     1      24.421   2.519  51.324  1.00  0.00     0.026 A 
HETATM    4  C10 UNL     1      23.041   2.565  51.503  1.00  0.00     0.073 A 
HETATM    5  C16 UNL     1      22.548   1.587  52.355  1.00  0.00     0.090 A 
HETATM    6  C17 UNL     1      21.128   1.523  52.636  1.00  0.00     0.103 C 
HETATM    7  N4  UNL     1      19.979   1.467  52.843  1.00  0.00    -0.191 NA
HETATM    8  C18 UNL     1      23.351   0.650  52.971  1.00  0.00     0.142 A 
HETATM    9  N5  UNL     1      24.671   0.646  52.769  1.00  0.00    -0.257 NA
HETATM   10  C19 UNL     1      25.201   1.573  51.953  1.00  0.00     0.086 A 
HETATM   11  C20 UNL     1      26.577   1.578  51.754  1.00  0.00     0.151 A 
HETATM   12  N6  UNL     1      27.044   2.535  50.943  1.00  0.00    -0.241 NA
ENDROOT
BRANCH   4  13
HETATM   13  N3  UNL     1      22.139   3.482  50.893  1.00  0.00    -0.330 N 
HETATM   14  C11 UNL     1      21.721   4.747  51.385  1.00  0.00     0.093 A 
HETATM   15  C12 UNL     1      20.857   5.445  50.693  1.00  0.00    -0.004 A 
HETATM   16  C13 UNL     1      20.257   5.026  49.414  1.00  0.00     0.076 A 
HETATM   17  C14 UNL     1      20.722   3.701  48.935  1.00  0.00     0.008 A 
HETATM   18 BR1  UNL     1      19.939   3.178  47.280  1.00  0.00    -0.054 Br
HETATM   19  C15 UNL     1      21.612   3.003  49.665  1.00  0.00     0.111 A 
ENDBRANCH   4  13
BRANCH   1  20
HETATM   20  N2  UNL     1      27.053   4.382  49.522  1.00  0.00    -0.308 N 
HETATM   21  C6  UNL     1      26.906   5.647  48.896  1.00  0.00     0.246 C 
HETATM   22  O1  UNL     1      25.746   6.021  49.163  1.00  0.00    -0.268 OA
HETATM   23  H11 UNL     1      27.946   3.791  49.481  1.00  0.00     0.170 HD
BRANCH  21  24
HETATM   24  C5  UNL     1      28.098   6.057  48.189  1.00  0.00     0.072 C 
HETATM   25  C4  UNL     1      29.358   5.787  48.257  1.00  0.00     0.008 C 
BRANCH  25  26
HETATM   26  C3  UNL     1      30.608   6.140  47.608  1.00  0.00     0.299 C 
BRANCH  26  27
HETATM   27  N1  UNL     1      31.823   5.804  48.280  1.00  0.00     0.083 N 
HETATM   28  C1  UNL     1      32.273   4.456  47.957  1.00  0.00     0.309 C 
HETATM   29  C2  UNL     1      31.810   5.980  49.712  1.00  0.00     0.309 C 
ENDBRANCH  26  27
ENDBRANCH  25  26
ENDBRANCH  21  24
ENDBRANCH   1  20
TORSDOF 5
ENDMDL
MODEL 9
REMARK VINA RESULT:      -7.9      3.189      5.097
REMARK  5 active torsions:
REMARK  status: ('A' for Active; 'I' for Inactive)
REMARK    1  A    between atoms: N1_2  and  C3_4 
REMARK    2  A    between atoms: C3_4  and  C4_5 
REMARK    3  A    between atoms: C5_6  and  C6_7 
REMARK       I    between atoms: C6_7  and  N2_9 
REMARK    4  A    between atoms: N2_9  and  C7_10 
REMARK    5  A    between atoms: C10_13  and  N3_14 
ROOT
HETATM    1  C7  UNL     1      26.221   3.064  50.713  1.00  0.00     0.131 A 
HETATM    2  C8  UNL     1      24.844   2.960  50.957  1.00  0.00     0.066 A 
HETATM    3  C9  UNL     1      24.472   1.882  51.751  1.00  0.00     0.026 A 
HETATM    4  C10 UNL     1      23.106   1.791  52.004  1.00  0.00     0.073 A 
HETATM    5  C16 UNL     1      22.751   0.720  52.812  1.00  0.00     0.090 A 
HETATM    6  C17 UNL     1      21.361   0.509  53.161  1.00  0.00     0.103 C 
HETATM    7  N4  UNL     1      20.235   0.335  53.424  1.00  0.00    -0.191 NA
HETATM    8  C18 UNL     1      23.667  -0.177  53.320  1.00  0.00     0.142 A 
HETATM    9  N5  UNL     1      24.969  -0.047  53.049  1.00  0.00    -0.257 NA
HETATM   10  C19 UNL     1      25.366   0.974  52.271  1.00  0.00     0.086 A 
HETATM   11  C20 UNL     1      26.723   1.117  52.002  1.00  0.00     0.151 A 
HETATM   12  N6  UNL     1      27.057   2.162  51.235  1.00  0.00    -0.241 NA
ENDROOT
BRANCH   4  13
HETATM   13  N3  UNL     1      22.093   2.658  51.506  1.00  0.00    -0.330 N 
HETATM   14  C11 UNL     1      21.446   3.722  52.190  1.00  0.00     0.093 A 
HETATM   15  C12 UNL     1      20.511   4.399  51.573  1.00  0.00    -0.004 A 
HETATM   16  C13 UNL     1      20.051   4.151  50.196  1.00  0.00     0.076 A 
HETATM   17  C14 UNL     1      20.753   3.034  49.517  1.00  0.00     0.008 A 
HETATM   18 BR1  UNL     1      20.148   2.731  47.738  1.00  0.00    -0.054 Br
HETATM   19  C15 UNL     1      21.712   2.354  50.173  1.00  0.00     0.111 A 
ENDBRANCH   4  13
BRANCH   1  20
HETATM   20  N2  UNL     1      26.821   4.088  49.944  1.00  0.00    -0.308 N 
HETATM   21  C6  UNL     1      26.473   5.106  49.018  1.00  0.00     0.246 C 
HETATM   22  O1  UNL     1      25.237   5.019  48.873  1.00  0.00    -0.268 OA
HETATM   23  H11 UNL     1      27.819   3.899  50.283  1.00  0.00     0.170 HD
BRANCH  21  24
HETATM   24  C5  UNL     1      27.619   5.866  48.574  1.00  0.00     0.072 C 
HETATM   25  C4  UNL     1      27.913   7.116  48.450  1.00  0.00     0.008 C 
BRANCH  25  26
HETATM   26  C3  UNL     1      29.012   7.963  48.021  1.00  0.00     0.299 C 
BRANCH  26  27
HETATM   27  N1  UNL     1      29.966   8.362  49.007  1.00  0.00     0.083 N 
HETATM   28  C1  UNL     1      30.297   9.779  48.906  1.00  0.00     0.309 C 
HETATM   29  C2  UNL     1      31.180   7.583  49.047  1.00  0.00     0.309 C 
ENDBRANCH  26  27
ENDBRANCH  25  26
ENDBRANCH  21  24
ENDBRANCH   1  20
TORSDOF 5
ENDMDL
