MODEL 1
REMARK VINA RESULT:      -9.2      0.000      0.000
REMARK  6 active torsions:
REMARK  status: ('A' for Active; 'I' for Inactive)
REMARK    1  A    between atoms: C2_2  and  C3_3 
REMARK    2  A    between atoms: C3_3  and  C4_5 
REMARK    3  A    between atoms: C7_8  and  S1_9 
REMARK    4  A    between atoms: S1_9  and  C8_10 
REMARK    5  A    between atoms: C12_17  and  C13_18 
REMARK    6  A    between atoms: C17_24  and  N5_25 
ROOT
HETATM    1  C8  UNL     1      22.588   3.010  52.073  1.00  0.00     0.198 A 
HETATM    2  N1  UNL     1      21.278   2.723  51.841  1.00  0.00    -0.122 NA
HETATM    3  N2  UNL     1      21.042   1.452  52.195  1.00  0.00    -0.126 NA
HETATM    4  C9  UNL     1      22.215   0.971  52.643  1.00  0.00     0.199 A 
HETATM    5  C10 UNL     1      22.571  -0.270  53.139  1.00  0.00     0.165 A 
HETATM    6  F1  UNL     1      21.676  -1.261  53.239  1.00  0.00    -0.202 F 
HETATM    7  C11 UNL     1      23.867  -0.517  53.547  1.00  0.00     0.062 A 
HETATM    8  C12 UNL     1      24.839   0.475  53.465  1.00  0.00     0.024 A 
HETATM    9  C17 UNL     1      24.467   1.716  52.965  1.00  0.00     0.120 A 
HETATM   10  N6  UNL     1      23.191   1.906  52.581  1.00  0.00    -0.254 N 
ENDROOT
BRANCH   1  11
HETATM   11  S1  UNL     1      23.398   4.594  51.767  1.00  0.00    -0.081 SA
BRANCH  11  12
HETATM   12  C7  UNL     1      23.721   4.593  49.958  1.00  0.00     0.084 A 
HETATM   13  C6  UNL     1      25.153   4.346  49.639  1.00  0.00     0.061 A 
HETATM   14  C5  UNL     1      25.607   5.632  49.053  1.00  0.00    -0.013 A 
HETATM   15  C4  UNL     1      26.653   6.250  48.531  1.00  0.00     0.036 A 
HETATM   16  C19 UNL     1      24.534   6.613  49.010  1.00  0.00     0.061 A 
HETATM   17  C20 UNL     1      26.284   7.621  48.148  1.00  0.00     0.133 A 
HETATM   18  N7  UNL     1      25.053   7.786  48.442  1.00  0.00    -0.260 NA
HETATM   19  C18 UNL     1      23.490   5.993  49.527  1.00  0.00     0.021 A 
BRANCH  15  20
HETATM   20  C3  UNL     1      27.980   5.674  48.346  1.00  0.00     0.161 C 
HETATM   21  O1  UNL     1      28.176   4.467  48.632  1.00  0.00    -0.292 OA
BRANCH  20  22
HETATM   22  C2  UNL     1      29.098   6.503  47.821  1.00  0.00     0.079 C 
HETATM   23  C1  UNL     1      30.415   5.728  47.920  1.00  0.00     0.013 C 
ENDBRANCH  20  22
ENDBRANCH  15  20
ENDBRANCH  11  12
ENDBRANCH   1  11
BRANCH   9  24
HETATM   24  N5  UNL     1      25.461   2.705  52.891  1.00  0.00    -0.384 N 
HETATM   25  H15 UNL     1      25.588   3.667  52.458  1.00  0.00     0.157 HD
HETATM   26  H16 UNL     1      26.371   2.571  53.351  1.00  0.00     0.157 HD
ENDBRANCH   9  24
BRANCH   8  27
HETATM   27  C13 UNL     1      26.190   0.142  53.920  1.00  0.00     0.014 A 
HETATM   28  C14 UNL     1      26.892   0.318  55.098  1.00  0.00     0.152 A 
HETATM   29  N3  UNL     1      28.142  -0.207  54.940  1.00  0.00    -0.185 NA
HETATM   30  N4  UNL     1      28.243  -0.703  53.708  1.00  0.00    -0.285 N 
HETATM   31  C15 UNL     1      29.468  -1.333  53.251  1.00  0.00     0.179 C 
HETATM   32  C16 UNL     1      27.070  -0.501  53.074  1.00  0.00     0.125 A 
ENDBRANCH   8  27
TORSDOF 6
ENDMDL
MODEL 2
REMARK VINA RESULT:      -8.4      3.384      6.409
REMARK  6 active torsions:
REMARK  status: ('A' for Active; 'I' for Inactive)
REMARK    1  A    between atoms: C2_2  and  C3_3 
REMARK    2  A    between atoms: C3_3  and  C4_5 
REMARK    3  A    between atoms: C7_8  and  S1_9 
REMARK    4  A    between atoms: S1_9  and  C8_10 
REMARK    5  A    between atoms: C12_17  and  C13_18 
REMARK    6  A    between atoms: C17_24  and  N5_25 
ROOT
HETATM    1  C8  UNL     1      23.572   5.373  50.753  1.00  0.00     0.198 A 
HETATM    2  N1  UNL     1      23.748   6.189  49.677  1.00  0.00    -0.122 NA
HETATM    3  N2  UNL     1      24.855   5.812  49.022  1.00  0.00    -0.126 NA
HETATM    4  C9  UNL     1      25.348   4.764  49.706  1.00  0.00     0.199 A 
HETATM    5  C10 UNL     1      26.462   3.972  49.496  1.00  0.00     0.165 A 
HETATM    6  F1  UNL     1      27.283   4.188  48.461  1.00  0.00    -0.202 F 
HETATM    7  C11 UNL     1      26.755   2.932  50.356  1.00  0.00     0.062 A 
HETATM    8  C12 UNL     1      25.938   2.663  51.449  1.00  0.00     0.024 A 
HETATM    9  C17 UNL     1      24.823   3.466  51.647  1.00  0.00     0.120 A 
HETATM   10  N6  UNL     1      24.581   4.467  50.779  1.00  0.00    -0.254 N 
ENDROOT
BRANCH   1  11
HETATM   11  S1  UNL     1      22.221   5.467  51.947  1.00  0.00    -0.081 SA
BRANCH  11  12
HETATM   12  C7  UNL     1      20.880   4.465  51.188  1.00  0.00     0.084 A 
HETATM   13  C6  UNL     1      20.318   3.463  52.133  1.00  0.00     0.061 A 
HETATM   14  C5  UNL     1      20.724   2.162  51.546  1.00  0.00    -0.013 A 
HETATM   15  C4  UNL     1      20.653   0.853  51.714  1.00  0.00     0.036 A 
HETATM   16  C19 UNL     1      21.487   2.339  50.320  1.00  0.00     0.061 A 
HETATM   17  C20 UNL     1      21.356   0.168  50.620  1.00  0.00     0.133 A 
HETATM   18  N7  UNL     1      21.821   1.064  49.840  1.00  0.00    -0.260 NA
HETATM   19  C18 UNL     1      21.554   3.646  50.152  1.00  0.00     0.021 A 
BRANCH  15  20
HETATM   20  C3  UNL     1      19.974   0.169  52.810  1.00  0.00     0.161 C 
HETATM   21  O1  UNL     1      18.893  -0.431  52.590  1.00  0.00    -0.292 OA
BRANCH  20  22
HETATM   22  C2  UNL     1      20.555   0.175  54.180  1.00  0.00     0.079 C 
HETATM   23  C1  UNL     1      21.378  -1.097  54.404  1.00  0.00     0.013 C 
ENDBRANCH  20  22
ENDBRANCH  15  20
ENDBRANCH  11  12
ENDBRANCH   1  11
BRANCH   9  24
HETATM   24  N5  UNL     1      24.009   3.179  52.754  1.00  0.00    -0.384 N 
HETATM   25  H15 UNL     1      24.097   3.144  53.813  1.00  0.00     0.157 HD
HETATM   26  H16 UNL     1      23.023   2.914  52.627  1.00  0.00     0.157 HD
ENDBRANCH   9  24
BRANCH   8  27
HETATM   27  C13 UNL     1      26.309   1.542  52.315  1.00  0.00     0.014 A 
HETATM   28  C14 UNL     1      25.806   0.272  52.533  1.00  0.00     0.152 A 
HETATM   29  N3  UNL     1      26.578  -0.343  53.475  1.00  0.00    -0.185 NA
HETATM   30  N4  UNL     1      27.541   0.497  53.850  1.00  0.00    -0.285 N 
HETATM   31  C15 UNL     1      28.524   0.113  54.847  1.00  0.00     0.179 C 
HETATM   32  C16 UNL     1      27.394   1.644  53.158  1.00  0.00     0.125 A 
ENDBRANCH   8  27
TORSDOF 6
ENDMDL
MODEL 3
REMARK VINA RESULT:      -8.3      3.193      7.775
REMARK  6 active torsions:
REMARK  status: ('A' for Active; 'I' for Inactive)
REMARK    1  A    between atoms: C2_2  and  C3_3 
REMARK    2  A    between atoms: C3_3  and  C4_5 
REMARK    3  A    between atoms: C7_8  and  S1_9 
REMARK    4  A    between atoms: S1_9  and  C8_10 
REMARK    5  A    between atoms: C12_17  and  C13_18 
REMARK    6  A    between atoms: C17_24  and  N5_25 
ROOT
HETATM    1  C8  UNL     1      23.101   4.612  50.435  1.00  0.00     0.198 A 
HETATM    2  N1  UNL     1      21.742   4.697  50.482  1.00  0.00    -0.122 NA
HETATM    3  N2  UNL     1      21.380   5.974  50.298  1.00  0.00    -0.126 NA
HETATM    4  C9  UNL     1      22.524   6.663  50.139  1.00  0.00     0.199 A 
HETATM    5  C10 UNL     1      22.766   8.005  49.914  1.00  0.00     0.165 A 
HETATM    6  F1  UNL     1      21.762   8.886  49.821  1.00  0.00    -0.202 F 
HETATM    7  C11 UNL     1      24.059   8.473  49.779  1.00  0.00     0.062 A 
HETATM    8  C12 UNL     1      25.140   7.603  49.868  1.00  0.00     0.024 A 
HETATM    9  C17 UNL     1      24.883   6.258  50.094  1.00  0.00     0.120 A 
HETATM   10  N6  UNL     1      23.605   5.853  50.219  1.00  0.00    -0.254 N 
ENDROOT
BRANCH   1  11
HETATM   11  S1  UNL     1      24.078   3.106  50.621  1.00  0.00    -0.081 SA
BRANCH  11  12
HETATM   12  C7  UNL     1      24.326   2.951  52.435  1.00  0.00     0.084 A 
HETATM   13  C6  UNL     1      25.702   2.505  52.782  1.00  0.00     0.061 A 
HETATM   14  C5  UNL     1      25.497   1.153  53.359  1.00  0.00    -0.013 A 
HETATM   15  C4  UNL     1      26.127   0.120  53.890  1.00  0.00     0.036 A 
HETATM   16  C19 UNL     1      24.092   0.781  53.370  1.00  0.00     0.061 A 
HETATM   17  C20 UNL     1      25.158  -0.926  54.250  1.00  0.00     0.133 A 
HETATM   18  N7  UNL     1      23.997  -0.502  53.932  1.00  0.00    -0.260 NA
HETATM   19  C18 UNL     1      23.464   1.815  52.844  1.00  0.00     0.021 A 
BRANCH  15  20
HETATM   20  C3  UNL     1      27.566   0.015  54.105  1.00  0.00     0.161 C 
HETATM   21  O1  UNL     1      28.105   0.684  55.021  1.00  0.00    -0.292 OA
BRANCH  20  22
HETATM   22  C2  UNL     1      28.395  -0.878  53.252  1.00  0.00     0.079 C 
HETATM   23  C1  UNL     1      29.853  -0.841  53.720  1.00  0.00     0.013 C 
ENDBRANCH  20  22
ENDBRANCH  15  20
ENDBRANCH  11  12
ENDBRANCH   1  11
BRANCH   9  24
HETATM   24  N5  UNL     1      25.987   5.395  50.180  1.00  0.00    -0.384 N 
HETATM   25  H15 UNL     1      26.254   4.499  50.685  1.00  0.00     0.157 HD
HETATM   26  H16 UNL     1      26.844   5.583  49.641  1.00  0.00     0.157 HD
ENDBRANCH   9  24
BRANCH   8  27
HETATM   27  C13 UNL     1      26.481   8.169  49.709  1.00  0.00     0.014 A 
HETATM   28  C14 UNL     1      27.221   9.123  50.384  1.00  0.00     0.152 A 
HETATM   29  N3  UNL     1      28.436   9.240  49.773  1.00  0.00    -0.185 NA
HETATM   30  N4  UNL     1      28.478   8.396  48.744  1.00  0.00    -0.285 N 
HETATM   31  C15 UNL     1      29.657   8.297  47.903  1.00  0.00     0.179 C 
HETATM   32  C16 UNL     1      27.303   7.738  48.690  1.00  0.00     0.125 A 
ENDBRANCH   8  27
TORSDOF 6
ENDMDL
MODEL 4
REMARK VINA RESULT:      -8.2      4.121      7.734
REMARK  6 active torsions:
REMARK  status: ('A' for Active; 'I' for Inactive)
REMARK    1  A    between atoms: C2_2  and  C3_3 
REMARK    2  A    between atoms: C3_3  and  C4_5 
REMARK    3  A    between atoms: C7_8  and  S1_9 
REMARK    4  A    between atoms: S1_9  and  C8_10 
REMARK    5  A    between atoms: C12_17  and  C13_18 
REMARK    6  A    between atoms: C17_24  and  N5_25 
ROOT
HETATM    1  C8  UNL     1      21.106  -0.018  53.588  1.00  0.00     0.198 A 
HETATM    2  N1  UNL     1      21.524  -0.947  54.493  1.00  0.00    -0.122 NA
HETATM    3  N2  UNL     1      20.555  -1.858  54.658  1.00  0.00    -0.126 NA
HETATM    4  C9  UNL     1      19.550  -1.479  53.850  1.00  0.00     0.199 A 
HETATM    5  C10 UNL     1      18.308  -2.035  53.603  1.00  0.00     0.165 A 
HETATM    6  F1  UNL     1      17.913  -3.154  54.223  1.00  0.00    -0.202 F 
HETATM    7  C11 UNL     1      17.441  -1.444  52.705  1.00  0.00     0.062 A 
HETATM    8  C12 UNL     1      17.798  -0.280  52.034  1.00  0.00     0.024 A 
HETATM    9  C17 UNL     1      19.048   0.267  52.291  1.00  0.00     0.120 A 
HETATM   10  N6  UNL     1      19.857  -0.347  53.175  1.00  0.00    -0.254 N 
ENDROOT
BRANCH   1  11
HETATM   11  S1  UNL     1      22.052   1.410  53.019  1.00  0.00    -0.081 SA
BRANCH  11  12
HETATM   12  C7  UNL     1      23.404   0.682  52.010  1.00  0.00     0.084 A 
HETATM   13  C6  UNL     1      24.477   0.083  52.848  1.00  0.00     0.061 A 
HETATM   14  C5  UNL     1      25.649   0.958  52.593  1.00  0.00    -0.013 A 
HETATM   15  C4  UNL     1      26.922   1.141  52.898  1.00  0.00     0.036 A 
HETATM   16  C19 UNL     1      25.330   2.028  51.663  1.00  0.00     0.061 A 
HETATM   17  C20 UNL     1      27.444   2.315  52.183  1.00  0.00     0.133 A 
HETATM   18  N7  UNL     1      26.491   2.794  51.483  1.00  0.00    -0.260 NA
HETATM   19  C18 UNL     1      24.060   1.841  51.356  1.00  0.00     0.021 A 
BRANCH  15  20
HETATM   20  C3  UNL     1      27.712   0.310  53.800  1.00  0.00     0.161 C 
HETATM   21  O1  UNL     1      27.835   0.646  55.003  1.00  0.00    -0.292 OA
BRANCH  20  22
HETATM   22  C2  UNL     1      28.369  -0.930  53.304  1.00  0.00     0.079 C 
HETATM   23  C1  UNL     1      29.870  -0.881  53.603  1.00  0.00     0.013 C 
ENDBRANCH  20  22
ENDBRANCH  15  20
ENDBRANCH  11  12
ENDBRANCH   1  11
BRANCH   9  24
HETATM   24  N5  UNL     1      19.392   1.442  51.603  1.00  0.00    -0.384 N 
HETATM   25  H15 UNL     1      20.269   1.998  51.376  1.00  0.00     0.157 HD
HETATM   26  H16 UNL     1      18.669   2.013  51.145  1.00  0.00     0.157 HD
ENDBRANCH   9  24
BRANCH   8  27
HETATM   27  C13 UNL     1      16.829   0.286  51.094  1.00  0.00     0.014 A 
HETATM   28  C14 UNL     1      15.887   1.297  51.157  1.00  0.00     0.152 A 
HETATM   29  N3  UNL     1      15.261   1.382  49.947  1.00  0.00    -0.185 NA
HETATM   30  N4  UNL     1      15.779   0.461  49.135  1.00  0.00    -0.285 N 
HETATM   31  C15 UNL     1      15.307   0.316  47.770  1.00  0.00     0.179 C 
HETATM   32  C16 UNL     1      16.730  -0.212  49.812  1.00  0.00     0.125 A 
ENDBRANCH   8  27
TORSDOF 6
ENDMDL
MODEL 5
REMARK VINA RESULT:      -8.2      3.245      4.129
REMARK  6 active torsions:
REMARK  status: ('A' for Active; 'I' for Inactive)
REMARK    1  A    between atoms: C2_2  and  C3_3 
REMARK    2  A    between atoms: C3_3  and  C4_5 
REMARK    3  A    between atoms: C7_8  and  S1_9 
REMARK    4  A    between atoms: S1_9  and  C8_10 
REMARK    5  A    between atoms: C12_17  and  C13_18 
REMARK    6  A    between atoms: C17_24  and  N5_25 
ROOT
HETATM    1  C8  UNL     1      21.587   1.405  51.803  1.00  0.00     0.198 A 
HETATM    2  N1  UNL     1      20.296   0.991  51.941  1.00  0.00    -0.122 NA
HETATM    3  N2  UNL     1      20.255  -0.013  52.828  1.00  0.00    -0.126 NA
HETATM    4  C9  UNL     1      21.524  -0.205  53.228  1.00  0.00     0.199 A 
HETATM    5  C10 UNL     1      22.080  -1.095  54.128  1.00  0.00     0.165 A 
HETATM    6  F1  UNL     1      21.323  -1.984  54.784  1.00  0.00    -0.202 F 
HETATM    7  C11 UNL     1      23.439  -1.089  54.372  1.00  0.00     0.062 A 
HETATM    8  C12 UNL     1      24.274  -0.188  53.718  1.00  0.00     0.024 A 
HETATM    9  C17 UNL     1      23.702   0.700  52.818  1.00  0.00     0.120 A 
HETATM   10  N6  UNL     1      22.372   0.653  52.615  1.00  0.00    -0.254 N 
ENDROOT
BRANCH   1  11
HETATM   11  S1  UNL     1      22.166   2.736  50.730  1.00  0.00    -0.081 SA
BRANCH  11  12
HETATM   12  C7  UNL     1      21.782   4.269  51.668  1.00  0.00     0.084 A 
HETATM   13  C6  UNL     1      20.884   5.184  50.914  1.00  0.00     0.061 A 
HETATM   14  C5  UNL     1      21.742   6.360  50.627  1.00  0.00    -0.013 A 
HETATM   15  C4  UNL     1      21.754   7.550  50.051  1.00  0.00     0.036 A 
HETATM   16  C19 UNL     1      23.083   6.191  51.163  1.00  0.00     0.061 A 
HETATM   17  C20 UNL     1      23.081   8.165  50.200  1.00  0.00     0.133 A 
HETATM   18  N7  UNL     1      23.815   7.346  50.847  1.00  0.00    -0.260 NA
HETATM   19  C18 UNL     1      23.068   5.005  51.741  1.00  0.00     0.021 A 
BRANCH  15  20
HETATM   20  C3  UNL     1      20.627   8.181  49.372  1.00  0.00     0.161 C 
HETATM   21  O1  UNL     1      20.391   7.898  48.172  1.00  0.00    -0.292 OA
BRANCH  20  22
HETATM   22  C2  UNL     1      19.758   9.151  50.091  1.00  0.00     0.079 C 
HETATM   23  C1  UNL     1      19.932  10.550  49.493  1.00  0.00     0.013 C 
ENDBRANCH  20  22
ENDBRANCH  15  20
ENDBRANCH  11  12
ENDBRANCH   1  11
BRANCH   9  24
HETATM   24  N5  UNL     1      24.560   1.602  52.169  1.00  0.00    -0.384 N 
HETATM   25  H15 UNL     1      24.511   2.577  51.747  1.00  0.00     0.157 HD
HETATM   26  H16 UNL     1      25.544   1.358  51.994  1.00  0.00     0.157 HD
ENDBRANCH   9  24
BRANCH   8  27
HETATM   27  C13 UNL     1      25.703  -0.237  54.032  1.00  0.00     0.014 A 
HETATM   28  C14 UNL     1      26.500   0.298  55.027  1.00  0.00     0.152 A 
HETATM   29  N3  UNL     1      27.789  -0.093  54.807  1.00  0.00    -0.185 NA
HETATM   30  N4  UNL     1      27.823  -0.850  53.711  1.00  0.00    -0.285 N 
HETATM   31  C15 UNL     1      29.069  -1.415  53.229  1.00  0.00     0.179 C 
HETATM   32  C16 UNL     1      26.568  -0.949  53.228  1.00  0.00     0.125 A 
ENDBRANCH   8  27
TORSDOF 6
ENDMDL
MODEL 6
REMARK VINA RESULT:      -8.2      3.537      8.323
REMARK  6 active torsions:
REMARK  status: ('A' for Active; 'I' for Inactive)
REMARK    1  A    between atoms: C2_2  and  C3_3 
REMARK    2  A    between atoms: C3_3  and  C4_5 
REMARK    3  A    between atoms: C7_8  and  S1_9 
REMARK    4  A    between atoms: S1_9  and  C8_10 
REMARK    5  A    between atoms: C12_17  and  C13_18 
REMARK    6  A    between atoms: C17_24  and  N5_25 
ROOT
HETATM    1  C8  UNL     1      25.133   4.797  49.310  1.00  0.00     0.198 A 
HETATM    2  N1  UNL     1      23.806   5.076  49.432  1.00  0.00    -0.122 NA
HETATM    3  N2  UNL     1      23.606   6.370  49.145  1.00  0.00    -0.126 NA
HETATM    4  C9  UNL     1      24.817   6.874  48.850  1.00  0.00     0.199 A 
HETATM    5  C10 UNL     1      25.219   8.143  48.478  1.00  0.00     0.165 A 
HETATM    6  F1  UNL     1      24.338   9.145  48.361  1.00  0.00    -0.202 F 
HETATM    7  C11 UNL     1      26.549   8.411  48.219  1.00  0.00     0.062 A 
HETATM    8  C12 UNL     1      27.508   7.409  48.327  1.00  0.00     0.024 A 
HETATM    9  C17 UNL     1      27.090   6.139  48.700  1.00  0.00     0.120 A 
HETATM   10  N6  UNL     1      25.782   5.930  48.942  1.00  0.00    -0.254 N 
ENDROOT
BRANCH   1  11
HETATM   11  S1  UNL     1      25.911   3.191  49.584  1.00  0.00    -0.081 SA
BRANCH  11  12
HETATM   12  C7  UNL     1      25.994   3.037  51.413  1.00  0.00     0.084 A 
HETATM   13  C6  UNL     1      27.000   2.033  51.851  1.00  0.00     0.061 A 
HETATM   14  C5  UNL     1      26.178   0.955  52.456  1.00  0.00    -0.013 A 
HETATM   15  C4  UNL     1      26.246  -0.222  53.054  1.00  0.00     0.036 A 
HETATM   16  C19 UNL     1      24.759   1.264  52.399  1.00  0.00     0.061 A 
HETATM   17  C20 UNL     1      24.893  -0.691  53.389  1.00  0.00     0.133 A 
HETATM   18  N7  UNL     1      24.067   0.197  52.993  1.00  0.00    -0.260 NA
HETATM   19  C18 UNL     1      24.694   2.441  51.806  1.00  0.00     0.021 A 
BRANCH  15  20
HETATM   20  C3  UNL     1      27.468  -0.958  53.354  1.00  0.00     0.161 C 
HETATM   21  O1  UNL     1      27.584  -2.149  52.971  1.00  0.00    -0.292 OA
BRANCH  20  22
HETATM   22  C2  UNL     1      28.577  -0.310  54.105  1.00  0.00     0.079 C 
HETATM   23  C1  UNL     1      29.926  -0.738  53.518  1.00  0.00     0.013 C 
ENDBRANCH  20  22
ENDBRANCH  15  20
ENDBRANCH  11  12
ENDBRANCH   1  11
BRANCH   9  24
HETATM   24  N5  UNL     1      28.072   5.141  48.803  1.00  0.00    -0.384 N 
HETATM   25  H15 UNL     1      29.131   5.077  48.871  1.00  0.00     0.157 HD
HETATM   26  H16 UNL     1      27.810   4.146  48.830  1.00  0.00     0.157 HD
ENDBRANCH   9  24
BRANCH   8  27
HETATM   27  C13 UNL     1      28.897   7.765  48.032  1.00  0.00     0.014 A 
HETATM   28  C14 UNL     1      29.972   8.200  48.786  1.00  0.00     0.152 A 
HETATM   29  N3  UNL     1      31.041   8.374  47.955  1.00  0.00    -0.185 NA
HETATM   30  N4  UNL     1      30.671   8.064  46.714  1.00  0.00    -0.285 N 
HETATM   31  C15 UNL     1      31.607   8.152  45.608  1.00  0.00     0.179 C 
HETATM   32  C16 UNL     1      29.375   7.693  46.741  1.00  0.00     0.125 A 
ENDBRANCH   8  27
TORSDOF 6
ENDMDL
MODEL 7
REMARK VINA RESULT:      -8.2      2.239      2.724
REMARK  6 active torsions:
REMARK  status: ('A' for Active; 'I' for Inactive)
REMARK    1  A    between atoms: C2_2  and  C3_3 
REMARK    2  A    between atoms: C3_3  and  C4_5 
REMARK    3  A    between atoms: C7_8  and  S1_9 
REMARK    4  A    between atoms: S1_9  and  C8_10 
REMARK    5  A    between atoms: C12_17  and  C13_18 
REMARK    6  A    between atoms: C17_24  and  N5_25 
ROOT
HETATM    1  C8  UNL     1      24.529   3.783  50.153  1.00  0.00     0.198 A 
HETATM    2  N1  UNL     1      23.248   3.886  49.703  1.00  0.00    -0.122 NA
HETATM    3  N2  UNL     1      22.514   2.908  50.253  1.00  0.00    -0.126 NA
HETATM    4  C9  UNL     1      23.356   2.212  51.036  1.00  0.00     0.199 A 
HETATM    5  C10 UNL     1      23.159   1.107  51.844  1.00  0.00     0.165 A 
HETATM    6  F1  UNL     1      21.956   0.528  51.948  1.00  0.00    -0.202 F 
HETATM    7  C11 UNL     1      24.206   0.571  52.568  1.00  0.00     0.062 A 
HETATM    8  C12 UNL     1      25.477   1.131  52.497  1.00  0.00     0.024 A 
HETATM    9  C17 UNL     1      25.661   2.240  51.683  1.00  0.00     0.120 A 
HETATM   10  N6  UNL     1      24.608   2.724  50.998  1.00  0.00    -0.254 N 
ENDROOT
BRANCH   1  11
HETATM   11  S1  UNL     1      25.901   4.870  49.711  1.00  0.00    -0.081 SA
BRANCH  11  12
HETATM   12  C7  UNL     1      25.101   6.492  49.382  1.00  0.00     0.084 A 
HETATM   13  C6  UNL     1      25.510   7.070  48.075  1.00  0.00     0.061 A 
HETATM   14  C5  UNL     1      26.291   8.274  48.453  1.00  0.00    -0.013 A 
HETATM   15  C4  UNL     1      26.968   9.297  47.961  1.00  0.00     0.036 A 
HETATM   16  C19 UNL     1      26.365   8.436  49.896  1.00  0.00     0.061 A 
HETATM   17  C20 UNL     1      27.486  10.128  49.058  1.00  0.00     0.133 A 
HETATM   18  N7  UNL     1      27.114   9.594  50.155  1.00  0.00    -0.260 NA
HETATM   19  C18 UNL     1      25.685   7.416  50.385  1.00  0.00     0.021 A 
BRANCH  15  20
HETATM   20  C3  UNL     1      27.175   9.584  46.546  1.00  0.00     0.161 C 
HETATM   21  O1  UNL     1      26.780  10.677  46.072  1.00  0.00    -0.292 OA
BRANCH  20  22
HETATM   22  C2  UNL     1      27.850   8.593  45.665  1.00  0.00     0.079 C 
HETATM   23  C1  UNL     1      29.140   8.099  46.327  1.00  0.00     0.013 C 
ENDBRANCH  20  22
ENDBRANCH  15  20
ENDBRANCH  11  12
ENDBRANCH   1  11
BRANCH   9  24
HETATM   24  N5  UNL     1      26.950   2.792  51.625  1.00  0.00    -0.384 N 
HETATM   25  H15 UNL     1      27.528   3.510  52.155  1.00  0.00     0.157 HD
HETATM   26  H16 UNL     1      27.619   2.491  50.903  1.00  0.00     0.157 HD
ENDBRANCH   9  24
BRANCH   8  27
HETATM   27  C13 UNL     1      26.537   0.512  53.296  1.00  0.00     0.014 A 
HETATM   28  C14 UNL     1      26.877   0.521  54.637  1.00  0.00     0.152 A 
HETATM   29  N3  UNL     1      27.986  -0.257  54.807  1.00  0.00    -0.185 NA
HETATM   30  N4  UNL     1      28.348  -0.747  53.623  1.00  0.00    -0.285 N 
HETATM   31  C15 UNL     1      29.502  -1.618  53.493  1.00  0.00     0.179 C 
HETATM   32  C16 UNL     1      27.482  -0.292  52.695  1.00  0.00     0.125 A 
ENDBRANCH   8  27
TORSDOF 6
ENDMDL
MODEL 8
REMARK VINA RESULT:      -8.2      3.070      8.304
REMARK  6 active torsions:
REMARK  status: ('A' for Active; 'I' for Inactive)
REMARK    1  A    between atoms: C2_2  and  C3_3 
REMARK    2  A    between atoms: C3_3  and  C4_5 
REMARK    3  A    between atoms: C7_8  and  S1_9 
REMARK    4  A    between atoms: S1_9  and  C8_10 
REMARK    5  A    between atoms: C12_17  and  C13_18 
REMARK    6  A    between atoms: C17_24  and  N5_25 
ROOT
HETATM    1  C8  UNL     1      24.875   3.965  49.987  1.00  0.00     0.198 A 
HETATM    2  N1  UNL     1      25.569   2.797  49.891  1.00  0.00    -0.122 NA
HETATM    3  N2  UNL     1      26.771   3.049  49.354  1.00  0.00    -0.126 NA
HETATM    4  C9  UNL     1      26.803   4.374  49.127  1.00  0.00     0.199 A 
HETATM    5  C10 UNL     1      27.782   5.192  48.596  1.00  0.00     0.165 A 
HETATM    6  F1  UNL     1      28.958   4.696  48.191  1.00  0.00    -0.202 F 
HETATM    7  C11 UNL     1      27.569   6.551  48.468  1.00  0.00     0.062 A 
HETATM    8  C12 UNL     1      26.365   7.121  48.871  1.00  0.00     0.024 A 
HETATM    9  C17 UNL     1      25.391   6.287  49.403  1.00  0.00     0.120 A 
HETATM   10  N6  UNL     1      25.648   4.970  49.506  1.00  0.00    -0.254 N 
ENDROOT
BRANCH   1  11
HETATM   11  S1  UNL     1      23.207   4.158  50.651  1.00  0.00    -0.081 SA
BRANCH  11  12
HETATM   12  C7  UNL     1      23.361   3.645  52.410  1.00  0.00     0.084 A 
HETATM   13  C6  UNL     1      24.731   3.175  52.744  1.00  0.00     0.061 A 
HETATM   14  C5  UNL     1      24.547   1.730  53.024  1.00  0.00    -0.013 A 
HETATM   15  C4  UNL     1      25.186   0.627  53.375  1.00  0.00     0.036 A 
HETATM   16  C19 UNL     1      23.159   1.325  52.873  1.00  0.00     0.061 A 
HETATM   17  C20 UNL     1      24.239  -0.496  53.456  1.00  0.00     0.133 A 
HETATM   18  N7  UNL     1      23.083  -0.047  53.159  1.00  0.00    -0.260 NA
HETATM   19  C18 UNL     1      22.522   2.428  52.527  1.00  0.00     0.021 A 
BRANCH  15  20
HETATM   20  C3  UNL     1      26.614   0.519  53.653  1.00  0.00     0.161 C 
HETATM   21  O1  UNL     1      27.134   1.267  54.517  1.00  0.00    -0.292 OA
BRANCH  20  22
HETATM   22  C2  UNL     1      27.453  -0.470  52.925  1.00  0.00     0.079 C 
HETATM   23  C1  UNL     1      28.851  -0.527  53.548  1.00  0.00     0.013 C 
ENDBRANCH  20  22
ENDBRANCH  15  20
ENDBRANCH  11  12
ENDBRANCH   1  11
BRANCH   9  24
HETATM   24  N5  UNL     1      24.184   6.881  49.805  1.00  0.00    -0.384 N 
HETATM   25  H15 UNL     1      23.816   7.449  50.624  1.00  0.00     0.157 HD
HETATM   26  H16 UNL     1      23.343   6.811  49.216  1.00  0.00     0.157 HD
ENDBRANCH   9  24
BRANCH   8  27
HETATM   27  C13 UNL     1      26.212   8.568  48.710  1.00  0.00     0.014 A 
HETATM   28  C14 UNL     1      26.412   9.665  49.529  1.00  0.00     0.152 A 
HETATM   29  N3  UNL     1      26.101  10.792  48.825  1.00  0.00    -0.185 NA
HETATM   30  N4  UNL     1      25.715  10.437  47.601  1.00  0.00    -0.285 N 
HETATM   31  C15 UNL     1      25.322  11.432  46.620  1.00  0.00     0.179 C 
HETATM   32  C16 UNL     1      25.776   9.093  47.513  1.00  0.00     0.125 A 
ENDBRANCH   8  27
TORSDOF 6
ENDMDL
MODEL 9
REMARK VINA RESULT:      -8.1      4.279      7.783
REMARK  6 active torsions:
REMARK  status: ('A' for Active; 'I' for Inactive)
REMARK    1  A    between atoms: C2_2  and  C3_3 
REMARK    2  A    between atoms: C3_3  and  C4_5 
REMARK    3  A    between atoms: C7_8  and  S1_9 
REMARK    4  A    between atoms: S1_9  and  C8_10 
REMARK    5  A    between atoms: C12_17  and  C13_18 
REMARK    6  A    between atoms: C17_24  and  N5_25 
ROOT
HETATM    1  C8  UNL     1      22.503   2.956  51.250  1.00  0.00     0.198 A 
HETATM    2  N1  UNL     1      22.321   3.864  50.252  1.00  0.00    -0.122 NA
HETATM    3  N2  UNL     1      23.495   4.079  49.641  1.00  0.00    -0.126 NA
HETATM    4  C9  UNL     1      24.388   3.297  50.273  1.00  0.00     0.199 A 
HETATM    5  C10 UNL     1      25.742   3.102  50.075  1.00  0.00     0.165 A 
HETATM    6  F1  UNL     1      26.405   3.756  49.112  1.00  0.00    -0.202 F 
HETATM    7  C11 UNL     1      26.448   2.223  50.871  1.00  0.00     0.062 A 
HETATM    8  C12 UNL     1      25.812   1.518  51.887  1.00  0.00     0.024 A 
HETATM    9  C17 UNL     1      24.452   1.723  52.075  1.00  0.00     0.120 A 
HETATM   10  N6  UNL     1      23.809   2.591  51.271  1.00  0.00    -0.254 N 
ENDROOT
BRANCH   1  11
HETATM   11  S1  UNL     1      21.225   2.330  52.361  1.00  0.00    -0.081 SA
BRANCH  11  12
HETATM   12  C7  UNL     1      20.769   0.698  51.648  1.00  0.00     0.084 A 
HETATM   13  C6  UNL     1      19.549   0.772  50.802  1.00  0.00     0.061 A 
HETATM   14  C5  UNL     1      18.549  -0.019  51.561  1.00  0.00    -0.013 A 
HETATM   15  C4  UNL     1      17.298  -0.446  51.542  1.00  0.00     0.036 A 
HETATM   16  C19 UNL     1      19.106  -0.548  52.795  1.00  0.00     0.061 A 
HETATM   17  C20 UNL     1      17.024  -1.247  52.745  1.00  0.00     0.133 A 
HETATM   18  N7  UNL     1      18.095  -1.279  53.438  1.00  0.00    -0.260 NA
HETATM   19  C18 UNL     1      20.355  -0.124  52.810  1.00  0.00     0.021 A 
BRANCH  15  20
HETATM   20  C3  UNL     1      16.321  -0.182  50.492  1.00  0.00     0.161 C 
HETATM   21  O1  UNL     1      16.567  -0.540  49.314  1.00  0.00    -0.292 OA
BRANCH  20  22
HETATM   22  C2  UNL     1      15.038   0.503  50.806  1.00  0.00     0.079 C 
HETATM   23  C1  UNL     1      15.310   1.948  51.235  1.00  0.00     0.013 C 
ENDBRANCH  20  22
ENDBRANCH  15  20
ENDBRANCH  11  12
ENDBRANCH   1  11
BRANCH   9  24
HETATM   24  N5  UNL     1      23.827   1.002  53.104  1.00  0.00    -0.384 N 
HETATM   25  H15 UNL     1      22.840   0.812  53.451  1.00  0.00     0.157 HD
HETATM   26  H16 UNL     1      24.383   0.462  53.781  1.00  0.00     0.157 HD
ENDBRANCH   9  24
BRANCH   8  27
HETATM   27  C13 UNL     1      26.624   0.599  52.688  1.00  0.00     0.014 A 
HETATM   28  C14 UNL     1      27.170   0.637  53.958  1.00  0.00     0.152 A 
HETATM   29  N3  UNL     1      27.843  -0.530  54.174  1.00  0.00    -0.185 NA
HETATM   30  N4  UNL     1      27.737  -1.291  53.086  1.00  0.00    -0.285 N 
HETATM   31  C15 UNL     1      28.356  -2.603  53.025  1.00  0.00     0.179 C 
HETATM   32  C16 UNL     1      27.002  -0.623  52.175  1.00  0.00     0.125 A 
ENDBRANCH   8  27
TORSDOF 6
ENDMDL
