MODEL 1
REMARK VINA RESULT:      -7.1      0.000      0.000
REMARK  6 active torsions:
REMARK  status: ('A' for Active; 'I' for Inactive)
REMARK    1  A    between atoms: C1_2  and  C2_3 
REMARK       I    between atoms: C1_2  and  N2_13 
REMARK    2  A    between atoms: C3_5  and  C4_6 
REMARK    3  A    between atoms: C4_6  and  N1_7 
REMARK    4  A    between atoms: C14_20  and  N5_21 
REMARK    5  A    between atoms: N5_21  and  C15_22 
REMARK    6  A    between atoms: C15_22  and  C16_23 
ROOT
HETATM    1  C16 UNL     1      22.923   5.891  51.252  1.00  0.00    -0.074 C 
HETATM    2  C17 UNL     1      23.249   6.840  50.576  1.00  0.00    -0.022 C 
HETATM    3 BR1  UNL     1      23.727   8.315  49.510  1.00  0.00     0.010 Br
ENDROOT
BRANCH   1   4
HETATM    4  C15 UNL     1      22.531   4.749  52.076  1.00  0.00     0.216 C 
BRANCH   4   5
HETATM    5  N5  UNL     1      23.238   3.523  51.669  1.00  0.00    -0.364 N 
HETATM    6  H19 UNL     1      24.029   3.085  52.177  1.00  0.00     0.162 HD
BRANCH   5   7
HETATM    7  C14 UNL     1      22.670   3.025  50.464  1.00  0.00     0.135 C 
HETATM    8  N4  UNL     1      23.046   2.966  49.233  1.00  0.00    -0.225 NA
HETATM    9  C13 UNL     1      22.237   2.417  48.205  1.00  0.00     0.230 C 
HETATM   10  N3  UNL     1      21.007   1.923  48.307  1.00  0.00    -0.269 NA
HETATM   11  C12 UNL     1      20.446   1.984  49.619  1.00  0.00     0.171 A 
HETATM   12  C11 UNL     1      19.408   1.064  50.006  1.00  0.00     0.023 A 
HETATM   13  C18 UNL     1      21.485   2.149  50.647  1.00  0.00     0.032 A 
HETATM   14  C10 UNL     1      19.270   0.398  51.138  1.00  0.00     0.098 A 
HETATM   15  N2  UNL     1      20.265   0.573  52.144  1.00  0.00    -0.301 N 
HETATM   16  C1  UNL     1      20.142  -0.110  53.359  1.00  0.00     0.259 C 
HETATM   17  C19 UNL     1      21.313   1.462  51.786  1.00  0.00     0.113 A 
HETATM   18  O1  UNL     1      19.107  -0.856  53.453  1.00  0.00    -0.270 OA
BRANCH  16  19
HETATM   19  C2  UNL     1      21.037  -0.082  54.523  1.00  0.00     0.245 A 
HETATM   20  O2  UNL     1      21.361  -1.339  55.002  1.00  0.00    -0.364 OA
HETATM   21  C3  UNL     1      22.401  -0.546  54.575  1.00  0.00     0.178 A 
BRANCH  21  22
HETATM   22  C4  UNL     1      23.235  -1.023  53.436  1.00  0.00     0.151 C 
BRANCH  22  23
HETATM   23  N1  UNL     1      24.596  -0.608  53.431  1.00  0.00    -0.410 N 
HETATM   24  C5  UNL     1      24.946   0.474  52.589  1.00  0.00     0.117 C 
HETATM   25  C6  UNL     1      26.416   0.511  52.314  1.00  0.00     0.019 C 
HETATM   26  C7  UNL     1      27.284   0.107  53.471  1.00  0.00     0.003 C 
HETATM   27  C8  UNL     1      26.500   0.164  54.744  1.00  0.00     0.019 C 
HETATM   28  C9  UNL     1      25.259  -0.703  54.682  1.00  0.00     0.117 C 
ENDBRANCH  22  23
ENDBRANCH  21  22
ENDBRANCH  16  19
ENDBRANCH   5   7
ENDBRANCH   4   5
ENDBRANCH   1   4
TORSDOF 6
ENDMDL
MODEL 2
REMARK VINA RESULT:      -7.1      2.424      5.807
REMARK  6 active torsions:
REMARK  status: ('A' for Active; 'I' for Inactive)
REMARK    1  A    between atoms: C1_2  and  C2_3 
REMARK       I    between atoms: C1_2  and  N2_13 
REMARK    2  A    between atoms: C3_5  and  C4_6 
REMARK    3  A    between atoms: C4_6  and  N1_7 
REMARK    4  A    between atoms: C14_20  and  N5_21 
REMARK    5  A    between atoms: N5_21  and  C15_22 
REMARK    6  A    between atoms: C15_22  and  C16_23 
ROOT
HETATM    1  C16 UNL     1      26.537   3.819  50.048  1.00  0.00    -0.074 C 
HETATM    2  C17 UNL     1      26.781   4.794  49.374  1.00  0.00    -0.022 C 
HETATM    3 BR1  UNL     1      27.159   6.328  48.353  1.00  0.00     0.010 Br
ENDROOT
BRANCH   1   4
HETATM    4  C15 UNL     1      26.250   2.637  50.860  1.00  0.00     0.216 C 
BRANCH   4   5
HETATM    5  N5  UNL     1      25.655   3.006  52.155  1.00  0.00    -0.364 N 
HETATM    6  H19 UNL     1      25.169   3.898  52.365  1.00  0.00     0.162 HD
BRANCH   5   7
HETATM    7  C14 UNL     1      25.847   1.947  53.084  1.00  0.00     0.135 C 
HETATM    8  N4  UNL     1      26.730   1.666  53.980  1.00  0.00    -0.225 NA
HETATM    9  C13 UNL     1      26.679   0.488  54.769  1.00  0.00     0.230 C 
HETATM   10  N3  UNL     1      25.788  -0.497  54.716  1.00  0.00    -0.269 NA
HETATM   11  C12 UNL     1      24.781  -0.336  53.716  1.00  0.00     0.171 A 
HETATM   12  C11 UNL     1      23.505  -0.988  53.862  1.00  0.00     0.023 A 
HETATM   13  C18 UNL     1      24.668   1.063  53.278  1.00  0.00     0.032 A 
HETATM   14  C10 UNL     1      22.297  -0.506  53.635  1.00  0.00     0.098 A 
HETATM   15  N2  UNL     1      22.187   0.845  53.191  1.00  0.00    -0.301 N 
HETATM   16  C1  UNL     1      20.922   1.382  52.930  1.00  0.00     0.259 C 
HETATM   17  C19 UNL     1      23.429   1.521  53.052  1.00  0.00     0.113 A 
HETATM   18  O1  UNL     1      19.947   0.577  53.125  1.00  0.00    -0.270 OA
BRANCH  16  19
HETATM   19  C2  UNL     1      20.574   2.732  52.470  1.00  0.00     0.245 A 
HETATM   20  O2  UNL     1      21.673   3.543  52.251  1.00  0.00    -0.364 OA
HETATM   21  C3  UNL     1      20.851   3.301  51.175  1.00  0.00     0.178 A 
BRANCH  21  22
HETATM   22  C4  UNL     1      21.423   2.605  49.988  1.00  0.00     0.151 C 
BRANCH  22  23
HETATM   23  N1  UNL     1      21.716   3.418  48.859  1.00  0.00    -0.410 N 
HETATM   24  C5  UNL     1      22.999   4.013  48.796  1.00  0.00     0.117 C 
HETATM   25  C6  UNL     1      23.027   5.176  47.856  1.00  0.00     0.019 C 
HETATM   26  C7  UNL     1      22.179   5.015  46.627  1.00  0.00     0.003 C 
HETATM   27  C8  UNL     1      21.836   3.572  46.428  1.00  0.00     0.019 C 
HETATM   28  C9  UNL     1      21.138   2.986  47.638  1.00  0.00     0.117 C 
ENDBRANCH  22  23
ENDBRANCH  21  22
ENDBRANCH  16  19
ENDBRANCH   5   7
ENDBRANCH   4   5
ENDBRANCH   1   4
TORSDOF 6
ENDMDL
MODEL 3
REMARK VINA RESULT:      -6.9      2.344      5.922
REMARK  6 active torsions:
REMARK  status: ('A' for Active; 'I' for Inactive)
REMARK    1  A    between atoms: C1_2  and  C2_3 
REMARK       I    between atoms: C1_2  and  N2_13 
REMARK    2  A    between atoms: C3_5  and  C4_6 
REMARK    3  A    between atoms: C4_6  and  N1_7 
REMARK    4  A    between atoms: C14_20  and  N5_21 
REMARK    5  A    between atoms: N5_21  and  C15_22 
REMARK    6  A    between atoms: C15_22  and  C16_23 
ROOT
HETATM    1  C16 UNL     1      24.694   3.246  49.440  1.00  0.00    -0.074 C 
HETATM    2  C17 UNL     1      23.701   3.167  48.752  1.00  0.00    -0.022 C 
HETATM    3 BR1  UNL     1      22.176   3.047  47.656  1.00  0.00     0.010 Br
ENDROOT
BRANCH   1   4
HETATM    4  C15 UNL     1      25.891   3.333  50.275  1.00  0.00     0.216 C 
BRANCH   4   5
HETATM    5  N5  UNL     1      26.531   2.016  50.434  1.00  0.00    -0.364 N 
HETATM    6  H19 UNL     1      26.637   1.302  49.690  1.00  0.00     0.162 HD
BRANCH   5   7
HETATM    7  C14 UNL     1      26.989   1.871  51.773  1.00  0.00     0.135 C 
HETATM    8  N4  UNL     1      27.867   2.464  52.508  1.00  0.00    -0.225 NA
HETATM    9  C13 UNL     1      28.139   2.079  53.846  1.00  0.00     0.230 C 
HETATM   10  N3  UNL     1      27.597   1.081  54.537  1.00  0.00    -0.269 NA
HETATM   11  C12 UNL     1      26.644   0.302  53.813  1.00  0.00     0.171 A 
HETATM   12  C11 UNL     1      25.625  -0.432  54.518  1.00  0.00     0.023 A 
HETATM   13  C18 UNL     1      26.131   1.024  52.640  1.00  0.00     0.032 A 
HETATM   14  C10 UNL     1      24.341  -0.549  54.231  1.00  0.00     0.098 A 
HETATM   15  N2  UNL     1      23.845   0.134  53.082  1.00  0.00    -0.301 N 
HETATM   16  C1  UNL     1      22.492   0.021  52.746  1.00  0.00     0.259 C 
HETATM   17  C19 UNL     1      24.824   0.881  52.375  1.00  0.00     0.113 A 
HETATM   18  O1  UNL     1      21.802  -0.713  53.535  1.00  0.00    -0.270 OA
BRANCH  16  19
HETATM   19  C2  UNL     1      21.771   0.630  51.621  1.00  0.00     0.245 A 
HETATM   20  O2  UNL     1      20.538   1.152  51.971  1.00  0.00    -0.364 OA
HETATM   21  C3  UNL     1      21.462   2.028  51.448  1.00  0.00     0.178 A 
BRANCH  21  22
HETATM   22  C4  UNL     1      21.921   3.164  52.295  1.00  0.00     0.151 C 
BRANCH  22  23
HETATM   23  N1  UNL     1      21.759   4.466  51.748  1.00  0.00    -0.410 N 
HETATM   24  C5  UNL     1      22.924   5.248  51.562  1.00  0.00     0.117 C 
HETATM   25  C6  UNL     1      22.603   6.703  51.439  1.00  0.00     0.019 C 
HETATM   26  C7  UNL     1      21.331   7.009  50.702  1.00  0.00     0.003 C 
HETATM   27  C8  UNL     1      20.902   5.816  49.907  1.00  0.00     0.019 C 
HETATM   28  C9  UNL     1      20.730   4.589  50.779  1.00  0.00     0.117 C 
ENDBRANCH  22  23
ENDBRANCH  21  22
ENDBRANCH  16  19
ENDBRANCH   5   7
ENDBRANCH   4   5
ENDBRANCH   1   4
TORSDOF 6
ENDMDL
MODEL 4
REMARK VINA RESULT:      -6.8      2.535      5.679
REMARK  6 active torsions:
REMARK  status: ('A' for Active; 'I' for Inactive)
REMARK    1  A    between atoms: C1_2  and  C2_3 
REMARK       I    between atoms: C1_2  and  N2_13 
REMARK    2  A    between atoms: C3_5  and  C4_6 
REMARK    3  A    between atoms: C4_6  and  N1_7 
REMARK    4  A    between atoms: C14_20  and  N5_21 
REMARK    5  A    between atoms: N5_21  and  C15_22 
REMARK    6  A    between atoms: C15_22  and  C16_23 
ROOT
HETATM    1  C16 UNL     1      27.016   4.391  48.980  1.00  0.00    -0.074 C 
HETATM    2  C17 UNL     1      27.240   5.527  48.629  1.00  0.00    -0.022 C 
HETATM    3 BR1  UNL     1      27.578   7.304  48.110  1.00  0.00     0.010 Br
ENDROOT
BRANCH   1   4
HETATM    4  C15 UNL     1      26.755   3.016  49.405  1.00  0.00     0.216 C 
BRANCH   4   5
HETATM    5  N5  UNL     1      25.451   2.901  50.078  1.00  0.00    -0.364 N 
HETATM    6  H19 UNL     1      24.539   3.200  49.685  1.00  0.00     0.162 HD
BRANCH   5   7
HETATM    7  C14 UNL     1      25.629   2.309  51.359  1.00  0.00     0.135 C 
HETATM    8  N4  UNL     1      26.486   2.439  52.314  1.00  0.00    -0.225 NA
HETATM    9  C13 UNL     1      26.429   1.676  53.508  1.00  0.00     0.230 C 
HETATM   10  N3  UNL     1      25.558   0.725  53.833  1.00  0.00    -0.269 NA
HETATM   11  C12 UNL     1      24.583   0.441  52.829  1.00  0.00     0.171 A 
HETATM   12  C11 UNL     1      23.316  -0.136  53.194  1.00  0.00     0.023 A 
HETATM   13  C18 UNL     1      24.461   1.543  51.863  1.00  0.00     0.032 A 
HETATM   14  C10 UNL     1      22.108   0.177  52.762  1.00  0.00     0.098 A 
HETATM   15  N2  UNL     1      21.988   1.232  51.810  1.00  0.00    -0.301 N 
HETATM   16  C1  UNL     1      20.723   1.581  51.325  1.00  0.00     0.259 C 
HETATM   17  C19 UNL     1      23.222   1.833  51.442  1.00  0.00     0.113 A 
HETATM   18  O1  UNL     1      19.757   0.892  51.803  1.00  0.00    -0.270 OA
BRANCH  16  19
HETATM   19  C2  UNL     1      20.367   2.622  50.352  1.00  0.00     0.245 A 
HETATM   20  O2  UNL     1      19.293   3.400  50.744  1.00  0.00    -0.364 OA
HETATM   21  C3  UNL     1      20.489   4.047  50.531  1.00  0.00     0.178 A 
BRANCH  21  22
HETATM   22  C4  UNL     1      21.122   4.763  51.674  1.00  0.00     0.151 C 
BRANCH  22  23
HETATM   23  N1  UNL     1      22.045   5.792  51.343  1.00  0.00    -0.410 N 
HETATM   24  C5  UNL     1      23.268   5.406  50.744  1.00  0.00     0.117 C 
HETATM   25  C6  UNL     1      24.310   6.470  50.874  1.00  0.00     0.019 C 
HETATM   26  C7  UNL     1      23.795   7.876  50.762  1.00  0.00     0.003 C 
HETATM   27  C8  UNL     1      22.436   7.874  50.135  1.00  0.00     0.019 C 
HETATM   28  C9  UNL     1      21.460   7.009  50.906  1.00  0.00     0.117 C 
ENDBRANCH  22  23
ENDBRANCH  21  22
ENDBRANCH  16  19
ENDBRANCH   5   7
ENDBRANCH   4   5
ENDBRANCH   1   4
TORSDOF 6
ENDMDL
MODEL 5
REMARK VINA RESULT:      -6.7      5.701      7.443
REMARK  6 active torsions:
REMARK  status: ('A' for Active; 'I' for Inactive)
REMARK    1  A    between atoms: C1_2  and  C2_3 
REMARK       I    between atoms: C1_2  and  N2_13 
REMARK    2  A    between atoms: C3_5  and  C4_6 
REMARK    3  A    between atoms: C4_6  and  N1_7 
REMARK    4  A    between atoms: C14_20  and  N5_21 
REMARK    5  A    between atoms: N5_21  and  C15_22 
REMARK    6  A    between atoms: C15_22  and  C16_23 
ROOT
HETATM    1  C16 UNL     1      32.126   6.151  48.183  1.00  0.00    -0.074 C 
HETATM    2  C17 UNL     1      33.193   6.721  48.208  1.00  0.00    -0.022 C 
HETATM    3 BR1  UNL     1      34.866   7.581  48.259  1.00  0.00     0.010 Br
ENDROOT
BRANCH   1   4
HETATM    4  C15 UNL     1      30.836   5.463  48.144  1.00  0.00     0.216 C 
BRANCH   4   5
HETATM    5  N5  UNL     1      29.820   6.183  48.930  1.00  0.00    -0.364 N 
HETATM    6  H19 UNL     1      29.745   6.184  49.964  1.00  0.00     0.162 HD
BRANCH   5   7
HETATM    7  C14 UNL     1      28.950   6.885  48.050  1.00  0.00     0.135 C 
HETATM    8  N4  UNL     1      29.100   7.560  46.963  1.00  0.00    -0.225 NA
HETATM    9  C13 UNL     1      28.021   8.191  46.292  1.00  0.00     0.230 C 
HETATM   10  N3  UNL     1      26.742   8.228  46.652  1.00  0.00    -0.269 NA
HETATM   11  C12 UNL     1      26.449   7.562  47.881  1.00  0.00     0.171 A 
HETATM   12  C11 UNL     1      25.121   7.065  48.135  1.00  0.00     0.023 A 
HETATM   13  C18 UNL     1      27.504   6.606  48.247  1.00  0.00     0.032 A 
HETATM   14  C10 UNL     1      24.755   5.910  48.661  1.00  0.00     0.098 A 
HETATM   15  N2  UNL     1      25.778   4.990  49.035  1.00  0.00    -0.301 N 
HETATM   16  C1  UNL     1      25.424   3.762  49.604  1.00  0.00     0.259 C 
HETATM   17  C19 UNL     1      27.100   5.445  48.780  1.00  0.00     0.113 A 
HETATM   18  O1  UNL     1      24.165   3.577  49.738  1.00  0.00    -0.270 OA
BRANCH  16  19
HETATM   19  C2  UNL     1      26.298   2.674  50.060  1.00  0.00     0.245 A 
HETATM   20  O2  UNL     1      27.209   3.063  51.025  1.00  0.00    -0.364 OA
HETATM   21  C3  UNL     1      26.317   2.074  51.371  1.00  0.00     0.178 A 
BRANCH  21  22
HETATM   22  C4  UNL     1      25.373   2.331  52.494  1.00  0.00     0.151 C 
BRANCH  22  23
HETATM   23  N1  UNL     1      24.333   1.379  52.677  1.00  0.00    -0.410 N 
HETATM   24  C5  UNL     1      24.590   0.286  53.539  1.00  0.00     0.117 C 
HETATM   25  C6  UNL     1      23.650  -0.850  53.292  1.00  0.00     0.019 C 
HETATM   26  C7  UNL     1      22.247  -0.444  52.941  1.00  0.00     0.003 C 
HETATM   27  C8  UNL     1      22.017   0.984  53.326  1.00  0.00     0.019 C 
HETATM   28  C9  UNL     1      23.019   1.914  52.674  1.00  0.00     0.117 C 
ENDBRANCH  22  23
ENDBRANCH  21  22
ENDBRANCH  16  19
ENDBRANCH   5   7
ENDBRANCH   4   5
ENDBRANCH   1   4
TORSDOF 6
ENDMDL
MODEL 6
REMARK VINA RESULT:      -6.7      5.313      7.243
REMARK  6 active torsions:
REMARK  status: ('A' for Active; 'I' for Inactive)
REMARK    1  A    between atoms: C1_2  and  C2_3 
REMARK       I    between atoms: C1_2  and  N2_13 
REMARK    2  A    between atoms: C3_5  and  C4_6 
REMARK    3  A    between atoms: C4_6  and  N1_7 
REMARK    4  A    between atoms: C14_20  and  N5_21 
REMARK    5  A    between atoms: N5_21  and  C15_22 
REMARK    6  A    between atoms: C15_22  and  C16_23 
ROOT
HETATM    1  C16 UNL     1      30.607   5.739  47.717  1.00  0.00    -0.074 C 
HETATM    2  C17 UNL     1      31.700   5.223  47.680  1.00  0.00    -0.022 C 
HETATM    3 BR1  UNL     1      33.387   4.392  47.623  1.00  0.00     0.010 Br
ENDROOT
BRANCH   1   4
HETATM    4  C15 UNL     1      29.286   6.367  47.753  1.00  0.00     0.216 C 
BRANCH   4   5
HETATM    5  N5  UNL     1      29.087   7.128  48.997  1.00  0.00    -0.364 N 
HETATM    6  H19 UNL     1      29.600   6.978  49.886  1.00  0.00     0.162 HD
BRANCH   5   7
HETATM    7  C14 UNL     1      28.080   8.111  48.796  1.00  0.00     0.135 C 
HETATM    8  N4  UNL     1      27.967   9.169  48.067  1.00  0.00    -0.225 NA
HETATM    9  C13 UNL     1      26.818  10.000  48.087  1.00  0.00     0.230 C 
HETATM   10  N3  UNL     1      25.727   9.872  48.836  1.00  0.00    -0.269 NA
HETATM   11  C12 UNL     1      25.749   8.765  49.738  1.00  0.00     0.171 A 
HETATM   12  C11 UNL     1      24.516   8.189  50.207  1.00  0.00     0.023 A 
HETATM   13  C18 UNL     1      26.743   7.757  49.338  1.00  0.00     0.032 A 
HETATM   14  C10 UNL     1      24.193   6.915  50.339  1.00  0.00     0.098 A 
HETATM   15  N2  UNL     1      25.163   5.936  49.971  1.00  0.00    -0.301 N 
HETATM   16  C1  UNL     1      24.856   4.578  50.109  1.00  0.00     0.259 C 
HETATM   17  C19 UNL     1      26.386   6.473  49.487  1.00  0.00     0.113 A 
HETATM   18  O1  UNL     1      23.688   4.337  50.570  1.00  0.00    -0.270 OA
BRANCH  16  19
HETATM   19  C2  UNL     1      25.690   3.411  49.795  1.00  0.00     0.245 A 
HETATM   20  O2  UNL     1      27.010   3.554  50.185  1.00  0.00    -0.364 OA
HETATM   21  C3  UNL     1      26.304   2.511  50.740  1.00  0.00     0.178 A 
BRANCH  21  22
HETATM   22  C4  UNL     1      26.117   2.488  52.217  1.00  0.00     0.151 C 
BRANCH  22  23
HETATM   23  N1  UNL     1      26.980   1.628  52.951  1.00  0.00    -0.410 N 
HETATM   24  C5  UNL     1      28.219   2.157  53.381  1.00  0.00     0.117 C 
HETATM   25  C6  UNL     1      29.201   1.078  53.708  1.00  0.00     0.019 C 
HETATM   26  C7  UNL     1      28.608  -0.142  54.350  1.00  0.00     0.003 C 
HETATM   27  C8  UNL     1      27.248   0.174  54.889  1.00  0.00     0.019 C 
HETATM   28  C9  UNL     1      26.326   0.712  53.815  1.00  0.00     0.117 C 
ENDBRANCH  22  23
ENDBRANCH  21  22
ENDBRANCH  16  19
ENDBRANCH   5   7
ENDBRANCH   4   5
ENDBRANCH   1   4
TORSDOF 6
ENDMDL
MODEL 7
REMARK VINA RESULT:      -6.4      2.489      6.069
REMARK  6 active torsions:
REMARK  status: ('A' for Active; 'I' for Inactive)
REMARK    1  A    between atoms: C1_2  and  C2_3 
REMARK       I    between atoms: C1_2  and  N2_13 
REMARK    2  A    between atoms: C3_5  and  C4_6 
REMARK    3  A    between atoms: C4_6  and  N1_7 
REMARK    4  A    between atoms: C14_20  and  N5_21 
REMARK    5  A    between atoms: N5_21  and  C15_22 
REMARK    6  A    between atoms: C15_22  and  C16_23 
ROOT
HETATM    1  C16 UNL     1      20.827   1.766  50.029  1.00  0.00    -0.074 C 
HETATM    2  C17 UNL     1      21.433   2.321  49.141  1.00  0.00    -0.022 C 
HETATM    3 BR1  UNL     1      22.348   3.200  47.752  1.00  0.00     0.010 Br
ENDROOT
BRANCH   1   4
HETATM    4  C15 UNL     1      20.101   1.098  51.108  1.00  0.00     0.216 C 
BRANCH   4   5
HETATM    5  N5  UNL     1      20.679   1.419  52.424  1.00  0.00    -0.364 N 
HETATM    6  H19 UNL     1      20.951   2.365  52.750  1.00  0.00     0.162 HD
BRANCH   5   7
HETATM    7  C14 UNL     1      20.809   0.226  53.188  1.00  0.00     0.135 C 
HETATM    8  N4  UNL     1      20.072  -0.811  53.395  1.00  0.00    -0.225 NA
HETATM    9  C13 UNL     1      20.458  -1.872  54.254  1.00  0.00     0.230 C 
HETATM   10  N3  UNL     1      21.565  -1.974  54.983  1.00  0.00    -0.269 NA
HETATM   11  C12 UNL     1      22.447  -0.854  54.889  1.00  0.00     0.171 A 
HETATM   12  C11 UNL     1      23.851  -1.015  55.164  1.00  0.00     0.023 A 
HETATM   13  C18 UNL     1      22.180  -0.052  53.686  1.00  0.00     0.032 A 
HETATM   14  C10 UNL     1      24.885  -0.525  54.505  1.00  0.00     0.098 A 
HETATM   15  N2  UNL     1      24.629   0.271  53.350  1.00  0.00    -0.301 N 
HETATM   16  C1  UNL     1      25.702   0.813  52.635  1.00  0.00     0.259 C 
HETATM   17  C19 UNL     1      23.251   0.434  53.042  1.00  0.00     0.113 A 
HETATM   18  O1  UNL     1      26.857   0.531  53.107  1.00  0.00    -0.270 OA
BRANCH  16  19
HETATM   19  C2  UNL     1      25.675   1.652  51.431  1.00  0.00     0.245 A 
HETATM   20  O2  UNL     1      24.420   1.755  50.857  1.00  0.00    -0.364 OA
HETATM   21  C3  UNL     1      25.011   2.923  51.279  1.00  0.00     0.178 A 
BRANCH  21  22
HETATM   22  C4  UNL     1      24.332   3.718  52.340  1.00  0.00     0.151 C 
BRANCH  22  23
HETATM   23  N1  UNL     1      23.538   4.813  51.900  1.00  0.00    -0.410 N 
HETATM   24  C5  UNL     1      24.013   5.564  50.798  1.00  0.00     0.117 C 
HETATM   25  C6  UNL     1      23.376   6.914  50.729  1.00  0.00     0.019 C 
HETATM   26  C7  UNL     1      21.931   6.952  51.136  1.00  0.00     0.003 C 
HETATM   27  C8  UNL     1      21.358   5.570  51.115  1.00  0.00     0.019 C 
HETATM   28  C9  UNL     1      22.136   4.622  52.004  1.00  0.00     0.117 C 
ENDBRANCH  22  23
ENDBRANCH  21  22
ENDBRANCH  16  19
ENDBRANCH   5   7
ENDBRANCH   4   5
ENDBRANCH   1   4
TORSDOF 6
ENDMDL
MODEL 8
REMARK VINA RESULT:      -6.4      2.790      6.634
REMARK  6 active torsions:
REMARK  status: ('A' for Active; 'I' for Inactive)
REMARK    1  A    between atoms: C1_2  and  C2_3 
REMARK       I    between atoms: C1_2  and  N2_13 
REMARK    2  A    between atoms: C3_5  and  C4_6 
REMARK    3  A    between atoms: C4_6  and  N1_7 
REMARK    4  A    between atoms: C14_20  and  N5_21 
REMARK    5  A    between atoms: N5_21  and  C15_22 
REMARK    6  A    between atoms: C15_22  and  C16_23 
ROOT
HETATM    1  C16 UNL     1      25.100   3.213  50.129  1.00  0.00    -0.074 C 
HETATM    2  C17 UNL     1      24.275   3.714  49.399  1.00  0.00    -0.022 C 
HETATM    3 BR1  UNL     1      23.010   4.485  48.239  1.00  0.00     0.010 Br
ENDROOT
BRANCH   1   4
HETATM    4  C15 UNL     1      26.091   2.602  51.014  1.00  0.00     0.216 C 
BRANCH   4   5
HETATM    5  N5  UNL     1      25.874   2.995  52.416  1.00  0.00    -0.364 N 
HETATM    6  H19 UNL     1      25.689   3.959  52.751  1.00  0.00     0.162 HD
BRANCH   5   7
HETATM    7  C14 UNL     1      25.955   1.846  53.249  1.00  0.00     0.135 C 
HETATM    8  N4  UNL     1      26.778   1.425  54.148  1.00  0.00    -0.225 NA
HETATM    9  C13 UNL     1      26.615   0.187  54.822  1.00  0.00     0.230 C 
HETATM   10  N3  UNL     1      25.665  -0.725  54.643  1.00  0.00    -0.269 NA
HETATM   11  C12 UNL     1      24.715  -0.405  53.625  1.00  0.00     0.171 A 
HETATM   12  C11 UNL     1      23.395  -0.979  53.661  1.00  0.00     0.023 A 
HETATM   13  C18 UNL     1      24.714   1.032  53.315  1.00  0.00     0.032 A 
HETATM   14  C10 UNL     1      22.232  -0.396  53.434  1.00  0.00     0.098 A 
HETATM   15  N2  UNL     1      22.230   0.994  53.113  1.00  0.00    -0.301 N 
HETATM   16  C1  UNL     1      21.015   1.638  52.856  1.00  0.00     0.259 C 
HETATM   17  C19 UNL     1      23.518   1.593  53.086  1.00  0.00     0.113 A 
HETATM   18  O1  UNL     1      19.982   0.888  52.938  1.00  0.00    -0.270 OA
BRANCH  16  19
HETATM   19  C2  UNL     1      20.776   3.045  52.511  1.00  0.00     0.245 A 
HETATM   20  O2  UNL     1      21.365   3.430  51.320  1.00  0.00    -0.364 OA
HETATM   21  C3  UNL     1      19.996   3.542  51.405  1.00  0.00     0.178 A 
BRANCH  21  22
HETATM   22  C4  UNL     1      19.160   2.747  50.462  1.00  0.00     0.151 C 
BRANCH  22  23
HETATM   23  N1  UNL     1      17.759   2.746  50.707  1.00  0.00    -0.410 N 
HETATM   24  C5  UNL     1      17.219   3.840  51.423  1.00  0.00     0.117 C 
HETATM   25  C6  UNL     1      15.884   3.514  52.013  1.00  0.00     0.019 C 
HETATM   26  C7  UNL     1      15.016   2.632  51.162  1.00  0.00     0.003 C 
HETATM   27  C8  UNL     1      15.519   2.628  49.752  1.00  0.00     0.019 C 
HETATM   28  C9  UNL     1      16.966   2.190  49.670  1.00  0.00     0.117 C 
ENDBRANCH  22  23
ENDBRANCH  21  22
ENDBRANCH  16  19
ENDBRANCH   5   7
ENDBRANCH   4   5
ENDBRANCH   1   4
TORSDOF 6
ENDMDL
MODEL 9
REMARK VINA RESULT:      -6.3      2.020      5.394
REMARK  6 active torsions:
REMARK  status: ('A' for Active; 'I' for Inactive)
REMARK    1  A    between atoms: C1_2  and  C2_3 
REMARK       I    between atoms: C1_2  and  N2_13 
REMARK    2  A    between atoms: C3_5  and  C4_6 
REMARK    3  A    between atoms: C4_6  and  N1_7 
REMARK    4  A    between atoms: C14_20  and  N5_21 
REMARK    5  A    between atoms: N5_21  and  C15_22 
REMARK    6  A    between atoms: C15_22  and  C16_23 
ROOT
HETATM    1  C16 UNL     1      25.366   5.093  50.042  1.00  0.00    -0.074 C 
HETATM    2  C17 UNL     1      24.722   6.116  50.093  1.00  0.00    -0.022 C 
HETATM    3 BR1  UNL     1      23.696   7.691  50.183  1.00  0.00     0.010 Br
ENDROOT
BRANCH   1   4
HETATM    4  C15 UNL     1      26.150   3.860  49.986  1.00  0.00     0.216 C 
BRANCH   4   5
HETATM    5  N5  UNL     1      25.469   2.758  50.686  1.00  0.00    -0.364 N 
HETATM    6  H19 UNL     1      24.495   2.445  50.516  1.00  0.00     0.162 HD
BRANCH   5   7
HETATM    7  C14 UNL     1      26.355   2.180  51.637  1.00  0.00     0.135 C 
HETATM    8  N4  UNL     1      27.512   2.489  52.112  1.00  0.00    -0.225 NA
HETATM    9  C13 UNL     1      28.192   1.688  53.065  1.00  0.00     0.230 C 
HETATM   10  N3  UNL     1      27.804   0.529  53.588  1.00  0.00    -0.269 NA
HETATM   11  C12 UNL     1      26.555   0.042  53.096  1.00  0.00     0.171 A 
HETATM   12  C11 UNL     1      25.767  -0.863  53.893  1.00  0.00     0.023 A 
HETATM   13  C18 UNL     1      25.758   1.113  52.480  1.00  0.00     0.032 A 
HETATM   14  C10 UNL     1      24.464  -0.860  54.106  1.00  0.00     0.098 A 
HETATM   15  N2  UNL     1      23.686   0.166  53.492  1.00  0.00    -0.301 N 
HETATM   16  C1  UNL     1      22.302   0.190  53.689  1.00  0.00     0.259 C 
HETATM   17  C19 UNL     1      24.438   1.085  52.712  1.00  0.00     0.113 A 
HETATM   18  O1  UNL     1      21.849  -0.748  54.431  1.00  0.00    -0.270 OA
BRANCH  16  19
HETATM   19  C2  UNL     1      21.315   1.142  53.162  1.00  0.00     0.245 A 
HETATM   20  O2  UNL     1      21.861   2.359  52.797  1.00  0.00    -0.364 OA
HETATM   21  C3  UNL     1      21.231   1.637  51.810  1.00  0.00     0.178 A 
BRANCH  21  22
HETATM   22  C4  UNL     1      22.031   1.193  50.635  1.00  0.00     0.151 C 
BRANCH  22  23
HETATM   23  N1  UNL     1      22.150   2.120  49.563  1.00  0.00    -0.410 N 
HETATM   24  C5  UNL     1      21.681   1.715  48.291  1.00  0.00     0.117 C 
HETATM   25  C6  UNL     1      22.266   2.543  47.193  1.00  0.00     0.019 C 
HETATM   26  C7  UNL     1      22.457   3.994  47.530  1.00  0.00     0.003 C 
HETATM   27  C8  UNL     1      21.637   4.353  48.729  1.00  0.00     0.019 C 
HETATM   28  C9  UNL     1      21.970   3.481  49.922  1.00  0.00     0.117 C 
ENDBRANCH  22  23
ENDBRANCH  21  22
ENDBRANCH  16  19
ENDBRANCH   5   7
ENDBRANCH   4   5
ENDBRANCH   1   4
TORSDOF 6
ENDMDL
