MODEL 1
REMARK VINA RESULT:      -8.2      0.000      0.000
REMARK  7 active torsions:
REMARK  status: ('A' for Active; 'I' for Inactive)
REMARK    1  A    between atoms: C1_1  and  N1_8 
REMARK    2  A    between atoms: C2_2  and  C3_3 
REMARK    3  A    between atoms: N1_8  and  C8_9 
REMARK    4  A    between atoms: C12_16  and  C13_17 
REMARK    5  A    between atoms: C13_17  and  O1_18 
REMARK    6  A    between atoms: O1_18  and  C14_19 
REMARK    7  A    between atoms: C14_19  and  C15_20 
ROOT
HETATM    1  C8  UNL     1      22.666   1.810  51.919  1.00  0.00     0.166 A 
HETATM    2  N2  UNL     1      22.139   2.935  51.369  1.00  0.00    -0.220 NA
HETATM    3  C9  UNL     1      20.912   3.345  51.794  1.00  0.00     0.258 A 
HETATM    4  N3  UNL     1      20.209   2.689  52.726  1.00  0.00    -0.161 NA
HETATM    5  N4  UNL     1      20.736   1.592  53.255  1.00  0.00    -0.240 N 
HETATM    6  C10 UNL     1      20.295   0.718  54.192  1.00  0.00     0.119 A 
HETATM    7  C11 UNL     1      21.247  -0.281  54.384  1.00  0.00     0.031 A 
HETATM    8  C12 UNL     1      22.301  -0.015  53.543  1.00  0.00    -0.001 A 
HETATM    9  C19 UNL     1      21.945   1.133  52.876  1.00  0.00     0.113 A 
ENDROOT
BRANCH   8  10
HETATM   10  C13 UNL     1      23.507  -0.832  53.425  1.00  0.00     0.208 C 
BRANCH  10  11
HETATM   11  O1  UNL     1      24.579  -0.161  54.060  1.00  0.00    -0.384 OA
BRANCH  11  12
HETATM   12  C14 UNL     1      25.774  -0.789  53.821  1.00  0.00     0.201 C 
BRANCH  12  13
HETATM   13  C15 UNL     1      26.944   0.165  53.654  1.00  0.00     0.173 C 
HETATM   14  C16 UNL     1      26.477   1.560  53.909  1.00  0.00     0.303 C 
HETATM   15  N5  UNL     1      27.547   2.522  54.061  1.00  0.00     0.088 N 
HETATM   16  C17 UNL     1      28.795   1.870  53.725  1.00  0.00     0.295 C 
HETATM   17  H17 UNL     1      27.423   3.338  53.451  1.00  0.00     0.316 HD
HETATM   18  C18 UNL     1      28.966   0.676  54.637  1.00  0.00     0.198 C 
HETATM   19  O2  UNL     1      27.936  -0.225  54.525  1.00  0.00    -0.380 OA
ENDBRANCH  12  13
ENDBRANCH  11  12
ENDBRANCH  10  11
ENDBRANCH   8  10
BRANCH   1  20
HETATM   20  N1  UNL     1      23.966   1.468  51.402  1.00  0.00    -0.297 N 
HETATM   21  H6  UNL     1      24.451   0.542  51.431  1.00  0.00     0.178 HD
BRANCH  20  22
HETATM   22  C1  UNL     1      24.612   2.578  50.792  1.00  0.00     0.017 C 
HETATM   23  C2  UNL     1      25.177   3.524  50.251  1.00  0.00    -0.048 C 
BRANCH  23  24
HETATM   24  C3  UNL     1      25.859   4.617  49.621  1.00  0.00     0.000 A 
HETATM   25  C4  UNL     1      25.513   5.868  49.485  1.00  0.00     0.016 A 
HETATM   26  C5  UNL     1      26.573   6.560  48.761  1.00  0.00    -0.002 A 
HETATM   27  C6  UNL     1      27.561   5.735  48.459  1.00  0.00    -0.021 A 
HETATM   28  C7  UNL     1      27.201   4.405  48.981  1.00  0.00     0.075 A 
ENDBRANCH  23  24
ENDBRANCH  20  22
ENDBRANCH   1  20
TORSDOF 7
ENDMDL
MODEL 2
REMARK VINA RESULT:      -7.9      2.605      5.326
REMARK  7 active torsions:
REMARK  status: ('A' for Active; 'I' for Inactive)
REMARK    1  A    between atoms: C1_1  and  N1_8 
REMARK    2  A    between atoms: C2_2  and  C3_3 
REMARK    3  A    between atoms: N1_8  and  C8_9 
REMARK    4  A    between atoms: C12_16  and  C13_17 
REMARK    5  A    between atoms: C13_17  and  O1_18 
REMARK    6  A    between atoms: O1_18  and  C14_19 
REMARK    7  A    between atoms: C14_19  and  C15_20 
ROOT
HETATM    1  C8  UNL     1      22.823  -0.005  53.092  1.00  0.00     0.166 A 
HETATM    2  N2  UNL     1      23.450  -0.567  54.158  1.00  0.00    -0.220 NA
HETATM    3  C9  UNL     1      22.696  -1.259  55.056  1.00  0.00     0.258 A 
HETATM    4  N3  UNL     1      21.371  -1.408  54.931  1.00  0.00    -0.161 NA
HETATM    5  N4  UNL     1      20.772  -0.854  53.884  1.00  0.00    -0.240 N 
HETATM    6  C10 UNL     1      19.481  -0.815  53.477  1.00  0.00     0.119 A 
HETATM    7  C11 UNL     1      19.385  -0.086  52.294  1.00  0.00     0.031 A 
HETATM    8  C12 UNL     1      20.651   0.335  51.965  1.00  0.00    -0.001 A 
HETATM    9  C19 UNL     1      21.461  -0.155  52.961  1.00  0.00     0.113 A 
ENDROOT
BRANCH   8  10
HETATM   10  C13 UNL     1      20.989   1.144  50.795  1.00  0.00     0.208 C 
BRANCH  10  11
HETATM   11  O1  UNL     1      21.392   2.429  51.227  1.00  0.00    -0.384 OA
BRANCH  11  12
HETATM   12  C14 UNL     1      21.533   3.292  50.171  1.00  0.00     0.201 C 
BRANCH  12  13
HETATM   13  C15 UNL     1      22.918   3.904  50.060  1.00  0.00     0.173 C 
HETATM   14  C16 UNL     1      23.203   4.694  51.295  1.00  0.00     0.303 C 
HETATM   15  N5  UNL     1      24.589   5.087  51.437  1.00  0.00     0.088 N 
HETATM   16  C17 UNL     1      25.283   4.754  50.212  1.00  0.00     0.295 C 
HETATM   17  H17 UNL     1      24.689   6.093  51.614  1.00  0.00     0.316 HD
HETATM   18  C18 UNL     1      25.133   3.269  49.971  1.00  0.00     0.198 C 
HETATM   19  O2  UNL     1      23.820   2.881  49.870  1.00  0.00    -0.380 OA
ENDBRANCH  12  13
ENDBRANCH  11  12
ENDBRANCH  10  11
ENDBRANCH   8  10
BRANCH   1  20
HETATM   20  N1  UNL     1      23.712   0.699  52.203  1.00  0.00    -0.297 N 
HETATM   21  H6  UNL     1      23.465   1.323  51.401  1.00  0.00     0.178 HD
BRANCH  20  22
HETATM   22  C1  UNL     1      25.080   0.469  52.516  1.00  0.00     0.017 C 
HETATM   23  C2  UNL     1      26.261   0.256  52.772  1.00  0.00    -0.048 C 
BRANCH  23  24
HETATM   24  C3  UNL     1      27.636  -0.017  53.077  1.00  0.00     0.000 A 
HETATM   25  C4  UNL     1      28.608   0.789  53.405  1.00  0.00     0.016 A 
HETATM   26  C5  UNL     1      29.813  -0.007  53.609  1.00  0.00    -0.002 A 
HETATM   27  C6  UNL     1      29.575  -1.292  53.407  1.00  0.00    -0.021 A 
HETATM   28  C7  UNL     1      28.153  -1.426  53.045  1.00  0.00     0.075 A 
ENDBRANCH  23  24
ENDBRANCH  20  22
ENDBRANCH   1  20
TORSDOF 7
ENDMDL
MODEL 3
REMARK VINA RESULT:      -7.8      2.290      4.876
REMARK  7 active torsions:
REMARK  status: ('A' for Active; 'I' for Inactive)
REMARK    1  A    between atoms: C1_1  and  N1_8 
REMARK    2  A    between atoms: C2_2  and  C3_3 
REMARK    3  A    between atoms: N1_8  and  C8_9 
REMARK    4  A    between atoms: C12_16  and  C13_17 
REMARK    5  A    between atoms: C13_17  and  O1_18 
REMARK    6  A    between atoms: O1_18  and  C14_19 
REMARK    7  A    between atoms: C14_19  and  C15_20 
ROOT
HETATM    1  C8  UNL     1      26.664   1.690  52.296  1.00  0.00     0.166 A 
HETATM    2  N2  UNL     1      27.863   2.326  52.327  1.00  0.00    -0.220 NA
HETATM    3  C9  UNL     1      28.651   2.161  53.426  1.00  0.00     0.258 A 
HETATM    4  N3  UNL     1      28.292   1.403  54.470  1.00  0.00    -0.161 NA
HETATM    5  N4  UNL     1      27.117   0.787  54.426  1.00  0.00    -0.240 N 
HETATM    6  C10 UNL     1      26.473  -0.028  55.295  1.00  0.00     0.119 A 
HETATM    7  C11 UNL     1      25.243  -0.404  54.758  1.00  0.00     0.031 A 
HETATM    8  C12 UNL     1      25.129   0.196  53.527  1.00  0.00    -0.001 A 
HETATM    9  C19 UNL     1      26.292   0.910  53.368  1.00  0.00     0.113 A 
ENDROOT
BRANCH   8  10
HETATM   10  C13 UNL     1      23.977   0.068  52.636  1.00  0.00     0.208 C 
BRANCH  10  11
HETATM   11  O1  UNL     1      23.041   1.083  52.948  1.00  0.00    -0.384 OA
BRANCH  11  12
HETATM   12  C14 UNL     1      22.433   1.567  51.818  1.00  0.00     0.201 C 
BRANCH  12  13
HETATM   13  C15 UNL     1      22.516   3.077  51.679  1.00  0.00     0.173 C 
HETATM   14  C16 UNL     1      23.479   3.610  52.688  1.00  0.00     0.303 C 
HETATM   15  N5  UNL     1      23.860   4.989  52.470  1.00  0.00     0.088 N 
HETATM   16  C17 UNL     1      23.028   5.528  51.416  1.00  0.00     0.295 C 
HETATM   17  H17 UNL     1      23.740   5.560  53.313  1.00  0.00     0.316 HD
HETATM   18  C18 UNL     1      23.221   4.680  50.178  1.00  0.00     0.198 C 
HETATM   19  O2  UNL     1      22.897   3.362  50.386  1.00  0.00    -0.380 OA
ENDBRANCH  12  13
ENDBRANCH  11  12
ENDBRANCH  10  11
ENDBRANCH   8  10
BRANCH   1  20
HETATM   20  N1  UNL     1      25.914   1.927  51.089  1.00  0.00    -0.297 N 
HETATM   21  H6  UNL     1      25.089   1.398  50.725  1.00  0.00     0.178 HD
BRANCH  20  22
HETATM   22  C1  UNL     1      26.417   3.034  50.352  1.00  0.00     0.017 C 
HETATM   23  C2  UNL     1      26.832   3.995  49.710  1.00  0.00    -0.048 C 
BRANCH  23  24
HETATM   24  C3  UNL     1      27.305   5.108  48.941  1.00  0.00     0.000 A 
HETATM   25  C4  UNL     1      28.467   5.325  48.387  1.00  0.00     0.016 A 
HETATM   26  C5  UNL     1      28.420   6.620  47.718  1.00  0.00    -0.002 A 
HETATM   27  C6  UNL     1      27.236   7.189  47.862  1.00  0.00    -0.021 A 
HETATM   28  C7  UNL     1      26.401   6.275  48.663  1.00  0.00     0.075 A 
ENDBRANCH  23  24
ENDBRANCH  20  22
ENDBRANCH   1  20
TORSDOF 7
ENDMDL
MODEL 4
REMARK VINA RESULT:      -7.6      2.763      5.219
REMARK  7 active torsions:
REMARK  status: ('A' for Active; 'I' for Inactive)
REMARK    1  A    between atoms: C1_1  and  N1_8 
REMARK    2  A    between atoms: C2_2  and  C3_3 
REMARK    3  A    between atoms: N1_8  and  C8_9 
REMARK    4  A    between atoms: C12_16  and  C13_17 
REMARK    5  A    between atoms: C13_17  and  O1_18 
REMARK    6  A    between atoms: O1_18  and  C14_19 
REMARK    7  A    between atoms: C14_19  and  C15_20 
ROOT
HETATM    1  C8  UNL     1      25.755   2.251  51.291  1.00  0.00     0.166 A 
HETATM    2  N2  UNL     1      27.080   2.465  51.501  1.00  0.00    -0.220 NA
HETATM    3  C9  UNL     1      27.675   1.832  52.550  1.00  0.00     0.258 A 
HETATM    4  N3  UNL     1      27.012   1.012  53.375  1.00  0.00    -0.161 NA
HETATM    5  N4  UNL     1      25.718   0.812  53.157  1.00  0.00    -0.240 N 
HETATM    6  C10 UNL     1      24.783   0.065  53.792  1.00  0.00     0.119 A 
HETATM    7  C11 UNL     1      23.555   0.211  53.151  1.00  0.00     0.031 A 
HETATM    8  C12 UNL     1      23.740   1.070  52.094  1.00  0.00    -0.001 A 
HETATM    9  C19 UNL     1      25.071   1.409  52.138  1.00  0.00     0.113 A 
ENDROOT
BRANCH   8  10
HETATM   10  C13 UNL     1      22.692   1.499  51.169  1.00  0.00     0.208 C 
BRANCH  10  11
HETATM   11  O1  UNL     1      22.189   2.751  51.597  1.00  0.00    -0.384 OA
BRANCH  11  12
HETATM   12  C14 UNL     1      21.716   3.487  50.541  1.00  0.00     0.201 C 
BRANCH  12  13
HETATM   13  C15 UNL     1      22.290   4.891  50.468  1.00  0.00     0.173 C 
HETATM   14  C16 UNL     1      21.249   5.868  50.905  1.00  0.00     0.303 C 
HETATM   15  N5  UNL     1      21.757   7.201  51.152  1.00  0.00     0.088 N 
HETATM   16  C17 UNL     1      23.134   7.251  50.708  1.00  0.00     0.295 C 
HETATM   17  H17 UNL     1      21.220   7.917  50.651  1.00  0.00     0.316 HD
HETATM   18  C18 UNL     1      23.912   6.194  51.461  1.00  0.00     0.198 C 
HETATM   19  O2  UNL     1      23.415   4.930  51.261  1.00  0.00    -0.380 OA
ENDBRANCH  12  13
ENDBRANCH  11  12
ENDBRANCH  10  11
ENDBRANCH   8  10
BRANCH   1  20
HETATM   20  N1  UNL     1      25.227   2.964  50.156  1.00  0.00    -0.297 N 
HETATM   21  H6  UNL     1      24.272   2.896  49.736  1.00  0.00     0.178 HD
BRANCH  20  22
HETATM   22  C1  UNL     1      26.180   3.853  49.588  1.00  0.00     0.017 C 
HETATM   23  C2  UNL     1      26.992   4.622  49.080  1.00  0.00    -0.048 C 
BRANCH  23  24
HETATM   24  C3  UNL     1      27.942   5.505  48.468  1.00  0.00     0.000 A 
HETATM   25  C4  UNL     1      29.206   5.334  48.196  1.00  0.00     0.016 A 
HETATM   26  C5  UNL     1      29.709   6.551  47.569  1.00  0.00    -0.002 A 
HETATM   27  C6  UNL     1      28.754   7.459  47.459  1.00  0.00    -0.021 A 
HETATM   28  C7  UNL     1      27.523   6.877  48.025  1.00  0.00     0.075 A 
ENDBRANCH  23  24
ENDBRANCH  20  22
ENDBRANCH   1  20
TORSDOF 7
ENDMDL
MODEL 5
REMARK VINA RESULT:      -7.5      2.021      5.636
REMARK  7 active torsions:
REMARK  status: ('A' for Active; 'I' for Inactive)
REMARK    1  A    between atoms: C1_1  and  N1_8 
REMARK    2  A    between atoms: C2_2  and  C3_3 
REMARK    3  A    between atoms: N1_8  and  C8_9 
REMARK    4  A    between atoms: C12_16  and  C13_17 
REMARK    5  A    between atoms: C13_17  and  O1_18 
REMARK    6  A    between atoms: O1_18  and  C14_19 
REMARK    7  A    between atoms: C14_19  and  C15_20 
ROOT
HETATM    1  C8  UNL     1      22.604   3.957  50.206  1.00  0.00     0.166 A 
HETATM    2  N2  UNL     1      21.252   4.057  50.291  1.00  0.00    -0.220 NA
HETATM    3  C9  UNL     1      20.713   5.278  50.561  1.00  0.00     0.258 A 
HETATM    4  N3  UNL     1      21.456   6.376  50.743  1.00  0.00    -0.161 NA
HETATM    5  N4  UNL     1      22.776   6.264  50.657  1.00  0.00    -0.240 N 
HETATM    6  C10 UNL     1      23.786   7.157  50.790  1.00  0.00     0.119 A 
HETATM    7  C11 UNL     1      25.007   6.512  50.605  1.00  0.00     0.031 A 
HETATM    8  C12 UNL     1      24.741   5.188  50.352  1.00  0.00    -0.001 A 
HETATM    9  C19 UNL     1      23.371   5.084  50.394  1.00  0.00     0.113 A 
ENDROOT
BRANCH   8  10
HETATM   10  C13 UNL     1      25.752   4.160  50.113  1.00  0.00     0.208 C 
BRANCH  10  11
HETATM   11  O1  UNL     1      25.877   3.361  51.274  1.00  0.00    -0.384 OA
BRANCH  11  12
HETATM   12  C14 UNL     1      26.574   2.209  51.016  1.00  0.00     0.201 C 
BRANCH  12  13
HETATM   13  C15 UNL     1      27.093   1.515  52.264  1.00  0.00     0.173 C 
HETATM   14  C16 UNL     1      26.367   2.045  53.456  1.00  0.00     0.303 C 
HETATM   15  N5  UNL     1      26.564   1.268  54.661  1.00  0.00     0.088 N 
HETATM   16  C17 UNL     1      27.590   0.280  54.401  1.00  0.00     0.295 C 
HETATM   17  H17 UNL     1      26.857   1.851  55.452  1.00  0.00     0.316 HD
HETATM   18  C18 UNL     1      27.140  -0.575  53.237  1.00  0.00     0.198 C 
HETATM   19  O2  UNL     1      26.915   0.159  52.099  1.00  0.00    -0.380 OA
ENDBRANCH  12  13
ENDBRANCH  11  12
ENDBRANCH  10  11
ENDBRANCH   8  10
BRANCH   1  20
HETATM   20  N1  UNL     1      23.068   2.625  49.913  1.00  0.00    -0.297 N 
HETATM   21  H6  UNL     1      23.478   2.264  49.021  1.00  0.00     0.178 HD
BRANCH  20  22
HETATM   22  C1  UNL     1      22.920   1.747  51.022  1.00  0.00     0.017 C 
HETATM   23  C2  UNL     1      22.772   0.988  51.975  1.00  0.00    -0.048 C 
BRANCH  23  24
HETATM   24  C3  UNL     1      22.581   0.116  53.097  1.00  0.00     0.000 A 
HETATM   25  C4  UNL     1      23.450  -0.451  53.889  1.00  0.00     0.016 A 
HETATM   26  C5  UNL     1      22.724  -1.244  54.874  1.00  0.00    -0.002 A 
HETATM   27  C6  UNL     1      21.418  -1.159  54.684  1.00  0.00    -0.021 A 
HETATM   28  C7  UNL     1      21.196  -0.277  53.524  1.00  0.00     0.075 A 
ENDBRANCH  23  24
ENDBRANCH  20  22
ENDBRANCH   1  20
TORSDOF 7
ENDMDL
MODEL 6
REMARK VINA RESULT:      -7.4      2.981      6.035
REMARK  7 active torsions:
REMARK  status: ('A' for Active; 'I' for Inactive)
REMARK    1  A    between atoms: C1_1  and  N1_8 
REMARK    2  A    between atoms: C2_2  and  C3_3 
REMARK    3  A    between atoms: N1_8  and  C8_9 
REMARK    4  A    between atoms: C12_16  and  C13_17 
REMARK    5  A    between atoms: C13_17  and  O1_18 
REMARK    6  A    between atoms: O1_18  and  C14_19 
REMARK    7  A    between atoms: C14_19  and  C15_20 
ROOT
HETATM    1  C8  UNL     1      22.938   1.862  51.815  1.00  0.00     0.166 A 
HETATM    2  N2  UNL     1      22.297   1.144  52.774  1.00  0.00    -0.220 NA
HETATM    3  C9  UNL     1      21.256   0.352  52.396  1.00  0.00     0.258 A 
HETATM    4  N3  UNL     1      20.841   0.254  51.127  1.00  0.00    -0.161 NA
HETATM    5  N4  UNL     1      21.476   0.962  50.201  1.00  0.00    -0.240 N 
HETATM    6  C10 UNL     1      21.308   1.087  48.862  1.00  0.00     0.119 A 
HETATM    7  C11 UNL     1      22.254   1.975  48.354  1.00  0.00     0.031 A 
HETATM    8  C12 UNL     1      23.023   2.407  49.407  1.00  0.00    -0.001 A 
HETATM    9  C19 UNL     1      22.513   1.764  50.510  1.00  0.00     0.113 A 
ENDROOT
BRANCH   8  10
HETATM   10  C13 UNL     1      24.126   3.361  49.304  1.00  0.00     0.208 C 
BRANCH  10  11
HETATM   11  O1  UNL     1      23.699   4.611  49.813  1.00  0.00    -0.384 OA
BRANCH  11  12
HETATM   12  C14 UNL     1      23.723   5.580  48.843  1.00  0.00     0.201 C 
BRANCH  12  13
HETATM   13  C15 UNL     1      24.787   6.641  49.064  1.00  0.00     0.173 C 
HETATM   14  C16 UNL     1      24.983   6.838  50.531  1.00  0.00     0.303 C 
HETATM   15  N5  UNL     1      26.161   7.608  50.870  1.00  0.00     0.088 N 
HETATM   16  C17 UNL     1      26.723   8.141  49.648  1.00  0.00     0.295 C 
HETATM   17  H17 UNL     1      25.944   8.385  51.504  1.00  0.00     0.316 HD
HETATM   18  C18 UNL     1      27.042   6.983  48.729  1.00  0.00     0.198 C 
HETATM   19  O2  UNL     1      25.937   6.225  48.430  1.00  0.00    -0.380 OA
ENDBRANCH  12  13
ENDBRANCH  11  12
ENDBRANCH  10  11
ENDBRANCH   8  10
BRANCH   1  20
HETATM   20  N1  UNL     1      24.025   2.661  52.321  1.00  0.00    -0.297 N 
HETATM   21  H6  UNL     1      24.036   3.689  52.517  1.00  0.00     0.178 HD
BRANCH  20  22
HETATM   22  C1  UNL     1      25.195   1.890  52.558  1.00  0.00     0.017 C 
HETATM   23  C2  UNL     1      26.195   1.208  52.766  1.00  0.00    -0.048 C 
BRANCH  23  24
HETATM   24  C3  UNL     1      27.353   0.404  53.030  1.00  0.00     0.000 A 
HETATM   25  C4  UNL     1      27.520  -0.889  52.969  1.00  0.00     0.016 A 
HETATM   26  C5  UNL     1      28.898  -1.190  53.339  1.00  0.00    -0.002 A 
HETATM   27  C6  UNL     1      29.568  -0.085  53.622  1.00  0.00    -0.021 A 
HETATM   28  C7  UNL     1      28.641   1.049  53.452  1.00  0.00     0.075 A 
ENDBRANCH  23  24
ENDBRANCH  20  22
ENDBRANCH   1  20
TORSDOF 7
ENDMDL
MODEL 7
REMARK VINA RESULT:      -7.4      2.808      6.845
REMARK  7 active torsions:
REMARK  status: ('A' for Active; 'I' for Inactive)
REMARK    1  A    between atoms: C1_1  and  N1_8 
REMARK    2  A    between atoms: C2_2  and  C3_3 
REMARK    3  A    between atoms: N1_8  and  C8_9 
REMARK    4  A    between atoms: C12_16  and  C13_17 
REMARK    5  A    between atoms: C13_17  and  O1_18 
REMARK    6  A    between atoms: O1_18  and  C14_19 
REMARK    7  A    between atoms: C14_19  and  C15_20 
ROOT
HETATM    1  C8  UNL     1      25.687   4.443  49.887  1.00  0.00     0.166 A 
HETATM    2  N2  UNL     1      26.778   4.140  49.136  1.00  0.00    -0.220 NA
HETATM    3  C9  UNL     1      27.505   5.166  48.614  1.00  0.00     0.258 A 
HETATM    4  N3  UNL     1      27.191   6.453  48.811  1.00  0.00    -0.161 NA
HETATM    5  N4  UNL     1      26.122   6.734  49.546  1.00  0.00    -0.240 N 
HETATM    6  C10 UNL     1      25.545   7.901  49.922  1.00  0.00     0.119 A 
HETATM    7  C11 UNL     1      24.421   7.636  50.702  1.00  0.00     0.031 A 
HETATM    8  C12 UNL     1      24.305   6.271  50.809  1.00  0.00    -0.001 A 
HETATM    9  C19 UNL     1      25.361   5.765  50.090  1.00  0.00     0.113 A 
ENDROOT
BRANCH   8  10
HETATM   10  C13 UNL     1      23.246   5.574  51.537  1.00  0.00     0.208 C 
BRANCH  10  11
HETATM   11  O1  UNL     1      22.388   4.943  50.606  1.00  0.00    -0.384 OA
BRANCH  11  12
HETATM   12  C14 UNL     1      21.299   4.387  51.226  1.00  0.00     0.201 C 
BRANCH  12  13
HETATM   13  C15 UNL     1      21.620   3.135  52.021  1.00  0.00     0.173 C 
HETATM   14  C16 UNL     1      20.355   2.571  52.578  1.00  0.00     0.303 C 
HETATM   15  N5  UNL     1      20.489   1.232  53.111  1.00  0.00     0.088 N 
HETATM   16  C17 UNL     1      21.895   0.887  53.122  1.00  0.00     0.295 C 
HETATM   17  H17 UNL     1      20.120   1.157  54.065  1.00  0.00     0.316 HD
HETATM   18  C18 UNL     1      22.421   0.996  51.708  1.00  0.00     0.198 C 
HETATM   19  O2  UNL     1      22.264   2.253  51.182  1.00  0.00    -0.380 OA
ENDBRANCH  12  13
ENDBRANCH  11  12
ENDBRANCH  10  11
ENDBRANCH   8  10
BRANCH   1  20
HETATM   20  N1  UNL     1      24.994   3.286  50.393  1.00  0.00    -0.297 N 
HETATM   21  H6  UNL     1      23.991   3.022  50.258  1.00  0.00     0.178 HD
BRANCH  20  22
HETATM   22  C1  UNL     1      25.841   2.443  51.163  1.00  0.00     0.017 C 
HETATM   23  C2  UNL     1      26.583   1.732  51.834  1.00  0.00    -0.048 C 
BRANCH  23  24
HETATM   24  C3  UNL     1      27.470   0.911  52.607  1.00  0.00     0.000 A 
HETATM   25  C4  UNL     1      27.486  -0.381  52.790  1.00  0.00     0.016 A 
HETATM   26  C5  UNL     1      28.604  -0.704  53.670  1.00  0.00    -0.002 A 
HETATM   27  C6  UNL     1      29.266   0.386  54.019  1.00  0.00    -0.021 A 
HETATM   28  C7  UNL     1      28.604   1.532  53.370  1.00  0.00     0.075 A 
ENDBRANCH  23  24
ENDBRANCH  20  22
ENDBRANCH   1  20
TORSDOF 7
ENDMDL
MODEL 8
REMARK VINA RESULT:      -7.3      2.627      5.112
REMARK  7 active torsions:
REMARK  status: ('A' for Active; 'I' for Inactive)
REMARK    1  A    between atoms: C1_1  and  N1_8 
REMARK    2  A    between atoms: C2_2  and  C3_3 
REMARK    3  A    between atoms: N1_8  and  C8_9 
REMARK    4  A    between atoms: C12_16  and  C13_17 
REMARK    5  A    between atoms: C13_17  and  O1_18 
REMARK    6  A    between atoms: O1_18  and  C14_19 
REMARK    7  A    between atoms: C14_19  and  C15_20 
ROOT
HETATM    1  C8  UNL     1      23.283   1.245  52.635  1.00  0.00     0.166 A 
HETATM    2  N2  UNL     1      24.640   1.300  52.644  1.00  0.00    -0.220 NA
HETATM    3  C9  UNL     1      25.315   0.421  53.437  1.00  0.00     0.258 A 
HETATM    4  N3  UNL     1      24.698  -0.488  54.202  1.00  0.00    -0.161 NA
HETATM    5  N4  UNL     1      23.371  -0.530  54.184  1.00  0.00    -0.240 N 
HETATM    6  C10 UNL     1      22.467  -1.307  54.827  1.00  0.00     0.119 A 
HETATM    7  C11 UNL     1      21.178  -0.932  54.450  1.00  0.00     0.031 A 
HETATM    8  C12 UNL     1      21.294   0.102  53.553  1.00  0.00    -0.001 A 
HETATM    9  C19 UNL     1      22.646   0.312  53.422  1.00  0.00     0.113 A 
ENDROOT
BRANCH   8  10
HETATM   10  C13 UNL     1      20.172   0.794  52.921  1.00  0.00     0.208 C 
BRANCH  10  11
HETATM   11  O1  UNL     1      20.051   0.345  51.585  1.00  0.00    -0.384 OA
BRANCH  11  12
HETATM   12  C14 UNL     1      19.207   1.148  50.862  1.00  0.00     0.201 C 
BRANCH  12  13
HETATM   13  C15 UNL     1      19.802   1.642  49.555  1.00  0.00     0.173 C 
HETATM   14  C16 UNL     1      19.985   3.122  49.630  1.00  0.00     0.303 C 
HETATM   15  N5  UNL     1      20.802   3.670  48.568  1.00  0.00     0.088 N 
HETATM   16  C17 UNL     1      21.057   2.621  47.604  1.00  0.00     0.295 C 
HETATM   17  H17 UNL     1      20.341   4.454  48.093  1.00  0.00     0.316 HD
HETATM   18  C18 UNL     1      21.741   1.477  48.319  1.00  0.00     0.198 C 
HETATM   19  O2  UNL     1      20.989   0.975  49.351  1.00  0.00    -0.380 OA
ENDBRANCH  12  13
ENDBRANCH  11  12
ENDBRANCH  10  11
ENDBRANCH   8  10
BRANCH   1  20
HETATM   20  N1  UNL     1      22.671   2.212  51.761  1.00  0.00    -0.297 N 
HETATM   21  H6  UNL     1      21.652   2.387  51.602  1.00  0.00     0.178 HD
BRANCH  20  22
HETATM   22  C1  UNL     1      23.632   2.990  51.060  1.00  0.00     0.017 C 
HETATM   23  C2  UNL     1      24.469   3.645  50.445  1.00  0.00    -0.048 C 
BRANCH  23  24
HETATM   24  C3  UNL     1      25.464   4.394  49.734  1.00  0.00     0.000 A 
HETATM   25  C4  UNL     1      25.438   5.613  49.271  1.00  0.00     0.016 A 
HETATM   26  C5  UNL     1      26.717   5.886  48.626  1.00  0.00    -0.002 A 
HETATM   27  C6  UNL     1      27.520   4.838  48.699  1.00  0.00    -0.021 A 
HETATM   28  C7  UNL     1      26.795   3.775  49.418  1.00  0.00     0.075 A 
ENDBRANCH  23  24
ENDBRANCH  20  22
ENDBRANCH   1  20
TORSDOF 7
ENDMDL
MODEL 9
REMARK VINA RESULT:      -7.3      1.692      1.997
REMARK  7 active torsions:
REMARK  status: ('A' for Active; 'I' for Inactive)
REMARK    1  A    between atoms: C1_1  and  N1_8 
REMARK    2  A    between atoms: C2_2  and  C3_3 
REMARK    3  A    between atoms: N1_8  and  C8_9 
REMARK    4  A    between atoms: C12_16  and  C13_17 
REMARK    5  A    between atoms: C13_17  and  O1_18 
REMARK    6  A    between atoms: O1_18  and  C14_19 
REMARK    7  A    between atoms: C14_19  and  C15_20 
ROOT
HETATM    1  C8  UNL     1      21.997   3.643  50.971  1.00  0.00     0.166 A 
HETATM    2  N2  UNL     1      21.384   4.439  50.056  1.00  0.00    -0.220 NA
HETATM    3  C9  UNL     1      20.396   3.897  49.291  1.00  0.00     0.258 A 
HETATM    4  N3  UNL     1      20.007   2.621  49.403  1.00  0.00    -0.161 NA
HETATM    5  N4  UNL     1      20.614   1.855  50.301  1.00  0.00    -0.240 N 
HETATM    6  C10 UNL     1      20.465   0.556  50.653  1.00  0.00     0.119 A 
HETATM    7  C11 UNL     1      21.369   0.239  51.666  1.00  0.00     0.031 A 
HETATM    8  C12 UNL     1      22.093   1.374  51.942  1.00  0.00    -0.001 A 
HETATM    9  C19 UNL     1      21.599   2.330  51.088  1.00  0.00     0.113 A 
ENDROOT
BRANCH   8  10
HETATM   10  C13 UNL     1      23.159   1.466  52.938  1.00  0.00     0.208 C 
BRANCH  10  11
HETATM   11  O1  UNL     1      24.408   1.343  52.285  1.00  0.00    -0.384 OA
BRANCH  11  12
HETATM   12  C14 UNL     1      25.157   0.329  52.824  1.00  0.00     0.201 C 
BRANCH  12  13
HETATM   13  C15 UNL     1      26.606   0.707  53.080  1.00  0.00     0.173 C 
HETATM   14  C16 UNL     1      26.678   2.157  53.429  1.00  0.00     0.303 C 
HETATM   15  N5  UNL     1      27.956   2.570  53.969  1.00  0.00     0.088 N 
HETATM   16  C17 UNL     1      28.884   1.468  53.835  1.00  0.00     0.295 C 
HETATM   17  H17 UNL     1      28.336   3.387  53.479  1.00  0.00     0.316 HD
HETATM   18  C18 UNL     1      28.311   0.275  54.569  1.00  0.00     0.198 C 
HETATM   19  O2  UNL     1      27.083  -0.102  54.087  1.00  0.00    -0.380 OA
ENDBRANCH  12  13
ENDBRANCH  11  12
ENDBRANCH  10  11
ENDBRANCH   8  10
BRANCH   1  20
HETATM   20  N1  UNL     1      23.021   4.315  51.728  1.00  0.00    -0.297 N 
HETATM   21  H6  UNL     1      23.026   4.546  52.748  1.00  0.00     0.178 HD
BRANCH  20  22
HETATM   22  C1  UNL     1      24.135   4.679  50.923  1.00  0.00     0.017 C 
HETATM   23  C2  UNL     1      25.103   5.005  50.242  1.00  0.00    -0.048 C 
BRANCH  23  24
HETATM   24  C3  UNL     1      26.228   5.410  49.450  1.00  0.00     0.000 A 
HETATM   25  C4  UNL     1      26.531   6.572  48.937  1.00  0.00     0.016 A 
HETATM   26  C5  UNL     1      27.792   6.439  48.217  1.00  0.00    -0.002 A 
HETATM   27  C6  UNL     1      28.256   5.203  48.292  1.00  0.00    -0.021 A 
HETATM   28  C7  UNL     1      27.297   4.419  49.092  1.00  0.00     0.075 A 
ENDBRANCH  23  24
ENDBRANCH  20  22
ENDBRANCH   1  20
TORSDOF 7
ENDMDL
