MODEL 1
REMARK VINA RESULT:      -7.5      0.000      0.000
REMARK  8 active torsions:
REMARK  status: ('A' for Active; 'I' for Inactive)
REMARK    1  A    between atoms: C2_2  and  C3_3 
REMARK    2  A    between atoms: C3_3  and  O1_4 
REMARK    3  A    between atoms: C3_3  and  C4_5 
REMARK    4  A    between atoms: C4_5  and  C5_6 
REMARK    5  A    between atoms: C5_6  and  N1_7 
REMARK    6  A    between atoms: N1_7  and  C7_10 
REMARK    7  A    between atoms: C10_14  and  N3_15 
REMARK    8  A    between atoms: N3_15  and  C11_16 
ROOT
HETATM    1  N1  UNL     1      24.905   0.493  52.523  1.00  0.00    -0.320 N 
HETATM    2  C6  UNL     1      24.171   1.435  51.755  1.00  0.00     0.478 C 
HETATM    3  O2  UNL     1      23.479   2.251  51.114  1.00  0.00    -0.392 OA
ENDROOT
BRANCH   1   4
HETATM    4  C5  UNL     1      26.280   0.329  52.087  1.00  0.00     0.134 C 
BRANCH   4   5
HETATM    5  C4  UNL     1      26.926   1.699  52.072  1.00  0.00     0.052 C 
BRANCH   5   6
HETATM    6  C3  UNL     1      27.898   1.862  53.220  1.00  0.00     0.119 C 
BRANCH   6   7
HETATM    7  C2  UNL     1      28.699   0.610  53.466  1.00  0.00     0.027 C 
HETATM    8  C1  UNL     1      28.658   0.181  54.909  1.00  0.00     0.007 C 
ENDBRANCH   6   7
BRANCH   6   9
HETATM    9  O1  UNL     1      28.762   2.905  52.915  1.00  0.00    -0.396 OA
HETATM   10  H7  UNL     1      29.675   2.597  52.735  1.00  0.00     0.210 HD
ENDBRANCH   6   9
ENDBRANCH   5   6
ENDBRANCH   4   5
ENDBRANCH   1   4
BRANCH   1  11
HETATM   11  C7  UNL     1      24.275  -0.186  53.605  1.00  0.00     0.151 A 
HETATM   12  C8  UNL     1      25.042  -0.716  54.613  1.00  0.00     0.071 A 
HETATM   13  C9  UNL     1      24.316  -1.344  55.597  1.00  0.00     0.140 A 
HETATM   14  N2  UNL     1      22.982  -1.449  55.602  1.00  0.00    -0.075 NA
HETATM   15  C10 UNL     1      22.269  -0.919  54.602  1.00  0.00     0.728 A 
HETATM   16  N4  UNL     1      22.943  -0.300  53.626  1.00  0.00    -0.045 NA
BRANCH  15  17
HETATM   17  N3  UNL     1      20.853  -0.970  54.506  1.00  0.00    -0.188 N 
HETATM   18  H15 UNL     1      20.324  -1.306  55.348  1.00  0.00     0.184 HD
BRANCH  17  19
HETATM   19  C11 UNL     1      20.045  -0.617  53.400  1.00  0.00     0.049 A 
HETATM   20  C12 UNL     1      20.412   0.126  52.301  1.00  0.00     0.030 A 
HETATM   21  C13 UNL     1      19.611   0.457  51.238  1.00  0.00     0.002 A 
HETATM   22  C14 UNL     1      18.315   0.021  51.239  1.00  0.00     0.000 A 
HETATM   23  C15 UNL     1      17.873  -0.730  52.308  1.00  0.00     0.002 A 
HETATM   24  C16 UNL     1      18.731  -1.024  53.342  1.00  0.00     0.030 A 
ENDBRANCH  17  19
ENDBRANCH  15  17
ENDBRANCH   1  11
TORSDOF 8
ENDMDL
MODEL 2
REMARK VINA RESULT:      -7.4      1.894      5.333
REMARK  8 active torsions:
REMARK  status: ('A' for Active; 'I' for Inactive)
REMARK    1  A    between atoms: C2_2  and  C3_3 
REMARK    2  A    between atoms: C3_3  and  O1_4 
REMARK    3  A    between atoms: C3_3  and  C4_5 
REMARK    4  A    between atoms: C4_5  and  C5_6 
REMARK    5  A    between atoms: C5_6  and  N1_7 
REMARK    6  A    between atoms: N1_7  and  C7_10 
REMARK    7  A    between atoms: C10_14  and  N3_15 
REMARK    8  A    between atoms: N3_15  and  C11_16 
ROOT
HETATM    1  N1  UNL     1      21.589   1.412  52.124  1.00  0.00    -0.320 N 
HETATM    2  C6  UNL     1      20.652   2.460  52.321  1.00  0.00     0.478 C 
HETATM    3  O2  UNL     1      19.812   3.355  52.544  1.00  0.00    -0.392 OA
ENDROOT
BRANCH   1   4
HETATM    4  C5  UNL     1      22.360   1.540  50.900  1.00  0.00     0.134 C 
BRANCH   4   5
HETATM    5  C4  UNL     1      23.372   2.649  51.106  1.00  0.00     0.052 C 
BRANCH   5   6
HETATM    6  C3  UNL     1      24.696   2.103  51.592  1.00  0.00     0.119 C 
BRANCH   6   7
HETATM    7  C2  UNL     1      25.863   2.715  50.861  1.00  0.00     0.027 C 
HETATM    8  C1  UNL     1      25.432   3.480  49.637  1.00  0.00     0.007 C 
ENDBRANCH   6   7
BRANCH   6   9
HETATM    9  O1  UNL     1      24.811   2.381  52.947  1.00  0.00    -0.396 OA
HETATM   10  H7  UNL     1      25.625   2.884  53.162  1.00  0.00     0.210 HD
ENDBRANCH   6   9
ENDBRANCH   5   6
ENDBRANCH   4   5
ENDBRANCH   1   4
BRANCH   1  11
HETATM   11  C7  UNL     1      21.701   0.369  53.087  1.00  0.00     0.151 A 
HETATM   12  C8  UNL     1      20.581  -0.327  53.468  1.00  0.00     0.071 A 
HETATM   13  C9  UNL     1      20.822  -1.307  54.402  1.00  0.00     0.140 A 
HETATM   14  N2  UNL     1      22.027  -1.582  54.916  1.00  0.00    -0.075 NA
HETATM   15  C10 UNL     1      23.095  -0.880  54.520  1.00  0.00     0.728 A 
HETATM   16  N4  UNL     1      22.898   0.082  53.611  1.00  0.00    -0.045 NA
BRANCH  15  17
HETATM   17  N3  UNL     1      24.417  -1.087  54.996  1.00  0.00    -0.188 N 
HETATM   18  H15 UNL     1      24.527  -1.590  55.911  1.00  0.00     0.184 HD
BRANCH  17  19
HETATM   19  C11 UNL     1      25.630  -0.695  54.384  1.00  0.00     0.049 A 
HETATM   20  C12 UNL     1      26.081  -1.035  53.130  1.00  0.00     0.030 A 
HETATM   21  C13 UNL     1      27.263  -0.643  52.555  1.00  0.00     0.002 A 
HETATM   22  C14 UNL     1      28.099   0.167  53.274  1.00  0.00     0.000 A 
HETATM   23  C15 UNL     1      27.715   0.550  54.541  1.00  0.00     0.002 A 
HETATM   24  C16 UNL     1      26.515   0.119  55.056  1.00  0.00     0.030 A 
ENDBRANCH  17  19
ENDBRANCH  15  17
ENDBRANCH   1  11
TORSDOF 8
ENDMDL
MODEL 3
REMARK VINA RESULT:      -7.4      2.392      6.071
REMARK  8 active torsions:
REMARK  status: ('A' for Active; 'I' for Inactive)
REMARK    1  A    between atoms: C2_2  and  C3_3 
REMARK    2  A    between atoms: C3_3  and  O1_4 
REMARK    3  A    between atoms: C3_3  and  C4_5 
REMARK    4  A    between atoms: C4_5  and  C5_6 
REMARK    5  A    between atoms: C5_6  and  N1_7 
REMARK    6  A    between atoms: N1_7  and  C7_10 
REMARK    7  A    between atoms: C10_14  and  N3_15 
REMARK    8  A    between atoms: N3_15  and  C11_16 
ROOT
HETATM    1  N1  UNL     1      23.761   2.087  51.139  1.00  0.00    -0.320 N 
HETATM    2  C6  UNL     1      22.810   2.169  50.088  1.00  0.00     0.478 C 
HETATM    3  O2  UNL     1      21.948   2.194  49.187  1.00  0.00    -0.392 OA
ENDROOT
BRANCH   1   4
HETATM    4  C5  UNL     1      24.783   3.117  51.084  1.00  0.00     0.134 C 
BRANCH   4   5
HETATM    5  C4  UNL     1      25.183   3.293  49.633  1.00  0.00     0.052 C 
BRANCH   5   6
HETATM    6  C3  UNL     1      26.645   3.657  49.505  1.00  0.00     0.119 C 
BRANCH   6   7
HETATM    7  C2  UNL     1      26.837   5.054  48.975  1.00  0.00     0.027 C 
HETATM    8  C1  UNL     1      28.223   5.272  48.427  1.00  0.00     0.007 C 
ENDBRANCH   6   7
BRANCH   6   9
HETATM    9  O1  UNL     1      27.229   3.562  50.761  1.00  0.00    -0.396 OA
HETATM   10  H7  UNL     1      27.760   4.353  50.992  1.00  0.00     0.210 HD
ENDBRANCH   6   9
ENDBRANCH   5   6
ENDBRANCH   4   5
ENDBRANCH   1   4
BRANCH   1  11
HETATM   11  C7  UNL     1      23.651   1.059  52.118  1.00  0.00     0.151 A 
HETATM   12  C8  UNL     1      22.483   0.345  52.225  1.00  0.00     0.071 A 
HETATM   13  C9  UNL     1      22.504  -0.617  53.208  1.00  0.00     0.140 A 
HETATM   14  N2  UNL     1      23.550  -0.861  54.004  1.00  0.00    -0.075 NA
HETATM   15  C10 UNL     1      24.672  -0.144  53.869  1.00  0.00     0.728 A 
HETATM   16  N4  UNL     1      24.687   0.802  52.923  1.00  0.00    -0.045 NA
BRANCH  15  17
HETATM   17  N3  UNL     1      25.840  -0.318  54.658  1.00  0.00    -0.188 N 
HETATM   18  H15 UNL     1      25.708  -0.603  55.659  1.00  0.00     0.184 HD
BRANCH  17  19
HETATM   19  C11 UNL     1      27.187  -0.154  54.259  1.00  0.00     0.049 A 
HETATM   20  C12 UNL     1      27.970   0.968  54.402  1.00  0.00     0.030 A 
HETATM   21  C13 UNL     1      29.276   1.106  54.008  1.00  0.00     0.002 A 
HETATM   22  C14 UNL     1      29.891   0.041  53.410  1.00  0.00     0.000 A 
HETATM   23  C15 UNL     1      29.170  -1.121  53.231  1.00  0.00     0.002 A 
HETATM   24  C16 UNL     1      27.862  -1.188  53.651  1.00  0.00     0.030 A 
ENDBRANCH  17  19
ENDBRANCH  15  17
ENDBRANCH   1  11
TORSDOF 8
ENDMDL
MODEL 4
REMARK VINA RESULT:      -7.4      3.040      5.913
REMARK  8 active torsions:
REMARK  status: ('A' for Active; 'I' for Inactive)
REMARK    1  A    between atoms: C2_2  and  C3_3 
REMARK    2  A    between atoms: C3_3  and  O1_4 
REMARK    3  A    between atoms: C3_3  and  C4_5 
REMARK    4  A    between atoms: C4_5  and  C5_6 
REMARK    5  A    between atoms: C5_6  and  N1_7 
REMARK    6  A    between atoms: N1_7  and  C7_10 
REMARK    7  A    between atoms: C10_14  and  N3_15 
REMARK    8  A    between atoms: N3_15  and  C11_16 
ROOT
HETATM    1  N1  UNL     1      23.892  -0.245  53.504  1.00  0.00    -0.320 N 
HETATM    2  C6  UNL     1      23.078  -0.878  54.480  1.00  0.00     0.478 C 
HETATM    3  O2  UNL     1      22.317  -1.400  55.319  1.00  0.00    -0.392 OA
ENDROOT
BRANCH   1   4
HETATM    4  C5  UNL     1      25.259  -0.734  53.477  1.00  0.00     0.134 C 
BRANCH   4   5
HETATM    5  C4  UNL     1      25.927  -0.311  54.770  1.00  0.00     0.052 C 
BRANCH   5   6
HETATM    6  C3  UNL     1      27.083   0.629  54.510  1.00  0.00     0.119 C 
BRANCH   6   7
HETATM    7  C2  UNL     1      27.942   0.165  53.363  1.00  0.00     0.027 C 
HETATM    8  C1  UNL     1      29.399   0.084  53.736  1.00  0.00     0.007 C 
ENDBRANCH   6   7
BRANCH   6   9
HETATM    9  O1  UNL     1      26.567   1.884  54.216  1.00  0.00    -0.396 OA
HETATM   10  H7  UNL     1      25.596   1.869  54.077  1.00  0.00     0.210 HD
ENDBRANCH   6   9
ENDBRANCH   5   6
ENDBRANCH   4   5
ENDBRANCH   1   4
BRANCH   1  11
HETATM   11  C7  UNL     1      23.341   0.768  52.668  1.00  0.00     0.151 A 
HETATM   12  C8  UNL     1      22.152   0.543  52.021  1.00  0.00     0.071 A 
HETATM   13  C9  UNL     1      21.729   1.597  51.246  1.00  0.00     0.140 A 
HETATM   14  N2  UNL     1      22.392   2.751  51.111  1.00  0.00    -0.075 NA
HETATM   15  C10 UNL     1      23.549   2.933  51.758  1.00  0.00     0.728 A 
HETATM   16  N4  UNL     1      23.992   1.927  52.522  1.00  0.00    -0.045 NA
BRANCH  15  17
HETATM   17  N3  UNL     1      24.334   4.114  51.688  1.00  0.00    -0.188 N 
HETATM   18  H15 UNL     1      24.240   4.803  52.475  1.00  0.00     0.184 HD
BRANCH  17  19
HETATM   19  C11 UNL     1      25.247   4.490  50.675  1.00  0.00     0.049 A 
HETATM   20  C12 UNL     1      26.252   3.724  50.130  1.00  0.00     0.030 A 
HETATM   21  C13 UNL     1      27.128   4.109  49.147  1.00  0.00     0.002 A 
HETATM   22  C14 UNL     1      27.017   5.373  48.636  1.00  0.00     0.000 A 
HETATM   23  C15 UNL     1      26.032   6.201  49.133  1.00  0.00     0.002 A 
HETATM   24  C16 UNL     1      25.189   5.749  50.121  1.00  0.00     0.030 A 
ENDBRANCH  17  19
ENDBRANCH  15  17
ENDBRANCH   1  11
TORSDOF 8
ENDMDL
MODEL 5
REMARK VINA RESULT:      -7.3      4.099      6.940
REMARK  8 active torsions:
REMARK  status: ('A' for Active; 'I' for Inactive)
REMARK    1  A    between atoms: C2_2  and  C3_3 
REMARK    2  A    between atoms: C3_3  and  O1_4 
REMARK    3  A    between atoms: C3_3  and  C4_5 
REMARK    4  A    between atoms: C4_5  and  C5_6 
REMARK    5  A    between atoms: C5_6  and  N1_7 
REMARK    6  A    between atoms: N1_7  and  C7_10 
REMARK    7  A    between atoms: C10_14  and  N3_15 
REMARK    8  A    between atoms: N3_15  and  C11_16 
ROOT
HETATM    1  N1  UNL     1      26.611   1.692  53.229  1.00  0.00    -0.320 N 
HETATM    2  C6  UNL     1      27.905   2.275  53.252  1.00  0.00     0.478 C 
HETATM    3  O2  UNL     1      29.021   2.832  53.241  1.00  0.00    -0.392 OA
ENDROOT
BRANCH   1   4
HETATM    4  C5  UNL     1      26.537   0.407  53.901  1.00  0.00     0.134 C 
BRANCH   4   5
HETATM    5  C4  UNL     1      26.522  -0.671  52.836  1.00  0.00     0.052 C 
BRANCH   5   6
HETATM    6  C3  UNL     1      27.829  -1.430  52.803  1.00  0.00     0.119 C 
BRANCH   6   7
HETATM    7  C2  UNL     1      28.744  -1.030  53.930  1.00  0.00     0.027 C 
HETATM    8  C1  UNL     1      30.125  -0.672  53.445  1.00  0.00     0.007 C 
ENDBRANCH   6   7
BRANCH   6   9
HETATM    9  O1  UNL     1      27.548  -2.786  52.902  1.00  0.00    -0.396 OA
HETATM   10  H7  UNL     1      28.271  -3.291  53.330  1.00  0.00     0.210 HD
ENDBRANCH   6   9
ENDBRANCH   5   6
ENDBRANCH   4   5
ENDBRANCH   1   4
BRANCH   1  11
HETATM   11  C7  UNL     1      25.538   2.372  52.586  1.00  0.00     0.151 A 
HETATM   12  C8  UNL     1      24.341   2.527  53.241  1.00  0.00     0.071 A 
HETATM   13  C9  UNL     1      23.388   3.199  52.513  1.00  0.00     0.140 A 
HETATM   14  N2  UNL     1      23.575   3.671  51.275  1.00  0.00    -0.075 NA
HETATM   15  C10 UNL     1      24.756   3.499  50.669  1.00  0.00     0.728 A 
HETATM   16  N4  UNL     1      25.708   2.849  51.348  1.00  0.00    -0.045 NA
BRANCH  15  17
HETATM   17  N3  UNL     1      25.064   3.958  49.361  1.00  0.00    -0.188 N 
HETATM   18  H15 UNL     1      24.485   3.585  48.570  1.00  0.00     0.184 HD
BRANCH  17  19
HETATM   19  C11 UNL     1      26.073   4.874  48.979  1.00  0.00     0.049 A 
HETATM   20  C12 UNL     1      25.926   6.217  48.717  1.00  0.00     0.030 A 
HETATM   21  C13 UNL     1      26.918   7.088  48.347  1.00  0.00     0.002 A 
HETATM   22  C14 UNL     1      28.192   6.606  48.217  1.00  0.00     0.000 A 
HETATM   23  C15 UNL     1      28.418   5.268  48.463  1.00  0.00     0.002 A 
HETATM   24  C16 UNL     1      27.374   4.451  48.830  1.00  0.00     0.030 A 
ENDBRANCH  17  19
ENDBRANCH  15  17
ENDBRANCH   1  11
TORSDOF 8
ENDMDL
MODEL 6
REMARK VINA RESULT:      -7.3      2.835      7.058
REMARK  8 active torsions:
REMARK  status: ('A' for Active; 'I' for Inactive)
REMARK    1  A    between atoms: C2_2  and  C3_3 
REMARK    2  A    between atoms: C3_3  and  O1_4 
REMARK    3  A    between atoms: C3_3  and  C4_5 
REMARK    4  A    between atoms: C4_5  and  C5_6 
REMARK    5  A    between atoms: C5_6  and  N1_7 
REMARK    6  A    between atoms: N1_7  and  C7_10 
REMARK    7  A    between atoms: C10_14  and  N3_15 
REMARK    8  A    between atoms: N3_15  and  C11_16 
ROOT
HETATM    1  N1  UNL     1      23.100   2.155  51.285  1.00  0.00    -0.320 N 
HETATM    2  C6  UNL     1      22.343   2.020  50.091  1.00  0.00     0.478 C 
HETATM    3  O2  UNL     1      21.727   1.911  49.012  1.00  0.00    -0.392 OA
ENDROOT
BRANCH   1   4
HETATM    4  C5  UNL     1      22.311   2.021  52.496  1.00  0.00     0.134 C 
BRANCH   4   5
HETATM    5  C4  UNL     1      21.992   0.550  52.679  1.00  0.00     0.052 C 
BRANCH   5   6
HETATM    6  C3  UNL     1      22.799  -0.052  53.807  1.00  0.00     0.119 C 
BRANCH   6   7
HETATM    7  C2  UNL     1      22.043  -1.138  54.527  1.00  0.00     0.027 C 
HETATM    8  C1  UNL     1      20.632  -1.282  54.022  1.00  0.00     0.007 C 
ENDBRANCH   6   7
BRANCH   6   9
HETATM    9  O1  UNL     1      23.965  -0.584  53.272  1.00  0.00    -0.396 OA
HETATM   10  H7  UNL     1      24.313  -0.054  52.524  1.00  0.00     0.210 HD
ENDBRANCH   6   9
ENDBRANCH   5   6
ENDBRANCH   4   5
ENDBRANCH   1   4
BRANCH   1  11
HETATM   11  C7  UNL     1      24.501   2.397  51.213  1.00  0.00     0.151 A 
HETATM   12  C8  UNL     1      25.011   3.134  50.173  1.00  0.00     0.071 A 
HETATM   13  C9  UNL     1      26.376   3.295  50.218  1.00  0.00     0.140 A 
HETATM   14  N2  UNL     1      27.165   2.794  51.175  1.00  0.00    -0.075 NA
HETATM   15  C10 UNL     1      26.631   2.081  52.173  1.00  0.00     0.728 A 
HETATM   16  N4  UNL     1      25.305   1.902  52.161  1.00  0.00    -0.045 NA
BRANCH  15  17
HETATM   17  N3  UNL     1      27.372   1.504  53.238  1.00  0.00    -0.188 N 
HETATM   18  H15 UNL     1      27.465   2.064  54.120  1.00  0.00     0.184 HD
BRANCH  17  19
HETATM   19  C11 UNL     1      28.015   0.244  53.265  1.00  0.00     0.049 A 
HETATM   20  C12 UNL     1      27.468  -0.979  52.953  1.00  0.00     0.030 A 
HETATM   21  C13 UNL     1      28.109  -2.191  52.986  1.00  0.00     0.002 A 
HETATM   22  C14 UNL     1      29.425  -2.221  53.361  1.00  0.00     0.000 A 
HETATM   23  C15 UNL     1      30.043  -1.032  53.689  1.00  0.00     0.002 A 
HETATM   24  C16 UNL     1      29.337   0.147  53.634  1.00  0.00     0.030 A 
ENDBRANCH  17  19
ENDBRANCH  15  17
ENDBRANCH   1  11
TORSDOF 8
ENDMDL
MODEL 7
REMARK VINA RESULT:      -7.3      2.998      6.920
REMARK  8 active torsions:
REMARK  status: ('A' for Active; 'I' for Inactive)
REMARK    1  A    between atoms: C2_2  and  C3_3 
REMARK    2  A    between atoms: C3_3  and  O1_4 
REMARK    3  A    between atoms: C3_3  and  C4_5 
REMARK    4  A    between atoms: C4_5  and  C5_6 
REMARK    5  A    between atoms: C5_6  and  N1_7 
REMARK    6  A    between atoms: N1_7  and  C7_10 
REMARK    7  A    between atoms: C10_14  and  N3_15 
REMARK    8  A    between atoms: N3_15  and  C11_16 
ROOT
HETATM    1  N1  UNL     1      21.918   1.608  52.120  1.00  0.00    -0.320 N 
HETATM    2  C6  UNL     1      20.844   2.499  52.383  1.00  0.00     0.478 C 
HETATM    3  O2  UNL     1      19.936   3.327  52.596  1.00  0.00    -0.392 OA
ENDROOT
BRANCH   1   4
HETATM    4  C5  UNL     1      21.610   0.219  52.414  1.00  0.00     0.134 C 
BRANCH   4   5
HETATM    5  C4  UNL     1      21.556   0.067  53.921  1.00  0.00     0.052 C 
BRANCH   5   6
HETATM    6  C3  UNL     1      21.797  -1.366  54.338  1.00  0.00     0.119 C 
BRANCH   6   7
HETATM    7  C2  UNL     1      22.927  -1.485  55.327  1.00  0.00     0.027 C 
HETATM    8  C1  UNL     1      24.212  -0.903  54.799  1.00  0.00     0.007 C 
ENDBRANCH   6   7
BRANCH   6   9
HETATM    9  O1  UNL     1      20.633  -1.854  54.914  1.00  0.00    -0.396 OA
HETATM   10  H7  UNL     1      20.536  -2.824  54.807  1.00  0.00     0.210 HD
ENDBRANCH   6   9
ENDBRANCH   5   6
ENDBRANCH   4   5
ENDBRANCH   1   4
BRANCH   1  11
HETATM   11  C7  UNL     1      23.150   2.110  51.615  1.00  0.00     0.151 A 
HETATM   12  C8  UNL     1      23.203   2.630  50.345  1.00  0.00     0.071 A 
HETATM   13  C9  UNL     1      24.449   3.081  49.977  1.00  0.00     0.140 A 
HETATM   14  N2  UNL     1      25.533   3.031  50.759  1.00  0.00    -0.075 NA
HETATM   15  C10 UNL     1      25.442   2.517  51.991  1.00  0.00     0.728 A 
HETATM   16  N4  UNL     1      24.244   2.068  52.384  1.00  0.00    -0.045 NA
BRANCH  15  17
HETATM   17  N3  UNL     1      26.524   2.416  52.905  1.00  0.00    -0.188 N 
HETATM   18  H15 UNL     1      26.704   3.237  53.532  1.00  0.00     0.184 HD
BRANCH  17  19
HETATM   19  C11 UNL     1      27.410   1.327  53.082  1.00  0.00     0.049 A 
HETATM   20  C12 UNL     1      28.683   1.362  53.604  1.00  0.00     0.030 A 
HETATM   21  C13 UNL     1      29.526   0.293  53.767  1.00  0.00     0.002 A 
HETATM   22  C14 UNL     1      29.089  -0.945  53.384  1.00  0.00     0.000 A 
HETATM   23  C15 UNL     1      27.822  -1.060  52.851  1.00  0.00     0.002 A 
HETATM   24  C16 UNL     1      27.030   0.055  52.716  1.00  0.00     0.030 A 
ENDBRANCH  17  19
ENDBRANCH  15  17
ENDBRANCH   1  11
TORSDOF 8
ENDMDL
MODEL 8
REMARK VINA RESULT:      -7.3      2.347      3.402
REMARK  8 active torsions:
REMARK  status: ('A' for Active; 'I' for Inactive)
REMARK    1  A    between atoms: C2_2  and  C3_3 
REMARK    2  A    between atoms: C3_3  and  O1_4 
REMARK    3  A    between atoms: C3_3  and  C4_5 
REMARK    4  A    between atoms: C4_5  and  C5_6 
REMARK    5  A    between atoms: C5_6  and  N1_7 
REMARK    6  A    between atoms: N1_7  and  C7_10 
REMARK    7  A    between atoms: C10_14  and  N3_15 
REMARK    8  A    between atoms: N3_15  and  C11_16 
ROOT
HETATM    1  N1  UNL     1      25.849  -0.526  53.804  1.00  0.00    -0.320 N 
HETATM    2  C6  UNL     1      26.396  -1.503  52.932  1.00  0.00     0.478 C 
HETATM    3  O2  UNL     1      26.823  -2.379  52.153  1.00  0.00    -0.392 OA
ENDROOT
BRANCH   1   4
HETATM    4  C5  UNL     1      26.849   0.295  54.463  1.00  0.00     0.134 C 
BRANCH   4   5
HETATM    5  C4  UNL     1      27.940   0.593  53.454  1.00  0.00     0.052 C 
BRANCH   5   6
HETATM    6  C3  UNL     1      27.943   2.053  53.061  1.00  0.00     0.119 C 
BRANCH   6   7
HETATM    7  C2  UNL     1      26.664   2.457  52.375  1.00  0.00     0.027 C 
HETATM    8  C1  UNL     1      26.522   1.824  51.015  1.00  0.00     0.007 C 
ENDBRANCH   6   7
BRANCH   6   9
HETATM    9  O1  UNL     1      28.103   2.813  54.212  1.00  0.00    -0.396 OA
HETATM   10  H7  UNL     1      27.871   3.756  54.077  1.00  0.00     0.210 HD
ENDBRANCH   6   9
ENDBRANCH   5   6
ENDBRANCH   4   5
ENDBRANCH   1   4
BRANCH   1  11
HETATM   11  C7  UNL     1      24.438  -0.426  53.962  1.00  0.00     0.151 A 
HETATM   12  C8  UNL     1      23.800  -1.209  54.892  1.00  0.00     0.071 A 
HETATM   13  C9  UNL     1      22.440  -1.018  54.946  1.00  0.00     0.140 A 
HETATM   14  N2  UNL     1      21.766  -0.156  54.176  1.00  0.00    -0.075 NA
HETATM   15  C10 UNL     1      22.423   0.589  53.280  1.00  0.00     0.728 A 
HETATM   16  N4  UNL     1      23.749   0.430  53.199  1.00  0.00    -0.045 NA
BRANCH  15  17
HETATM   17  N3  UNL     1      21.811   1.534  52.413  1.00  0.00    -0.188 N 
HETATM   18  H15 UNL     1      21.120   2.200  52.837  1.00  0.00     0.184 HD
BRANCH  17  19
HETATM   19  C11 UNL     1      22.017   1.696  51.023  1.00  0.00     0.049 A 
HETATM   20  C12 UNL     1      22.878   2.572  50.404  1.00  0.00     0.030 A 
HETATM   21  C13 UNL     1      23.063   2.714  49.052  1.00  0.00     0.002 A 
HETATM   22  C14 UNL     1      22.334   1.921  48.209  1.00  0.00     0.000 A 
HETATM   23  C15 UNL     1      21.448   1.017  48.757  1.00  0.00     0.002 A 
HETATM   24  C16 UNL     1      21.313   0.929  50.122  1.00  0.00     0.030 A 
ENDBRANCH  17  19
ENDBRANCH  15  17
ENDBRANCH   1  11
TORSDOF 8
ENDMDL
MODEL 9
REMARK VINA RESULT:      -7.2      3.467      6.714
REMARK  8 active torsions:
REMARK  status: ('A' for Active; 'I' for Inactive)
REMARK    1  A    between atoms: C2_2  and  C3_3 
REMARK    2  A    between atoms: C3_3  and  O1_4 
REMARK    3  A    between atoms: C3_3  and  C4_5 
REMARK    4  A    between atoms: C4_5  and  C5_6 
REMARK    5  A    between atoms: C5_6  and  N1_7 
REMARK    6  A    between atoms: N1_7  and  C7_10 
REMARK    7  A    between atoms: C10_14  and  N3_15 
REMARK    8  A    between atoms: N3_15  and  C11_16 
ROOT
HETATM    1  N1  UNL     1      24.878   0.308  53.161  1.00  0.00    -0.320 N 
HETATM    2  C6  UNL     1      23.831  -0.374  53.835  1.00  0.00     0.478 C 
HETATM    3  O2  UNL     1      22.874  -0.934  54.405  1.00  0.00    -0.392 OA
ENDROOT
BRANCH   1   4
HETATM    4  C5  UNL     1      26.193  -0.262  53.396  1.00  0.00     0.134 C 
BRANCH   4   5
HETATM    5  C4  UNL     1      26.672   0.223  54.750  1.00  0.00     0.052 C 
BRANCH   5   6
HETATM    6  C3  UNL     1      28.165   0.040  54.903  1.00  0.00     0.119 C 
BRANCH   6   7
HETATM    7  C2  UNL     1      28.757  -0.758  53.771  1.00  0.00     0.027 C 
HETATM    8  C1  UNL     1      30.170  -0.342  53.456  1.00  0.00     0.007 C 
ENDBRANCH   6   7
BRANCH   6   9
HETATM    9  O1  UNL     1      28.757   1.295  54.935  1.00  0.00    -0.396 OA
HETATM   10  H7  UNL     1      29.724   1.261  54.780  1.00  0.00     0.210 HD
ENDBRANCH   6   9
ENDBRANCH   5   6
ENDBRANCH   4   5
ENDBRANCH   1   4
BRANCH   1  11
HETATM   11  C7  UNL     1      24.581   1.439  52.348  1.00  0.00     0.151 A 
HETATM   12  C8  UNL     1      23.386   2.096  52.508  1.00  0.00     0.071 A 
HETATM   13  C9  UNL     1      23.221   3.168  51.664  1.00  0.00     0.140 A 
HETATM   14  N2  UNL     1      24.122   3.563  50.757  1.00  0.00    -0.075 NA
HETATM   15  C10 UNL     1      25.276   2.897  50.631  1.00  0.00     0.728 A 
HETATM   16  N4  UNL     1      25.471   1.846  51.436  1.00  0.00    -0.045 NA
BRANCH  15  17
HETATM   17  N3  UNL     1      26.301   3.228  49.706  1.00  0.00    -0.188 N 
HETATM   18  H15 UNL     1      26.886   2.441  49.332  1.00  0.00     0.184 HD
BRANCH  17  19
HETATM   19  C11 UNL     1      26.642   4.508  49.211  1.00  0.00     0.049 A 
HETATM   20  C12 UNL     1      25.839   5.624  49.158  1.00  0.00     0.030 A 
HETATM   21  C13 UNL     1      26.191   6.859  48.673  1.00  0.00     0.002 A 
HETATM   22  C14 UNL     1      27.458   7.030  48.188  1.00  0.00     0.000 A 
HETATM   23  C15 UNL     1      28.322   5.955  48.207  1.00  0.00     0.002 A 
HETATM   24  C16 UNL     1      27.901   4.745  48.708  1.00  0.00     0.030 A 
ENDBRANCH  17  19
ENDBRANCH  15  17
ENDBRANCH   1  11
TORSDOF 8
ENDMDL
