MODEL 1
REMARK VINA RESULT:      -8.0      0.000      0.000
REMARK  5 active torsions:
REMARK  status: ('A' for Active; 'I' for Inactive)
REMARK    1  A    between atoms: O1_2  and  C2_3 
REMARK    2  A    between atoms: C5_6  and  O2_7 
REMARK    3  A    between atoms: C7_9  and  C8_10 
REMARK    4  A    between atoms: C8_10  and  C9_11 
REMARK    5  A    between atoms: N1_15  and  C13_16 
REMARK       I    between atoms: N2_21  and  C17_22 
REMARK       I    between atoms: C17_22  and  N4_24 
ROOT
HETATM    1  C9  UNL     1      24.279   2.366  50.812  1.00  0.00     0.023 A 
HETATM    2  C10 UNL     1      23.366   1.514  51.304  1.00  0.00    -0.007 A 
HETATM    3  C11 UNL     1      21.999   1.222  50.864  1.00  0.00     0.053 C 
HETATM    4  C12 UNL     1      23.924   0.816  52.456  1.00  0.00     0.106 A 
HETATM    5  N1  UNL     1      23.568  -0.059  53.293  1.00  0.00    -0.269 NA
HETATM    6  C16 UNL     1      25.292   1.329  52.629  1.00  0.00     0.176 A 
HETATM    7  N2  UNL     1      26.349   1.196  53.385  1.00  0.00    -0.043 NA
HETATM    8  C17 UNL     1      26.356   0.299  54.445  1.00  0.00     0.715 C 
HETATM    9  N3  UNL     1      26.445  -0.309  55.570  1.00  0.00    -0.116 NA
HETATM   10  N4  UNL     1      25.975  -1.012  53.972  1.00  0.00    -0.231 N 
HETATM   11  N5  UNL     1      25.494   2.305  51.582  1.00  0.00    -0.341 N 
HETATM   12  H16 UNL     1      26.744   0.168  56.457  1.00  0.00     0.206 HD
HETATM   13  H17 UNL     1      25.758  -1.992  53.692  1.00  0.00     0.174 HD
HETATM   14  H18 UNL     1      25.814  -2.029  53.755  1.00  0.00     0.174 HD
HETATM   15  H19 UNL     1      26.340   2.908  51.351  1.00  0.00     0.167 HD
ENDROOT
BRANCH   1  16
HETATM   16  C8  UNL     1      24.104   3.273  49.628  1.00  0.00     0.099 C 
BRANCH  16  17
HETATM   17  C7  UNL     1      24.059   4.683  50.024  1.00  0.00    -0.017 A 
HETATM   18  C5  UNL     1      25.236   5.395  50.072  1.00  0.00     0.075 A 
HETATM   19  C4  UNL     1      25.137   6.720  50.454  1.00  0.00     0.040 A 
HETATM   20  C3  UNL     1      23.903   7.277  50.768  1.00  0.00     0.039 A 
HETATM   21  C2  UNL     1      22.722   6.530  50.712  1.00  0.00     0.068 A 
HETATM   22  C18 UNL     1      22.827   5.213  50.331  1.00  0.00     0.047 A 
BRANCH  18  23
HETATM   23  O2  UNL     1      26.417   4.766  49.744  1.00  0.00    -0.355 OA
HETATM   24  C6  UNL     1      27.181   5.279  48.678  1.00  0.00     0.210 C 
ENDBRANCH  18  23
BRANCH  21  25
HETATM   25  O1  UNL     1      21.648   7.323  51.071  1.00  0.00    -0.356 OA
HETATM   26  C1  UNL     1      20.834   7.899  50.101  1.00  0.00     0.210 C 
ENDBRANCH  21  25
ENDBRANCH  16  17
ENDBRANCH   1  16
BRANCH   5  27
HETATM   27  C13 UNL     1      22.280  -0.712  53.328  1.00  0.00     0.196 A 
HETATM   28  C14 UNL     1      21.887  -1.388  54.618  1.00  0.00     0.047 A 
HETATM   29  C15 UNL     1      21.315  -0.131  54.276  1.00  0.00     0.121 A 
HETATM   30  F1  UNL     1      20.574   1.032  54.294  1.00  0.00    -0.208 F 
ENDBRANCH   5  27
TORSDOF 5
ENDMDL
MODEL 2
REMARK VINA RESULT:      -8.0      0.963      2.733
REMARK  5 active torsions:
REMARK  status: ('A' for Active; 'I' for Inactive)
REMARK    1  A    between atoms: O1_2  and  C2_3 
REMARK    2  A    between atoms: C5_6  and  O2_7 
REMARK    3  A    between atoms: C7_9  and  C8_10 
REMARK    4  A    between atoms: C8_10  and  C9_11 
REMARK    5  A    between atoms: N1_15  and  C13_16 
REMARK       I    between atoms: N2_21  and  C17_22 
REMARK       I    between atoms: C17_22  and  N4_24 
ROOT
HETATM    1  C9  UNL     1      24.051   2.384  50.959  1.00  0.00     0.023 A 
HETATM    2  C10 UNL     1      23.234   1.464  51.497  1.00  0.00    -0.007 A 
HETATM    3  C11 UNL     1      21.858   1.094  51.155  1.00  0.00     0.053 C 
HETATM    4  C12 UNL     1      23.923   0.781  52.585  1.00  0.00     0.106 A 
HETATM    5  N1  UNL     1      23.688  -0.132  53.425  1.00  0.00    -0.269 NA
HETATM    6  C16 UNL     1      25.265   1.378  52.667  1.00  0.00     0.176 A 
HETATM    7  N2  UNL     1      26.383   1.299  53.337  1.00  0.00    -0.043 NA
HETATM    8  C17 UNL     1      26.529   0.382  54.370  1.00  0.00     0.715 C 
HETATM    9  N3  UNL     1      26.743  -0.241  55.470  1.00  0.00    -0.116 NA
HETATM   10  N4  UNL     1      26.195  -0.940  53.895  1.00  0.00    -0.231 N 
HETATM   11  N5  UNL     1      25.323   2.386  51.633  1.00  0.00    -0.341 N 
HETATM   12  H16 UNL     1      27.079   0.236  56.343  1.00  0.00     0.206 HD
HETATM   13  H17 UNL     1      26.020  -1.927  53.608  1.00  0.00     0.174 HD
HETATM   14  H18 UNL     1      26.083  -1.961  53.665  1.00  0.00     0.174 HD
HETATM   15  H19 UNL     1      26.109   3.047  51.353  1.00  0.00     0.167 HD
ENDROOT
BRANCH   1  16
HETATM   16  C8  UNL     1      23.728   3.301  49.814  1.00  0.00     0.099 C 
BRANCH  16  17
HETATM   17  C7  UNL     1      24.424   4.585  49.934  1.00  0.00    -0.017 A 
HETATM   18  C5  UNL     1      23.893   5.553  50.755  1.00  0.00     0.075 A 
HETATM   19  C4  UNL     1      24.588   6.746  50.830  1.00  0.00     0.040 A 
HETATM   20  C3  UNL     1      25.758   6.930  50.103  1.00  0.00     0.039 A 
HETATM   21  C2  UNL     1      26.276   5.930  49.275  1.00  0.00     0.068 A 
HETATM   22  C18 UNL     1      25.581   4.746  49.205  1.00  0.00     0.047 A 
BRANCH  18  23
HETATM   23  O2  UNL     1      22.728   5.287  51.441  1.00  0.00    -0.355 OA
HETATM   24  C6  UNL     1      21.567   6.010  51.104  1.00  0.00     0.210 C 
ENDBRANCH  18  23
BRANCH  21  25
HETATM   25  O1  UNL     1      27.440   6.374  48.674  1.00  0.00    -0.356 OA
HETATM   26  C1  UNL     1      28.453   5.482  48.341  1.00  0.00     0.210 C 
ENDBRANCH  21  25
ENDBRANCH  16  17
ENDBRANCH   1  16
BRANCH   5  27
HETATM   27  C13 UNL     1      22.451  -0.867  53.541  1.00  0.00     0.196 A 
HETATM   28  C14 UNL     1      22.181  -1.556  54.856  1.00  0.00     0.047 A 
HETATM   29  C15 UNL     1      21.508  -0.342  54.543  1.00  0.00     0.121 A 
HETATM   30  F1  UNL     1      20.694   0.770  54.600  1.00  0.00    -0.208 F 
ENDBRANCH   5  27
TORSDOF 5
ENDMDL
MODEL 3
REMARK VINA RESULT:      -7.2      3.274      7.100
REMARK  5 active torsions:
REMARK  status: ('A' for Active; 'I' for Inactive)
REMARK    1  A    between atoms: O1_2  and  C2_3 
REMARK    2  A    between atoms: C5_6  and  O2_7 
REMARK    3  A    between atoms: C7_9  and  C8_10 
REMARK    4  A    between atoms: C8_10  and  C9_11 
REMARK    5  A    between atoms: N1_15  and  C13_16 
REMARK       I    between atoms: N2_21  and  C17_22 
REMARK       I    between atoms: C17_22  and  N4_24 
ROOT
HETATM    1  C9  UNL     1      23.838   2.537  51.330  1.00  0.00     0.023 A 
HETATM    2  C10 UNL     1      23.188   3.709  51.411  1.00  0.00    -0.007 A 
HETATM    3  C11 UNL     1      21.935   4.059  52.085  1.00  0.00     0.053 C 
HETATM    4  C12 UNL     1      23.933   4.728  50.683  1.00  0.00     0.106 A 
HETATM    5  N1  UNL     1      23.834   5.957  50.414  1.00  0.00    -0.269 NA
HETATM    6  C16 UNL     1      25.124   4.060  50.136  1.00  0.00     0.176 A 
HETATM    7  N2  UNL     1      26.195   4.294  49.425  1.00  0.00    -0.043 NA
HETATM    8  C17 UNL     1      26.457   5.566  48.933  1.00  0.00     0.715 C 
HETATM    9  N3  UNL     1      26.725   6.608  48.235  1.00  0.00    -0.116 NA
HETATM   10  N4  UNL     1      26.419   6.521  50.015  1.00  0.00    -0.231 N 
HETATM   11  N5  UNL     1      25.043   2.680  50.556  1.00  0.00    -0.341 N 
HETATM   12  H16 UNL     1      26.909   6.574  47.202  1.00  0.00     0.206 HD
HETATM   13  H17 UNL     1      26.459   7.257  50.753  1.00  0.00     0.174 HD
HETATM   14  H18 UNL     1      26.523   7.305  50.711  1.00  0.00     0.174 HD
HETATM   15  H19 UNL     1      25.699   1.861  50.375  1.00  0.00     0.167 HD
ENDROOT
BRANCH   1  16
HETATM   16  C8  UNL     1      23.409   1.235  51.945  1.00  0.00     0.099 C 
BRANCH  16  17
HETATM   17  C7  UNL     1      24.354   0.779  52.968  1.00  0.00    -0.017 A 
HETATM   18  C5  UNL     1      24.063  -0.366  53.675  1.00  0.00     0.075 A 
HETATM   19  C4  UNL     1      24.986  -0.751  54.628  1.00  0.00     0.040 A 
HETATM   20  C3  UNL     1      26.138  -0.002  54.842  1.00  0.00     0.039 A 
HETATM   21  C2  UNL     1      26.409   1.158  54.110  1.00  0.00     0.068 A 
HETATM   22  C18 UNL     1      25.487   1.535  53.162  1.00  0.00     0.047 A 
BRANCH  18  23
HETATM   23  O2  UNL     1      22.898  -1.048  53.399  1.00  0.00    -0.355 OA
HETATM   24  C6  UNL     1      22.054  -1.400  54.470  1.00  0.00     0.210 C 
ENDBRANCH  18  23
BRANCH  21  25
HETATM   25  O1  UNL     1      27.612   1.702  54.521  1.00  0.00    -0.356 OA
HETATM   26  C1  UNL     1      28.633   1.942  53.607  1.00  0.00     0.210 C 
ENDBRANCH  21  25
ENDBRANCH  16  17
ENDBRANCH   1  16
BRANCH   5  27
HETATM   27  C13 UNL     1      22.761   6.825  50.839  1.00  0.00     0.196 A 
HETATM   28  C14 UNL     1      22.570   8.109  50.069  1.00  0.00     0.047 A 
HETATM   29  C15 UNL     1      21.687   7.015  49.849  1.00  0.00     0.121 A 
HETATM   30  F1  UNL     1      20.669   6.213  49.377  1.00  0.00    -0.208 F 
ENDBRANCH   5  27
TORSDOF 5
ENDMDL
MODEL 4
REMARK VINA RESULT:      -7.1      4.471      8.095
REMARK  5 active torsions:
REMARK  status: ('A' for Active; 'I' for Inactive)
REMARK    1  A    between atoms: O1_2  and  C2_3 
REMARK    2  A    between atoms: C5_6  and  O2_7 
REMARK    3  A    between atoms: C7_9  and  C8_10 
REMARK    4  A    between atoms: C8_10  and  C9_11 
REMARK    5  A    between atoms: N1_15  and  C13_16 
REMARK       I    between atoms: N2_21  and  C17_22 
REMARK       I    between atoms: C17_22  and  N4_24 
ROOT
HETATM    1  C9  UNL     1      26.079   4.751  49.257  1.00  0.00     0.023 A 
HETATM    2  C10 UNL     1      25.670   6.022  49.391  1.00  0.00    -0.007 A 
HETATM    3  C11 UNL     1      24.378   6.568  49.815  1.00  0.00     0.053 C 
HETATM    4  C12 UNL     1      26.760   6.923  49.038  1.00  0.00     0.106 A 
HETATM    5  N1  UNL     1      26.974   8.165  48.971  1.00  0.00    -0.269 NA
HETATM    6  C16 UNL     1      27.900   6.070  48.666  1.00  0.00     0.176 A 
HETATM    7  N2  UNL     1      29.142   6.135  48.267  1.00  0.00    -0.043 NA
HETATM    8  C17 UNL     1      29.763   7.362  48.075  1.00  0.00     0.715 C 
HETATM    9  N3  UNL     1      30.398   8.391  47.647  1.00  0.00    -0.116 NA
HETATM   10  N4  UNL     1      29.633   8.163  49.270  1.00  0.00    -0.231 N 
HETATM   11  N5  UNL     1      27.448   4.705  48.811  1.00  0.00    -0.341 N 
HETATM   12  H16 UNL     1      30.832   8.440  46.692  1.00  0.00     0.206 HD
HETATM   13  H17 UNL     1      29.622   8.775  50.114  1.00  0.00     0.174 HD
HETATM   14  H18 UNL     1      29.704   8.811  50.096  1.00  0.00     0.174 HD
HETATM   15  H19 UNL     1      27.957   3.785  48.643  1.00  0.00     0.167 HD
ENDROOT
BRANCH   1  16
HETATM   16  C8  UNL     1      25.263   3.519  49.523  1.00  0.00     0.099 C 
BRANCH  16  17
HETATM   17  C7  UNL     1      25.417   3.052  50.904  1.00  0.00    -0.017 A 
HETATM   18  C5  UNL     1      24.356   3.183  51.770  1.00  0.00     0.075 A 
HETATM   19  C4  UNL     1      24.555   2.729  53.060  1.00  0.00     0.040 A 
HETATM   20  C3  UNL     1      25.773   2.174  53.435  1.00  0.00     0.039 A 
HETATM   21  C2  UNL     1      26.836   2.053  52.535  1.00  0.00     0.068 A 
HETATM   22  C18 UNL     1      26.631   2.506  51.253  1.00  0.00     0.047 A 
BRANCH  18  23
HETATM   23  O2  UNL     1      23.183   3.745  51.315  1.00  0.00    -0.355 OA
HETATM   24  C6  UNL     1      22.378   4.456  52.227  1.00  0.00     0.210 C 
ENDBRANCH  18  23
BRANCH  21  25
HETATM   25  O1  UNL     1      27.921   1.471  53.165  1.00  0.00    -0.356 OA
HETATM   26  C1  UNL     1      28.871   2.254  53.812  1.00  0.00     0.210 C 
ENDBRANCH  21  25
ENDBRANCH  16  17
ENDBRANCH   1  16
BRANCH   5  27
HETATM   27  C13 UNL     1      26.016   9.199  49.287  1.00  0.00     0.196 A 
HETATM   28  C14 UNL     1      26.219  10.545  48.636  1.00  0.00     0.047 A 
HETATM   29  C15 UNL     1      25.211   9.669  48.147  1.00  0.00     0.121 A 
HETATM   30  F1  UNL     1      24.175   9.122  47.417  1.00  0.00    -0.208 F 
ENDBRANCH   5  27
TORSDOF 5
ENDMDL
MODEL 5
REMARK VINA RESULT:      -7.1      4.466      7.762
REMARK  5 active torsions:
REMARK  status: ('A' for Active; 'I' for Inactive)
REMARK    1  A    between atoms: O1_2  and  C2_3 
REMARK    2  A    between atoms: C5_6  and  O2_7 
REMARK    3  A    between atoms: C7_9  and  C8_10 
REMARK    4  A    between atoms: C8_10  and  C9_11 
REMARK    5  A    between atoms: N1_15  and  C13_16 
REMARK       I    between atoms: N2_21  and  C17_22 
REMARK       I    between atoms: C17_22  and  N4_24 
ROOT
HETATM    1  C9  UNL     1      27.341   7.156  48.110  1.00  0.00     0.023 A 
HETATM    2  C10 UNL     1      27.044   5.971  48.667  1.00  0.00    -0.007 A 
HETATM    3  C11 UNL     1      27.733   4.681  48.588  1.00  0.00     0.053 C 
HETATM    4  C12 UNL     1      25.826   6.100  49.458  1.00  0.00     0.106 A 
HETATM    5  N1  UNL     1      25.089   5.372  50.180  1.00  0.00    -0.269 NA
HETATM    6  C16 UNL     1      25.395   7.500  49.333  1.00  0.00     0.176 A 
HETATM    7  N2  UNL     1      24.462   8.325  49.728  1.00  0.00    -0.043 NA
HETATM    8  C17 UNL     1      23.440   7.893  50.563  1.00  0.00     0.715 C 
HETATM    9  N3  UNL     1      22.331   7.607  51.141  1.00  0.00    -0.116 NA
HETATM   10  N4  UNL     1      24.004   7.262  51.733  1.00  0.00    -0.231 N 
HETATM   11  N5  UNL     1      26.364   8.147  48.479  1.00  0.00    -0.341 N 
HETATM   12  H16 UNL     1      21.395   7.859  50.739  1.00  0.00     0.206 HD
HETATM   13  H17 UNL     1      24.342   6.841  52.625  1.00  0.00     0.174 HD
HETATM   14  H18 UNL     1      24.271   6.872  52.674  1.00  0.00     0.174 HD
HETATM   15  H19 UNL     1      26.423   9.153  48.136  1.00  0.00     0.167 HD
ENDROOT
BRANCH   1  16
HETATM   16  C8  UNL     1      28.516   7.454  47.223  1.00  0.00     0.099 C 
BRANCH  16  17
HETATM   17  C7  UNL     1      29.760   7.570  47.989  1.00  0.00    -0.017 A 
HETATM   18  C5  UNL     1      29.980   8.711  48.726  1.00  0.00     0.075 A 
HETATM   19  C4  UNL     1      31.170   8.770  49.428  1.00  0.00     0.040 A 
HETATM   20  C3  UNL     1      32.077   7.718  49.373  1.00  0.00     0.039 A 
HETATM   21  C2  UNL     1      31.829   6.570  48.615  1.00  0.00     0.068 A 
HETATM   22  C18 UNL     1      30.644   6.517  47.920  1.00  0.00     0.047 A 
BRANCH  18  23
HETATM   23  O2  UNL     1      29.027   9.706  48.725  1.00  0.00    -0.355 OA
HETATM   24  C6  UNL     1      29.450  11.044  48.603  1.00  0.00     0.210 C 
ENDBRANCH  18  23
BRANCH  21  25
HETATM   25  O1  UNL     1      32.888   5.689  48.738  1.00  0.00    -0.356 OA
HETATM   26  C1  UNL     1      34.201   6.147  48.706  1.00  0.00     0.210 C 
ENDBRANCH  21  25
ENDBRANCH  16  17
ENDBRANCH   1  16
BRANCH   5  27
HETATM   27  C13 UNL     1      25.305   3.971  50.456  1.00  0.00     0.196 A 
HETATM   28  C14 UNL     1      24.363   3.310  51.432  1.00  0.00     0.047 A 
HETATM   29  C15 UNL     1      24.211   3.079  50.036  1.00  0.00     0.121 A 
HETATM   30  F1  UNL     1      23.760   2.629  48.812  1.00  0.00    -0.208 F 
ENDBRANCH   5  27
TORSDOF 5
ENDMDL
MODEL 6
REMARK VINA RESULT:      -7.0      1.650      2.793
REMARK  5 active torsions:
REMARK  status: ('A' for Active; 'I' for Inactive)
REMARK    1  A    between atoms: O1_2  and  C2_3 
REMARK    2  A    between atoms: C5_6  and  O2_7 
REMARK    3  A    between atoms: C7_9  and  C8_10 
REMARK    4  A    between atoms: C8_10  and  C9_11 
REMARK    5  A    between atoms: N1_15  and  C13_16 
REMARK       I    between atoms: N2_21  and  C17_22 
REMARK       I    between atoms: C17_22  and  N4_24 
ROOT
HETATM    1  C9  UNL     1      23.189   2.109  50.582  1.00  0.00     0.023 A 
HETATM    2  C10 UNL     1      22.638   1.147  51.339  1.00  0.00    -0.007 A 
HETATM    3  C11 UNL     1      21.348   0.463  51.222  1.00  0.00     0.053 C 
HETATM    4  C12 UNL     1      23.551   0.799  52.421  1.00  0.00     0.106 A 
HETATM    5  N1  UNL     1      23.593   0.007  53.403  1.00  0.00    -0.269 NA
HETATM    6  C16 UNL     1      24.737   1.653  52.254  1.00  0.00     0.176 A 
HETATM    7  N2  UNL     1      25.902   1.905  52.789  1.00  0.00    -0.043 NA
HETATM    8  C17 UNL     1      26.331   1.216  53.915  1.00  0.00     0.715 C 
HETATM    9  N3  UNL     1      26.771   0.835  55.058  1.00  0.00    -0.116 NA
HETATM   10  N4  UNL     1      26.246  -0.205  53.675  1.00  0.00    -0.231 N 
HETATM   11  N5  UNL     1      24.487   2.470  51.090  1.00  0.00    -0.341 N 
HETATM   12  H16 UNL     1      27.075   1.505  55.807  1.00  0.00     0.206 HD
HETATM   13  H17 UNL     1      26.260  -1.240  53.554  1.00  0.00     0.174 HD
HETATM   14  H18 UNL     1      26.333  -1.252  53.607  1.00  0.00     0.174 HD
HETATM   15  H19 UNL     1      25.086   3.218  50.626  1.00  0.00     0.167 HD
ENDROOT
BRANCH   1  16
HETATM   16  C8  UNL     1      22.577   2.746  49.367  1.00  0.00     0.099 C 
BRANCH  16  17
HETATM   17  C7  UNL     1      22.262   4.159  49.594  1.00  0.00    -0.017 A 
HETATM   18  C5  UNL     1      21.022   4.488  50.093  1.00  0.00     0.075 A 
HETATM   19  C4  UNL     1      20.775   5.835  50.287  1.00  0.00     0.040 A 
HETATM   20  C3  UNL     1      21.746   6.783  49.986  1.00  0.00     0.039 A 
HETATM   21  C2  UNL     1      22.998   6.421  49.479  1.00  0.00     0.068 A 
HETATM   22  C18 UNL     1      23.237   5.080  49.289  1.00  0.00     0.047 A 
BRANCH  18  23
HETATM   23  O2  UNL     1      20.118   3.484  50.365  1.00  0.00    -0.355 OA
HETATM   24  C6  UNL     1      19.026   3.771  51.207  1.00  0.00     0.210 C 
ENDBRANCH  18  23
BRANCH  21  25
HETATM   25  O1  UNL     1      23.765   7.552  49.270  1.00  0.00    -0.356 OA
HETATM   26  C1  UNL     1      24.431   8.165  50.327  1.00  0.00     0.210 C 
ENDBRANCH  21  25
ENDBRANCH  16  17
ENDBRANCH   1  16
BRANCH   5  27
HETATM   27  C13 UNL     1      22.555  -0.929  53.771  1.00  0.00     0.196 A 
HETATM   28  C14 UNL     1      22.567  -1.445  55.188  1.00  0.00     0.047 A 
HETATM   29  C15 UNL     1      21.625  -0.449  54.807  1.00  0.00     0.121 A 
HETATM   30  F1  UNL     1      20.605   0.479  54.821  1.00  0.00    -0.208 F 
ENDBRANCH   5  27
TORSDOF 5
ENDMDL
MODEL 7
REMARK VINA RESULT:      -6.9      4.426      7.300
REMARK  5 active torsions:
REMARK  status: ('A' for Active; 'I' for Inactive)
REMARK    1  A    between atoms: O1_2  and  C2_3 
REMARK    2  A    between atoms: C5_6  and  O2_7 
REMARK    3  A    between atoms: C7_9  and  C8_10 
REMARK    4  A    between atoms: C8_10  and  C9_11 
REMARK    5  A    between atoms: N1_15  and  C13_16 
REMARK       I    between atoms: N2_21  and  C17_22 
REMARK       I    between atoms: C17_22  and  N4_24 
ROOT
HETATM    1  C9  UNL     1      27.160   7.060  48.095  1.00  0.00     0.023 A 
HETATM    2  C10 UNL     1      26.895   5.895  48.708  1.00  0.00    -0.007 A 
HETATM    3  C11 UNL     1      27.619   4.622  48.689  1.00  0.00     0.053 C 
HETATM    4  C12 UNL     1      25.675   6.028  49.494  1.00  0.00     0.106 A 
HETATM    5  N1  UNL     1      24.958   5.316  50.251  1.00  0.00    -0.269 NA
HETATM    6  C16 UNL     1      25.205   7.409  49.303  1.00  0.00     0.176 A 
HETATM    7  N2  UNL     1      24.250   8.225  49.659  1.00  0.00    -0.043 NA
HETATM    8  C17 UNL     1      23.240   7.807  50.516  1.00  0.00     0.715 C 
HETATM    9  N3  UNL     1      22.140   7.518  51.109  1.00  0.00    -0.116 NA
HETATM   10  N4  UNL     1      23.822   7.247  51.714  1.00  0.00    -0.231 N 
HETATM   11  N5  UNL     1      26.156   8.040  48.417  1.00  0.00    -0.341 N 
HETATM   12  H16 UNL     1      21.197   7.725  50.697  1.00  0.00     0.206 HD
HETATM   13  H17 UNL     1      24.171   6.879  52.624  1.00  0.00     0.174 HD
HETATM   14  H18 UNL     1      24.100   6.910  52.672  1.00  0.00     0.174 HD
HETATM   15  H19 UNL     1      26.188   9.030  48.027  1.00  0.00     0.167 HD
ENDROOT
BRANCH   1  16
HETATM   16  C8  UNL     1      28.326   7.347  47.193  1.00  0.00     0.099 C 
BRANCH  16  17
HETATM   17  C7  UNL     1      29.487   7.833  47.943  1.00  0.00    -0.017 A 
HETATM   18  C5  UNL     1      30.574   7.001  48.094  1.00  0.00     0.075 A 
HETATM   19  C4  UNL     1      31.641   7.508  48.811  1.00  0.00     0.040 A 
HETATM   20  C3  UNL     1      31.592   8.792  49.342  1.00  0.00     0.039 A 
HETATM   21  C2  UNL     1      30.475   9.616  49.175  1.00  0.00     0.068 A 
HETATM   22  C18 UNL     1      29.417   9.107  48.460  1.00  0.00     0.047 A 
BRANCH  18  23
HETATM   23  O2  UNL     1      30.539   5.743  47.534  1.00  0.00    -0.355 OA
HETATM   24  C6  UNL     1      31.582   4.844  47.833  1.00  0.00     0.210 C 
ENDBRANCH  18  23
BRANCH  21  25
HETATM   25  O1  UNL     1      30.690  10.831  49.799  1.00  0.00    -0.356 OA
HETATM   26  C1  UNL     1      30.791  12.003  49.057  1.00  0.00     0.210 C 
ENDBRANCH  21  25
ENDBRANCH  16  17
ENDBRANCH   1  16
BRANCH   5  27
HETATM   27  C13 UNL     1      25.212   3.936  50.593  1.00  0.00     0.196 A 
HETATM   28  C14 UNL     1      24.340   3.320  51.660  1.00  0.00     0.047 A 
HETATM   29  C15 UNL     1      24.109   3.008  50.291  1.00  0.00     0.121 A 
HETATM   30  F1  UNL     1      23.594   2.482  49.125  1.00  0.00    -0.208 F 
ENDBRANCH   5  27
TORSDOF 5
ENDMDL
MODEL 8
REMARK VINA RESULT:      -6.8      5.004      8.608
REMARK  5 active torsions:
REMARK  status: ('A' for Active; 'I' for Inactive)
REMARK    1  A    between atoms: O1_2  and  C2_3 
REMARK    2  A    between atoms: C5_6  and  O2_7 
REMARK    3  A    between atoms: C7_9  and  C8_10 
REMARK    4  A    between atoms: C8_10  and  C9_11 
REMARK    5  A    between atoms: N1_15  and  C13_16 
REMARK       I    between atoms: N2_21  and  C17_22 
REMARK       I    between atoms: C17_22  and  N4_24 
ROOT
HETATM    1  C9  UNL     1      25.452   5.219  49.187  1.00  0.00     0.023 A 
HETATM    2  C10 UNL     1      26.728   5.481  48.862  1.00  0.00    -0.007 A 
HETATM    3  C11 UNL     1      27.855   4.577  48.620  1.00  0.00     0.053 C 
HETATM    4  C12 UNL     1      26.915   6.923  48.755  1.00  0.00     0.106 A 
HETATM    5  N1  UNL     1      27.843   7.737  48.491  1.00  0.00    -0.269 NA
HETATM    6  C16 UNL     1      25.610   7.534  49.051  1.00  0.00     0.176 A 
HETATM    7  N2  UNL     1      25.019   8.696  49.143  1.00  0.00    -0.043 NA
HETATM    8  C17 UNL     1      25.723   9.871  48.911  1.00  0.00     0.715 C 
HETATM    9  N3  UNL     1      26.270  11.030  48.945  1.00  0.00    -0.116 NA
HETATM   10  N4  UNL     1      26.375   9.800  47.625  1.00  0.00    -0.231 N 
HETATM   11  N5  UNL     1      24.704   6.442  49.321  1.00  0.00    -0.341 N 
HETATM   12  H16 UNL     1      26.145  11.699  49.745  1.00  0.00     0.206 HD
HETATM   13  H17 UNL     1      26.830   9.838  46.688  1.00  0.00     0.174 HD
HETATM   14  H18 UNL     1      26.818   9.928  46.678  1.00  0.00     0.174 HD
HETATM   15  H19 UNL     1      23.670   6.447  49.576  1.00  0.00     0.167 HD
ENDROOT
BRANCH   1  16
HETATM   16  C8  UNL     1      24.845   3.861  49.392  1.00  0.00     0.099 C 
BRANCH  16  17
HETATM   17  C7  UNL     1      24.979   3.409  50.780  1.00  0.00    -0.017 A 
HETATM   18  C5  UNL     1      23.989   3.732  51.680  1.00  0.00     0.075 A 
HETATM   19  C4  UNL     1      24.165   3.283  52.975  1.00  0.00     0.040 A 
HETATM   20  C3  UNL     1      25.292   2.547  53.322  1.00  0.00     0.039 A 
HETATM   21  C2  UNL     1      26.284   2.233  52.388  1.00  0.00     0.068 A 
HETATM   22  C18 UNL     1      26.103   2.682  51.101  1.00  0.00     0.047 A 
BRANCH  18  23
HETATM   23  O2  UNL     1      22.904   4.466  51.251  1.00  0.00    -0.355 OA
HETATM   24  C6  UNL     1      21.655   4.239  51.860  1.00  0.00     0.210 C 
ENDBRANCH  18  23
BRANCH  21  25
HETATM   25  O1  UNL     1      27.285   1.498  52.996  1.00  0.00    -0.356 OA
HETATM   26  C1  UNL     1      28.411   2.127  53.517  1.00  0.00     0.210 C 
ENDBRANCH  21  25
ENDBRANCH  16  17
ENDBRANCH   1  16
BRANCH   5  27
HETATM   27  C13 UNL     1      29.205   7.381  48.168  1.00  0.00     0.196 A 
HETATM   28  C14 UNL     1      29.896   8.202  47.107  1.00  0.00     0.047 A 
HETATM   29  C15 UNL     1      30.208   8.414  48.479  1.00  0.00     0.121 A 
HETATM   30  F1  UNL     1      30.755   8.893  49.652  1.00  0.00    -0.208 F 
ENDBRANCH   5  27
TORSDOF 5
ENDMDL
MODEL 9
REMARK VINA RESULT:      -6.8      3.927      6.766
REMARK  5 active torsions:
REMARK  status: ('A' for Active; 'I' for Inactive)
REMARK    1  A    between atoms: O1_2  and  C2_3 
REMARK    2  A    between atoms: C5_6  and  O2_7 
REMARK    3  A    between atoms: C7_9  and  C8_10 
REMARK    4  A    between atoms: C8_10  and  C9_11 
REMARK    5  A    between atoms: N1_15  and  C13_16 
REMARK       I    between atoms: N2_21  and  C17_22 
REMARK       I    between atoms: C17_22  and  N4_24 
ROOT
HETATM    1  C9  UNL     1      26.496   6.804  48.543  1.00  0.00     0.023 A 
HETATM    2  C10 UNL     1      26.688   5.540  48.952  1.00  0.00    -0.007 A 
HETATM    3  C11 UNL     1      27.726   4.570  48.595  1.00  0.00     0.053 C 
HETATM    4  C12 UNL     1      25.644   5.174  49.902  1.00  0.00     0.106 A 
HETATM    5  N1  UNL     1      25.309   4.175  50.596  1.00  0.00    -0.269 NA
HETATM    6  C16 UNL     1      24.777   6.354  50.041  1.00  0.00     0.176 A 
HETATM    7  N2  UNL     1      23.711   6.775  50.669  1.00  0.00    -0.043 NA
HETATM    8  C17 UNL     1      23.035   5.946  51.555  1.00  0.00     0.715 C 
HETATM    9  N3  UNL     1      22.189   5.249  52.221  1.00  0.00    -0.116 NA
HETATM   10  N4  UNL     1      23.960   5.430  52.537  1.00  0.00    -0.231 N 
HETATM   11  N5  UNL     1      25.332   7.368  49.175  1.00  0.00    -0.341 N 
HETATM   12  H16 UNL     1      21.167   5.210  51.983  1.00  0.00     0.206 HD
HETATM   13  H17 UNL     1      24.559   5.061  53.306  1.00  0.00     0.174 HD
HETATM   14  H18 UNL     1      24.492   5.062  53.368  1.00  0.00     0.174 HD
HETATM   15  H19 UNL     1      25.010   8.365  48.980  1.00  0.00     0.167 HD
ENDROOT
BRANCH   1  16
HETATM   16  C8  UNL     1      27.348   7.564  47.567  1.00  0.00     0.099 C 
BRANCH  16  17
HETATM   17  C7  UNL     1      28.374   8.360  48.246  1.00  0.00    -0.017 A 
HETATM   18  C5  UNL     1      28.064   9.640  48.645  1.00  0.00     0.075 A 
HETATM   19  C4  UNL     1      29.069  10.347  49.279  1.00  0.00     0.040 A 
HETATM   20  C3  UNL     1      30.316   9.771  49.489  1.00  0.00     0.039 A 
HETATM   21  C2  UNL     1      30.605   8.468  49.073  1.00  0.00     0.068 A 
HETATM   22  C18 UNL     1      29.602   7.770  48.444  1.00  0.00     0.047 A 
BRANCH  18  23
HETATM   23  O2  UNL     1      26.802  10.134  48.397  1.00  0.00    -0.355 OA
HETATM   24  C6  UNL     1      26.668  11.487  48.030  1.00  0.00     0.210 C 
ENDBRANCH  18  23
BRANCH  21  25
HETATM   25  O1  UNL     1      31.909   8.148  49.405  1.00  0.00    -0.356 OA
HETATM   26  C1  UNL     1      32.777   7.623  48.452  1.00  0.00     0.210 C 
ENDBRANCH  21  25
ENDBRANCH  16  17
ENDBRANCH   1  16
BRANCH   5  27
HETATM   27  C13 UNL     1      26.001   2.907  50.632  1.00  0.00     0.196 A 
HETATM   28  C14 UNL     1      26.654   2.518  51.935  1.00  0.00     0.047 A 
HETATM   29  C15 UNL     1      25.425   1.912  51.552  1.00  0.00     0.121 A 
HETATM   30  F1  UNL     1      24.286   1.134  51.530  1.00  0.00    -0.208 F 
ENDBRANCH   5  27
TORSDOF 5
ENDMDL
