MODEL 1
REMARK VINA RESULT:      -8.3      0.000      0.000
REMARK  6 active torsions:
REMARK  status: ('A' for Active; 'I' for Inactive)
REMARK    1  A    between atoms: C6_6  and  N1_7 
REMARK    2  A    between atoms: C10_11  and  C11_12 
REMARK    3  A    between atoms: C11_12  and  C12_13 
REMARK    4  A    between atoms: C12_13  and  C13_14 
REMARK    5  A    between atoms: C14_16  and  O2_17 
REMARK    6  A    between atoms: O2_17  and  C15_18 
ROOT
HETATM    1  C1  UNL     1      16.347   0.117  49.369  1.00  0.00     0.018 C 
HETATM    2  C2  UNL     1      17.016  -0.135  50.339  1.00  0.00    -0.078 C 
HETATM    3  C3  UNL     1      17.819  -0.432  51.507  1.00  0.00     0.015 A 
HETATM    4  C4  UNL     1      17.488  -1.213  52.521  1.00  0.00    -0.000 A 
HETATM    5  C5  UNL     1      18.571  -1.273  53.537  1.00  0.00     0.087 A 
HETATM    6  C6  UNL     1      19.618  -0.381  52.937  1.00  0.00     0.035 A 
HETATM    7  C19 UNL     1      19.154   0.089  51.770  1.00  0.00     0.047 A 
ENDROOT
BRANCH   6   8
HETATM    8  N1  UNL     1      20.904  -0.083  53.525  1.00  0.00    -0.278 N 
HETATM    9  C7  UNL     1      21.856   0.715  52.775  1.00  0.00     0.191 C 
HETATM   10  C8  UNL     1      23.236   0.288  53.107  1.00  0.00    -0.009 A 
HETATM   11  C9  UNL     1      24.278   0.673  52.300  1.00  0.00     0.021 A 
HETATM   12  C18 UNL     1      23.523  -0.490  54.209  1.00  0.00     0.060 A 
HETATM   13  C10 UNL     1      25.595   0.306  52.558  1.00  0.00    -0.024 A 
HETATM   14  C14 UNL     1      25.809  -0.479  53.688  1.00  0.00     0.077 A 
HETATM   15  C17 UNL     1      24.798  -0.893  54.534  1.00  0.00     0.069 A 
HETATM   16  N2  UNL     1      22.471  -0.900  55.050  1.00  0.00    -0.286 N 
HETATM   17  N3  UNL     1      21.154  -0.583  54.786  1.00  0.00    -0.240 N 
HETATM   18  H19 UNL     1      22.660  -1.465  55.906  1.00  0.00     0.188 HD
HETATM   19  H20 UNL     1      20.648  -0.094  55.545  1.00  0.00     0.208 HD
BRANCH  13  20
HETATM   20  C11 UNL     1      26.633   0.804  51.637  1.00  0.00     0.048 C 
BRANCH  20  21
HETATM   21  C12 UNL     1      26.797   2.296  51.702  1.00  0.00     0.074 C 
BRANCH  21  22
HETATM   22  C13 UNL     1      26.357   2.979  50.460  1.00  0.00     0.231 C 
HETATM   23  O1  UNL     1      27.167   3.608  49.788  1.00  0.00    -0.307 OA
ENDBRANCH  21  22
ENDBRANCH  20  21
ENDBRANCH  13  20
BRANCH  14  24
HETATM   24  O2  UNL     1      27.111  -0.832  53.924  1.00  0.00    -0.351 OA
BRANCH  24  25
HETATM   25  C15 UNL     1      28.064  -0.072  54.621  1.00  0.00     0.171 C 
HETATM   26  C16 UNL     1      29.414  -0.068  53.923  1.00  0.00     0.034 C 
ENDBRANCH  24  25
ENDBRANCH  14  24
ENDBRANCH   6   8
TORSDOF 6
ENDMDL
MODEL 2
REMARK VINA RESULT:      -8.1      4.321      6.514
REMARK  6 active torsions:
REMARK  status: ('A' for Active; 'I' for Inactive)
REMARK    1  A    between atoms: C6_6  and  N1_7 
REMARK    2  A    between atoms: C10_11  and  C11_12 
REMARK    3  A    between atoms: C11_12  and  C12_13 
REMARK    4  A    between atoms: C12_13  and  C13_14 
REMARK    5  A    between atoms: C14_16  and  O2_17 
REMARK    6  A    between atoms: O2_17  and  C15_18 
ROOT
HETATM    1  C1  UNL     1      20.118   8.421  49.971  1.00  0.00     0.018 C 
HETATM    2  C2  UNL     1      21.202   7.934  50.165  1.00  0.00    -0.078 C 
HETATM    3  C3  UNL     1      22.505   7.344  50.393  1.00  0.00     0.015 A 
HETATM    4  C4  UNL     1      23.626   7.985  50.678  1.00  0.00    -0.000 A 
HETATM    5  C5  UNL     1      24.763   7.042  50.841  1.00  0.00     0.087 A 
HETATM    6  C6  UNL     1      24.110   5.712  50.602  1.00  0.00     0.035 A 
HETATM    7  C19 UNL     1      22.810   5.921  50.346  1.00  0.00     0.047 A 
ENDROOT
BRANCH   6   8
HETATM    8  N1  UNL     1      24.775   4.430  50.643  1.00  0.00    -0.278 N 
HETATM    9  C7  UNL     1      24.024   3.257  51.051  1.00  0.00     0.191 C 
HETATM   10  C8  UNL     1      24.922   2.308  51.751  1.00  0.00    -0.009 A 
HETATM   11  C9  UNL     1      24.383   1.288  52.496  1.00  0.00     0.021 A 
HETATM   12  C18 UNL     1      26.296   2.406  51.685  1.00  0.00     0.060 A 
HETATM   13  C10 UNL     1      25.172   0.365  53.175  1.00  0.00    -0.024 A 
HETATM   14  C14 UNL     1      26.550   0.526  53.062  1.00  0.00     0.077 A 
HETATM   15  C17 UNL     1      27.145   1.534  52.326  1.00  0.00     0.069 A 
HETATM   16  N2  UNL     1      26.872   3.446  50.930  1.00  0.00    -0.286 N 
HETATM   17  N3  UNL     1      26.106   4.397  50.286  1.00  0.00    -0.240 N 
HETATM   18  H19 UNL     1      27.908   3.530  50.838  1.00  0.00     0.188 HD
HETATM   19  H20 UNL     1      26.276   4.498  49.270  1.00  0.00     0.208 HD
BRANCH  13  20
HETATM   20  C11 UNL     1      24.481  -0.704  53.918  1.00  0.00     0.048 C 
BRANCH  20  21
HETATM   21  C12 UNL     1      23.000  -0.717  53.670  1.00  0.00     0.074 C 
BRANCH  21  22
HETATM   22  C13 UNL     1      22.210  -0.949  54.906  1.00  0.00     0.231 C 
HETATM   23  O1  UNL     1      21.371  -1.842  54.937  1.00  0.00    -0.307 OA
ENDBRANCH  21  22
ENDBRANCH  20  21
ENDBRANCH  13  20
BRANCH  14  24
HETATM   24  O2  UNL     1      27.311  -0.390  53.739  1.00  0.00    -0.351 OA
BRANCH  24  25
HETATM   25  C15 UNL     1      28.511  -0.132  54.420  1.00  0.00     0.171 C 
HETATM   26  C16 UNL     1      29.694  -0.846  53.788  1.00  0.00     0.034 C 
ENDBRANCH  24  25
ENDBRANCH  14  24
ENDBRANCH   6   8
TORSDOF 6
ENDMDL
MODEL 3
REMARK VINA RESULT:      -7.9      5.235      8.345
REMARK  6 active torsions:
REMARK  status: ('A' for Active; 'I' for Inactive)
REMARK    1  A    between atoms: C6_6  and  N1_7 
REMARK    2  A    between atoms: C10_11  and  C11_12 
REMARK    3  A    between atoms: C11_12  and  C12_13 
REMARK    4  A    between atoms: C12_13  and  C13_14 
REMARK    5  A    between atoms: C14_16  and  O2_17 
REMARK    6  A    between atoms: O2_17  and  C15_18 
ROOT
HETATM    1  C1  UNL     1      27.293  -1.889  52.800  1.00  0.00     0.018 C 
HETATM    2  C2  UNL     1      26.705  -0.852  52.632  1.00  0.00    -0.078 C 
HETATM    3  C3  UNL     1      25.997   0.394  52.424  1.00  0.00     0.015 A 
HETATM    4  C4  UNL     1      24.969   0.849  53.122  1.00  0.00    -0.000 A 
HETATM    5  C5  UNL     1      24.506   2.165  52.611  1.00  0.00     0.087 A 
HETATM    6  C6  UNL     1      25.455   2.417  51.475  1.00  0.00     0.035 A 
HETATM    7  C19 UNL     1      26.299   1.378  51.393  1.00  0.00     0.047 A 
ENDROOT
BRANCH   6   8
HETATM    8  N1  UNL     1      25.450   3.581  50.620  1.00  0.00    -0.278 N 
HETATM    9  C7  UNL     1      26.362   3.632  49.492  1.00  0.00     0.191 C 
HETATM   10  C8  UNL     1      26.773   5.034  49.245  1.00  0.00    -0.009 A 
HETATM   11  C9  UNL     1      27.859   5.293  48.446  1.00  0.00     0.021 A 
HETATM   12  C18 UNL     1      26.100   6.108  49.791  1.00  0.00     0.060 A 
HETATM   13  C10 UNL     1      28.294   6.586  48.176  1.00  0.00    -0.024 A 
HETATM   14  C14 UNL     1      27.566   7.620  48.761  1.00  0.00     0.077 A 
HETATM   15  C17 UNL     1      26.466   7.416  49.572  1.00  0.00     0.069 A 
HETATM   16  N2  UNL     1      24.986   5.868  50.616  1.00  0.00    -0.286 N 
HETATM   17  N3  UNL     1      24.566   4.592  50.932  1.00  0.00    -0.240 N 
HETATM   18  H19 UNL     1      24.439   6.660  51.022  1.00  0.00     0.188 HD
HETATM   19  H20 UNL     1      23.578   4.375  50.710  1.00  0.00     0.208 HD
BRANCH  13  20
HETATM   20  C11 UNL     1      29.454   6.741  47.280  1.00  0.00     0.048 C 
BRANCH  20  21
HETATM   21  C12 UNL     1      30.578   5.805  47.622  1.00  0.00     0.074 C 
BRANCH  21  22
HETATM   22  C13 UNL     1      31.361   6.250  48.802  1.00  0.00     0.231 C 
HETATM   23  O1  UNL     1      31.491   5.504  49.767  1.00  0.00    -0.307 OA
ENDBRANCH  21  22
ENDBRANCH  20  21
ENDBRANCH  13  20
BRANCH  14  24
HETATM   24  O2  UNL     1      28.011   8.885  48.486  1.00  0.00    -0.351 OA
BRANCH  24  25
HETATM   25  C15 UNL     1      28.564   9.790  49.406  1.00  0.00     0.171 C 
HETATM   26  C16 UNL     1      30.078   9.683  49.476  1.00  0.00     0.034 C 
ENDBRANCH  24  25
ENDBRANCH  14  24
ENDBRANCH   6   8
TORSDOF 6
ENDMDL
MODEL 4
REMARK VINA RESULT:      -7.3      3.800      8.530
REMARK  6 active torsions:
REMARK  status: ('A' for Active; 'I' for Inactive)
REMARK    1  A    between atoms: C6_6  and  N1_7 
REMARK    2  A    between atoms: C10_11  and  C11_12 
REMARK    3  A    between atoms: C11_12  and  C12_13 
REMARK    4  A    between atoms: C12_13  and  C13_14 
REMARK    5  A    between atoms: C14_16  and  O2_17 
REMARK    6  A    between atoms: O2_17  and  C15_18 
ROOT
HETATM    1  C1  UNL     1      29.981  -2.140  53.773  1.00  0.00     0.018 C 
HETATM    2  C2  UNL     1      29.448  -1.069  53.631  1.00  0.00    -0.078 C 
HETATM    3  C3  UNL     1      28.802   0.216  53.462  1.00  0.00     0.015 A 
HETATM    4  C4  UNL     1      29.221   1.382  53.924  1.00  0.00    -0.000 A 
HETATM    5  C5  UNL     1      28.291   2.480  53.552  1.00  0.00     0.087 A 
HETATM    6  C6  UNL     1      27.234   1.750  52.776  1.00  0.00     0.035 A 
HETATM    7  C19 UNL     1      27.557   0.449  52.743  1.00  0.00     0.047 A 
ENDROOT
BRANCH   6   8
HETATM    8  N1  UNL     1      26.070   2.355  52.170  1.00  0.00    -0.278 N 
HETATM    9  C7  UNL     1      24.750   1.908  52.576  1.00  0.00     0.191 C 
HETATM   10  C8  UNL     1      23.815   2.009  51.431  1.00  0.00    -0.009 A 
HETATM   11  C9  UNL     1      22.608   1.356  51.481  1.00  0.00     0.021 A 
HETATM   12  C18 UNL     1      24.108   2.742  50.300  1.00  0.00     0.060 A 
HETATM   13  C10 UNL     1      21.687   1.412  50.440  1.00  0.00    -0.024 A 
HETATM   14  C14 UNL     1      22.052   2.171  49.331  1.00  0.00     0.077 A 
HETATM   15  C17 UNL     1      23.252   2.848  49.229  1.00  0.00     0.069 A 
HETATM   16  N2  UNL     1      25.341   3.417  50.224  1.00  0.00    -0.286 N 
HETATM   17  N3  UNL     1      26.286   3.338  51.228  1.00  0.00    -0.240 N 
HETATM   18  H19 UNL     1      25.581   4.002  49.394  1.00  0.00     0.188 HD
HETATM   19  H20 UNL     1      26.601   4.242  51.621  1.00  0.00     0.208 HD
BRANCH  13  20
HETATM   20  C11 UNL     1      20.412   0.694  50.619  1.00  0.00     0.048 C 
BRANCH  20  21
HETATM   21  C12 UNL     1      19.686   1.109  51.867  1.00  0.00     0.074 C 
BRANCH  21  22
HETATM   22  C13 UNL     1      18.854   2.324  51.673  1.00  0.00     0.231 C 
HETATM   23  O1  UNL     1      19.237   3.403  52.112  1.00  0.00    -0.307 OA
ENDBRANCH  21  22
ENDBRANCH  20  21
ENDBRANCH  13  20
BRANCH  14  24
HETATM   24  O2  UNL     1      21.134   2.212  48.315  1.00  0.00    -0.351 OA
BRANCH  24  25
HETATM   25  C15 UNL     1      20.451   3.350  47.858  1.00  0.00     0.171 C 
HETATM   26  C16 UNL     1      18.948   3.227  48.037  1.00  0.00     0.034 C 
ENDBRANCH  24  25
ENDBRANCH  14  24
ENDBRANCH   6   8
TORSDOF 6
ENDMDL
MODEL 5
REMARK VINA RESULT:      -7.2      4.324      8.121
REMARK  6 active torsions:
REMARK  status: ('A' for Active; 'I' for Inactive)
REMARK    1  A    between atoms: C6_6  and  N1_7 
REMARK    2  A    between atoms: C10_11  and  C11_12 
REMARK    3  A    between atoms: C11_12  and  C12_13 
REMARK    4  A    between atoms: C12_13  and  C13_14 
REMARK    5  A    between atoms: C14_16  and  O2_17 
REMARK    6  A    between atoms: O2_17  and  C15_18 
ROOT
HETATM    1  C1  UNL     1      25.647   9.559  47.632  1.00  0.00     0.018 C 
HETATM    2  C2  UNL     1      26.057   8.464  47.923  1.00  0.00    -0.078 C 
HETATM    3  C3  UNL     1      26.544   7.145  48.270  1.00  0.00     0.015 A 
HETATM    4  C4  UNL     1      27.728   6.635  47.979  1.00  0.00    -0.000 A 
HETATM    5  C5  UNL     1      27.866   5.250  48.501  1.00  0.00     0.087 A 
HETATM    6  C6  UNL     1      26.539   5.027  49.164  1.00  0.00     0.035 A 
HETATM    7  C19 UNL     1      25.800   6.136  49.013  1.00  0.00     0.047 A 
ENDROOT
BRANCH   6   8
HETATM    8  N1  UNL     1      26.134   3.820  49.846  1.00  0.00    -0.278 N 
HETATM    9  C7  UNL     1      24.922   3.142  49.422  1.00  0.00     0.191 C 
HETATM   10  C8  UNL     1      24.281   2.490  50.588  1.00  0.00    -0.009 A 
HETATM   11  C9  UNL     1      22.979   2.063  50.497  1.00  0.00     0.021 A 
HETATM   12  C18 UNL     1      24.946   2.289  51.780  1.00  0.00     0.060 A 
HETATM   13  C10 UNL     1      22.323   1.444  51.555  1.00  0.00    -0.024 A 
HETATM   14  C14 UNL     1      23.056   1.274  52.726  1.00  0.00     0.077 A 
HETATM   15  C17 UNL     1      24.368   1.684  52.872  1.00  0.00     0.069 A 
HETATM   16  N2  UNL     1      26.281   2.720  51.899  1.00  0.00    -0.286 N 
HETATM   17  N3  UNL     1      26.936   3.376  50.876  1.00  0.00    -0.240 N 
HETATM   18  H19 UNL     1      26.820   2.558  52.778  1.00  0.00     0.188 HD
HETATM   19  H20 UNL     1      27.827   2.950  50.567  1.00  0.00     0.208 HD
BRANCH  13  20
HETATM   20  C11 UNL     1      20.934   1.003  51.329  1.00  0.00     0.048 C 
BRANCH  20  21
HETATM   21  C12 UNL     1      20.160   1.951  50.459  1.00  0.00     0.074 C 
BRANCH  21  22
HETATM   22  C13 UNL     1      19.050   2.622  51.181  1.00  0.00     0.231 C 
HETATM   23  O1  UNL     1      19.283   3.260  52.202  1.00  0.00    -0.307 OA
ENDBRANCH  21  22
ENDBRANCH  20  21
ENDBRANCH  13  20
BRANCH  14  24
HETATM   24  O2  UNL     1      22.392   0.666  53.758  1.00  0.00    -0.351 OA
BRANCH  24  25
HETATM   25  C15 UNL     1      22.579  -0.653  54.202  1.00  0.00     0.171 C 
HETATM   26  C16 UNL     1      21.260  -1.362  54.462  1.00  0.00     0.034 C 
ENDBRANCH  24  25
ENDBRANCH  14  24
ENDBRANCH   6   8
TORSDOF 6
ENDMDL
MODEL 6
REMARK VINA RESULT:      -7.2      3.907      8.360
REMARK  6 active torsions:
REMARK  status: ('A' for Active; 'I' for Inactive)
REMARK    1  A    between atoms: C6_6  and  N1_7 
REMARK    2  A    between atoms: C10_11  and  C11_12 
REMARK    3  A    between atoms: C11_12  and  C12_13 
REMARK    4  A    between atoms: C12_13  and  C13_14 
REMARK    5  A    between atoms: C14_16  and  O2_17 
REMARK    6  A    between atoms: O2_17  and  C15_18 
ROOT
HETATM    1  C1  UNL     1      28.671   8.906  47.161  1.00  0.00     0.018 C 
HETATM    2  C2  UNL     1      28.243   7.881  47.626  1.00  0.00    -0.078 C 
HETATM    3  C3  UNL     1      27.724   6.648  48.182  1.00  0.00     0.015 A 
HETATM    4  C4  UNL     1      28.344   5.482  48.243  1.00  0.00    -0.000 A 
HETATM    5  C5  UNL     1      27.490   4.446  48.882  1.00  0.00     0.087 A 
HETATM    6  C6  UNL     1      26.240   5.215  49.195  1.00  0.00     0.035 A 
HETATM    7  C19 UNL     1      26.405   6.479  48.779  1.00  0.00     0.047 A 
ENDROOT
BRANCH   6   8
HETATM    8  N1  UNL     1      25.062   4.676  49.836  1.00  0.00    -0.278 N 
HETATM    9  C7  UNL     1      25.196   4.026  51.127  1.00  0.00     0.191 C 
HETATM   10  C8  UNL     1      24.192   2.943  51.247  1.00  0.00    -0.009 A 
HETATM   11  C9  UNL     1      24.329   1.996  52.232  1.00  0.00     0.021 A 
HETATM   12  C18 UNL     1      23.109   2.843  50.399  1.00  0.00     0.060 A 
HETATM   13  C10 UNL     1      23.421   0.955  52.396  1.00  0.00    -0.024 A 
HETATM   14  C14 UNL     1      22.353   0.918  51.504  1.00  0.00     0.077 A 
HETATM   15  C17 UNL     1      22.166   1.845  50.496  1.00  0.00     0.069 A 
HETATM   16  N2  UNL     1      22.948   3.799  49.379  1.00  0.00    -0.286 N 
HETATM   17  N3  UNL     1      23.862   4.813  49.172  1.00  0.00    -0.240 N 
HETATM   18  H19 UNL     1      22.124   3.767  48.739  1.00  0.00     0.188 HD
HETATM   19  H20 UNL     1      23.477   5.774  49.184  1.00  0.00     0.208 HD
BRANCH  13  20
HETATM   20  C11 UNL     1      23.656   0.016  53.508  1.00  0.00     0.048 C 
BRANCH  20  21
HETATM   21  C12 UNL     1      25.048  -0.549  53.503  1.00  0.00     0.074 C 
BRANCH  21  22
HETATM   22  C13 UNL     1      25.802  -0.235  54.743  1.00  0.00     0.231 C 
HETATM   23  O1  UNL     1      26.390   0.836  54.846  1.00  0.00    -0.307 OA
ENDBRANCH  21  22
ENDBRANCH  20  21
ENDBRANCH  13  20
BRANCH  14  24
HETATM   24  O2  UNL     1      21.471  -0.114  51.680  1.00  0.00    -0.351 OA
BRANCH  24  25
HETATM   25  C15 UNL     1      20.138  -0.005  52.108  1.00  0.00     0.171 C 
HETATM   26  C16 UNL     1      20.000  -0.207  53.608  1.00  0.00     0.034 C 
ENDBRANCH  24  25
ENDBRANCH  14  24
ENDBRANCH   6   8
TORSDOF 6
ENDMDL
MODEL 7
REMARK VINA RESULT:      -6.9      3.710      7.857
REMARK  6 active torsions:
REMARK  status: ('A' for Active; 'I' for Inactive)
REMARK    1  A    between atoms: C6_6  and  N1_7 
REMARK    2  A    between atoms: C10_11  and  C11_12 
REMARK    3  A    between atoms: C11_12  and  C12_13 
REMARK    4  A    between atoms: C12_13  and  C13_14 
REMARK    5  A    between atoms: C14_16  and  O2_17 
REMARK    6  A    between atoms: O2_17  and  C15_18 
ROOT
HETATM    1  C1  UNL     1      28.092   6.989  47.956  1.00  0.00     0.018 C 
HETATM    2  C2  UNL     1      27.100   7.014  48.638  1.00  0.00    -0.078 C 
HETATM    3  C3  UNL     1      25.910   7.040  49.463  1.00  0.00     0.015 A 
HETATM    4  C4  UNL     1      25.206   8.105  49.805  1.00  0.00    -0.000 A 
HETATM    5  C5  UNL     1      24.050   7.739  50.665  1.00  0.00     0.087 A 
HETATM    6  C6  UNL     1      24.193   6.249  50.771  1.00  0.00     0.035 A 
HETATM    7  C19 UNL     1      25.275   5.878  50.070  1.00  0.00     0.047 A 
ENDROOT
BRANCH   6   8
HETATM    8  N1  UNL     1      23.313   5.371  51.507  1.00  0.00    -0.278 N 
HETATM    9  C7  UNL     1      23.888   4.341  52.353  1.00  0.00     0.191 C 
HETATM   10  C8  UNL     1      22.994   3.160  52.378  1.00  0.00    -0.009 A 
HETATM   11  C9  UNL     1      23.469   1.959  52.846  1.00  0.00     0.021 A 
HETATM   12  C18 UNL     1      21.685   3.214  51.946  1.00  0.00     0.060 A 
HETATM   13  C10 UNL     1      22.679   0.815  52.895  1.00  0.00    -0.024 A 
HETATM   14  C14 UNL     1      21.369   0.945  52.443  1.00  0.00     0.077 A 
HETATM   15  C17 UNL     1      20.841   2.129  51.963  1.00  0.00     0.069 A 
HETATM   16  N2  UNL     1      21.176   4.433  51.459  1.00  0.00    -0.286 N 
HETATM   17  N3  UNL     1      21.956   5.568  51.360  1.00  0.00    -0.240 N 
HETATM   18  H19 UNL     1      20.183   4.514  51.150  1.00  0.00     0.188 HD
HETATM   19  H20 UNL     1      21.593   6.407  51.847  1.00  0.00     0.208 HD
BRANCH  13  20
HETATM   20  C11 UNL     1      23.290  -0.410  53.445  1.00  0.00     0.048 C 
BRANCH  20  21
HETATM   21  C12 UNL     1      24.785  -0.422  53.307  1.00  0.00     0.074 C 
BRANCH  21  22
HETATM   22  C13 UNL     1      25.475  -0.867  54.545  1.00  0.00     0.231 C 
HETATM   23  O1  UNL     1      26.304  -0.138  55.078  1.00  0.00    -0.307 OA
ENDBRANCH  21  22
ENDBRANCH  20  21
ENDBRANCH  13  20
BRANCH  14  24
HETATM   24  O2  UNL     1      20.608  -0.192  52.497  1.00  0.00    -0.351 OA
BRANCH  24  25
HETATM   25  C15 UNL     1      19.598  -0.473  53.431  1.00  0.00     0.171 C 
HETATM   26  C16 UNL     1      18.272  -0.792  52.762  1.00  0.00     0.034 C 
ENDBRANCH  24  25
ENDBRANCH  14  24
ENDBRANCH   6   8
TORSDOF 6
ENDMDL
MODEL 8
REMARK VINA RESULT:      -6.7      4.485      8.972
REMARK  6 active torsions:
REMARK  status: ('A' for Active; 'I' for Inactive)
REMARK    1  A    between atoms: C6_6  and  N1_7 
REMARK    2  A    between atoms: C10_11  and  C11_12 
REMARK    3  A    between atoms: C11_12  and  C12_13 
REMARK    4  A    between atoms: C12_13  and  C13_14 
REMARK    5  A    between atoms: C14_16  and  O2_17 
REMARK    6  A    between atoms: O2_17  and  C15_18 
ROOT
HETATM    1  C1  UNL     1      28.147   9.670  48.773  1.00  0.00     0.018 C 
HETATM    2  C2  UNL     1      27.515   8.672  49.009  1.00  0.00    -0.078 C 
HETATM    3  C3  UNL     1      26.750   7.475  49.291  1.00  0.00     0.015 A 
HETATM    4  C4  UNL     1      26.895   6.289  48.725  1.00  0.00    -0.000 A 
HETATM    5  C5  UNL     1      25.926   5.304  49.272  1.00  0.00     0.087 A 
HETATM    6  C6  UNL     1      25.172   6.125  50.277  1.00  0.00     0.035 A 
HETATM    7  C19 UNL     1      25.670   7.371  50.263  1.00  0.00     0.047 A 
ENDROOT
BRANCH   6   8
HETATM    8  N1  UNL     1      24.096   5.647  51.113  1.00  0.00    -0.278 N 
HETATM    9  C7  UNL     1      24.193   4.324  51.703  1.00  0.00     0.191 C 
HETATM   10  C8  UNL     1      22.841   3.731  51.825  1.00  0.00    -0.009 A 
HETATM   11  C9  UNL     1      22.708   2.384  52.056  1.00  0.00     0.021 A 
HETATM   12  C18 UNL     1      21.691   4.486  51.716  1.00  0.00     0.060 A 
HETATM   13  C10 UNL     1      21.467   1.769  52.181  1.00  0.00    -0.024 A 
HETATM   14  C14 UNL     1      20.352   2.593  52.060  1.00  0.00     0.077 A 
HETATM   15  C17 UNL     1      20.428   3.953  51.828  1.00  0.00     0.069 A 
HETATM   16  N2  UNL     1      21.801   5.868  51.476  1.00  0.00    -0.286 N 
HETATM   17  N3  UNL     1      23.021   6.490  51.305  1.00  0.00    -0.240 N 
HETATM   18  H19 UNL     1      20.950   6.471  51.416  1.00  0.00     0.188 HD
HETATM   19  H20 UNL     1      23.213   7.286  51.938  1.00  0.00     0.208 HD
BRANCH  13  20
HETATM   20  C11 UNL     1      21.451   0.321  52.458  1.00  0.00     0.048 C 
BRANCH  20  21
HETATM   21  C12 UNL     1      21.748   0.003  53.895  1.00  0.00     0.074 C 
BRANCH  21  22
HETATM   22  C13 UNL     1      21.418  -1.399  54.256  1.00  0.00     0.231 C 
HETATM   23  O1  UNL     1      21.925  -1.911  55.248  1.00  0.00    -0.307 OA
ENDBRANCH  21  22
ENDBRANCH  20  21
ENDBRANCH  13  20
BRANCH  14  24
HETATM   24  O2  UNL     1      19.139   1.968  52.183  1.00  0.00    -0.351 OA
BRANCH  24  25
HETATM   25  C15 UNL     1      17.943   2.345  51.551  1.00  0.00     0.171 C 
HETATM   26  C16 UNL     1      17.731   1.607  50.240  1.00  0.00     0.034 C 
ENDBRANCH  24  25
ENDBRANCH  14  24
ENDBRANCH   6   8
TORSDOF 6
ENDMDL
MODEL 9
REMARK VINA RESULT:      -6.6      4.461      6.850
REMARK  6 active torsions:
REMARK  status: ('A' for Active; 'I' for Inactive)
REMARK    1  A    between atoms: C6_6  and  N1_7 
REMARK    2  A    between atoms: C10_11  and  C11_12 
REMARK    3  A    between atoms: C11_12  and  C12_13 
REMARK    4  A    between atoms: C12_13  and  C13_14 
REMARK    5  A    between atoms: C14_16  and  O2_17 
REMARK    6  A    between atoms: O2_17  and  C15_18 
ROOT
HETATM    1  C1  UNL     1      21.790  10.554  48.068  1.00  0.00     0.018 C 
HETATM    2  C2  UNL     1      22.287   9.663  48.708  1.00  0.00    -0.078 C 
HETATM    3  C3  UNL     1      22.882   8.587  49.474  1.00  0.00     0.015 A 
HETATM    4  C4  UNL     1      24.172   8.366  49.661  1.00  0.00    -0.000 A 
HETATM    5  C5  UNL     1      24.400   7.162  50.503  1.00  0.00     0.087 A 
HETATM    6  C6  UNL     1      22.999   6.705  50.789  1.00  0.00     0.035 A 
HETATM    7  C19 UNL     1      22.149   7.546  50.181  1.00  0.00     0.047 A 
ENDROOT
BRANCH   6   8
HETATM    8  N1  UNL     1      22.638   5.554  51.583  1.00  0.00    -0.278 N 
HETATM    9  C7  UNL     1      23.638   4.949  52.445  1.00  0.00     0.191 C 
HETATM   10  C8  UNL     1      23.397   3.490  52.540  1.00  0.00    -0.009 A 
HETATM   11  C9  UNL     1      24.382   2.670  53.033  1.00  0.00     0.021 A 
HETATM   12  C18 UNL     1      22.207   2.911  52.150  1.00  0.00     0.060 A 
HETATM   13  C10 UNL     1      24.216   1.294  53.149  1.00  0.00    -0.024 A 
HETATM   14  C14 UNL     1      22.990   0.780  52.736  1.00  0.00     0.077 A 
HETATM   15  C17 UNL     1      21.965   1.559  52.233  1.00  0.00     0.069 A 
HETATM   16  N2  UNL     1      21.183   3.730  51.639  1.00  0.00    -0.286 N 
HETATM   17  N3  UNL     1      21.344   5.091  51.475  1.00  0.00    -0.240 N 
HETATM   18  H19 UNL     1      20.262   3.326  51.361  1.00  0.00     0.188 HD
HETATM   19  H20 UNL     1      20.639   5.687  51.945  1.00  0.00     0.208 HD
BRANCH  13  20
HETATM   20  C11 UNL     1      25.334   0.520  53.720  1.00  0.00     0.048 C 
BRANCH  20  21
HETATM   21  C12 UNL     1      26.388   0.190  52.702  1.00  0.00     0.074 C 
BRANCH  21  22
HETATM   22  C13 UNL     1      27.664   0.912  52.939  1.00  0.00     0.231 C 
HETATM   23  O1  UNL     1      27.850   2.009  52.423  1.00  0.00    -0.307 OA
ENDBRANCH  21  22
ENDBRANCH  20  21
ENDBRANCH  13  20
BRANCH  14  24
HETATM   24  O2  UNL     1      22.847  -0.577  52.854  1.00  0.00    -0.351 OA
BRANCH  24  25
HETATM   25  C15 UNL     1      22.420  -1.270  53.998  1.00  0.00     0.171 C 
HETATM   26  C16 UNL     1      21.366  -0.500  54.775  1.00  0.00     0.034 C 
ENDBRANCH  24  25
ENDBRANCH  14  24
ENDBRANCH   6   8
TORSDOF 6
ENDMDL
