MODEL 1
REMARK VINA RESULT:      -8.1      0.000      0.000
REMARK  3 active torsions:
REMARK  status: ('A' for Active; 'I' for Inactive)
REMARK    1  A    between atoms: C3_3  and  C4_4 
REMARK    2  A    between atoms: C9_10  and  N2_11 
REMARK    3  A    between atoms: N2_11  and  C10_12 
ROOT
HETATM    1  C4  UNL     1      23.305   1.981  52.885  1.00  0.00     0.093 C 
HETATM    2  C5  UNL     1      21.910   2.317  52.483  1.00  0.00    -0.006 C 
HETATM    3  C6  UNL     1      22.218   3.390  51.771  1.00  0.00    -0.042 C 
HETATM    4  C7  UNL     1      22.329   3.625  50.257  1.00  0.00     0.156 C 
HETATM    5  N1  UNL     1      23.825   3.585  50.121  1.00  0.00    -0.382 N 
HETATM    6  C8  UNL     1      24.742   3.202  51.200  1.00  0.00     0.109 A 
HETATM    7  C9  UNL     1      25.999   3.069  50.712  1.00  0.00     0.156 A 
HETATM    8  N3  UNL     1      27.023   2.694  51.587  1.00  0.00    -0.224 NA
HETATM    9  C16 UNL     1      26.867   2.459  52.836  1.00  0.00     0.207 A 
HETATM   10  N4  UNL     1      25.553   2.594  53.356  1.00  0.00    -0.347 N 
HETATM   11  C17 UNL     1      24.340   2.995  52.634  1.00  0.00     0.192 A 
HETATM   12  O1  UNL     1      23.935   4.232  53.132  1.00  0.00    -0.350 OA
HETATM   13  C18 UNL     1      22.643   4.562  52.666  1.00  0.00     0.207 C 
HETATM   14  H10 UNL     1      24.207   3.853  49.188  1.00  0.00     0.160 HD
HETATM   15  H17 UNL     1      25.318   2.403  54.375  1.00  0.00     0.163 HD
ENDROOT
BRANCH   7  16
HETATM   16  N2  UNL     1      26.232   3.301  49.342  1.00  0.00    -0.339 N 
HETATM   17  H11 UNL     1      26.008   2.652  48.533  1.00  0.00     0.167 HD
BRANCH  16  18
HETATM   18  C10 UNL     1      26.835   4.539  48.972  1.00  0.00     0.035 A 
HETATM   19  C11 UNL     1      26.100   5.712  48.935  1.00  0.00     0.029 A 
HETATM   20  C12 UNL     1      26.666   6.922  48.579  1.00  0.00     0.004 A 
HETATM   21  C13 UNL     1      28.004   6.997  48.244  1.00  0.00     0.019 A 
HETATM   22  C14 UNL     1      28.765   5.848  48.269  1.00  0.00     0.013 A 
HETATM   23 BR1  UNL     1      30.639   5.851  47.816  1.00  0.00    -0.051 Br
HETATM   24  C15 UNL     1      28.164   4.675  48.627  1.00  0.00     0.048 A 
ENDBRANCH  16  18
ENDBRANCH   7  16
BRANCH   1  25
HETATM   25  C3  UNL     1      23.680   0.610  52.435  1.00  0.00    -0.017 C 
HETATM   26  C2  UNL     1      23.442  -0.510  53.101  1.00  0.00    -0.034 C 
HETATM   27  C1  UNL     1      22.788  -0.776  54.391  1.00  0.00     0.036 C 
ENDBRANCH   1  25
TORSDOF 3
ENDMDL
MODEL 2
REMARK VINA RESULT:      -8.1      2.850      5.246
REMARK  3 active torsions:
REMARK  status: ('A' for Active; 'I' for Inactive)
REMARK    1  A    between atoms: C3_3  and  C4_4 
REMARK    2  A    between atoms: C9_10  and  N2_11 
REMARK    3  A    between atoms: N2_11  and  C10_12 
ROOT
HETATM    1  C4  UNL     1      22.954   4.146  49.274  1.00  0.00     0.093 C 
HETATM    2  C5  UNL     1      23.311   5.237  48.325  1.00  0.00    -0.006 C 
HETATM    3  C6  UNL     1      24.236   5.798  49.088  1.00  0.00    -0.042 C 
HETATM    4  C7  UNL     1      25.771   5.751  49.049  1.00  0.00     0.156 C 
HETATM    5  N1  UNL     1      26.005   4.768  50.162  1.00  0.00    -0.382 N 
HETATM    6  C8  UNL     1      24.942   4.011  50.832  1.00  0.00     0.109 A 
HETATM    7  C9  UNL     1      25.484   3.070  51.641  1.00  0.00     0.156 A 
HETATM    8  N3  UNL     1      24.630   2.230  52.363  1.00  0.00    -0.224 NA
HETATM    9  C16 UNL     1      23.351   2.279  52.320  1.00  0.00     0.207 A 
HETATM   10  N4  UNL     1      22.773   3.261  51.474  1.00  0.00    -0.347 N 
HETATM   11  C17 UNL     1      23.469   4.255  50.648  1.00  0.00     0.192 A 
HETATM   12  O1  UNL     1      23.190   5.516  51.170  1.00  0.00    -0.350 OA
HETATM   13  C18 UNL     1      23.616   6.531  50.285  1.00  0.00     0.207 C 
HETATM   14  H10 UNL     1      26.997   4.637  50.456  1.00  0.00     0.160 HD
HETATM   15  H17 UNL     1      21.722   3.368  51.355  1.00  0.00     0.163 HD
ENDROOT
BRANCH   7  16
HETATM   16  N2  UNL     1      26.887   2.959  51.721  1.00  0.00    -0.339 N 
HETATM   17  H11 UNL     1      27.608   3.586  51.261  1.00  0.00     0.167 HD
BRANCH  16  18
HETATM   18  C10 UNL     1      27.424   1.895  52.503  1.00  0.00     0.035 A 
HETATM   19  C11 UNL     1      28.281   2.144  53.562  1.00  0.00     0.029 A 
HETATM   20  C12 UNL     1      28.813   1.126  54.332  1.00  0.00     0.004 A 
HETATM   21  C13 UNL     1      28.499  -0.192  54.062  1.00  0.00     0.019 A 
HETATM   22  C14 UNL     1      27.649  -0.477  53.015  1.00  0.00     0.013 A 
HETATM   23 BR1  UNL     1      27.153  -2.283  52.559  1.00  0.00    -0.051 Br
HETATM   24  C15 UNL     1      27.148   0.561  52.281  1.00  0.00     0.048 A 
ENDBRANCH  16  18
ENDBRANCH   7  16
BRANCH   1  25
HETATM   25  C3  UNL     1      23.158   2.805  48.656  1.00  0.00    -0.017 C 
HETATM   26  C2  UNL     1      22.195   1.984  48.265  1.00  0.00    -0.034 C 
HETATM   27  C1  UNL     1      20.728   2.090  48.297  1.00  0.00     0.036 C 
ENDBRANCH   1  25
TORSDOF 3
ENDMDL
MODEL 3
REMARK VINA RESULT:      -7.7      1.745      2.142
REMARK  3 active torsions:
REMARK  status: ('A' for Active; 'I' for Inactive)
REMARK    1  A    between atoms: C3_3  and  C4_4 
REMARK    2  A    between atoms: C9_10  and  N2_11 
REMARK    3  A    between atoms: N2_11  and  C10_12 
ROOT
HETATM    1  C4  UNL     1      21.618   0.919  52.198  1.00  0.00     0.093 C 
HETATM    2  C5  UNL     1      20.631   0.322  51.255  1.00  0.00    -0.006 C 
HETATM    3  C6  UNL     1      20.800   1.208  50.286  1.00  0.00    -0.042 C 
HETATM    4  C7  UNL     1      21.567   1.146  48.957  1.00  0.00     0.156 C 
HETATM    5  N1  UNL     1      22.789   1.926  49.352  1.00  0.00    -0.382 N 
HETATM    6  C8  UNL     1      23.085   2.358  50.723  1.00  0.00     0.109 A 
HETATM    7  C9  UNL     1      24.342   2.857  50.789  1.00  0.00     0.156 A 
HETATM    8  N3  UNL     1      24.822   3.312  52.021  1.00  0.00    -0.224 NA
HETATM    9  C16 UNL     1      24.156   3.294  53.115  1.00  0.00     0.207 A 
HETATM   10  N4  UNL     1      22.838   2.771  53.057  1.00  0.00    -0.347 N 
HETATM   11  C17 UNL     1      22.126   2.262  51.878  1.00  0.00     0.192 A 
HETATM   12  O1  UNL     1      21.069   3.128  51.609  1.00  0.00    -0.350 OA
HETATM   13  C18 UNL     1      20.195   2.570  50.650  1.00  0.00     0.207 C 
HETATM   14  H10 UNL     1      23.451   2.163  48.581  1.00  0.00     0.160 HD
HETATM   15  H17 UNL     1      22.213   2.696  53.913  1.00  0.00     0.163 HD
ENDROOT
BRANCH   7  16
HETATM   16  N2  UNL     1      25.130   2.891  49.620  1.00  0.00    -0.339 N 
HETATM   17  H11 UNL     1      25.378   2.076  48.989  1.00  0.00     0.167 HD
BRANCH  16  18
HETATM   18  C10 UNL     1      25.664   4.150  49.217  1.00  0.00     0.035 A 
HETATM   19  C11 UNL     1      24.850   5.259  49.061  1.00  0.00     0.029 A 
HETATM   20  C12 UNL     1      25.348   6.488  48.672  1.00  0.00     0.004 A 
HETATM   21  C13 UNL     1      26.697   6.648  48.422  1.00  0.00     0.019 A 
HETATM   22  C14 UNL     1      27.538   5.565  48.567  1.00  0.00     0.013 A 
HETATM   23 BR1  UNL     1      29.434   5.688  48.240  1.00  0.00    -0.051 Br
HETATM   24  C15 UNL     1      27.000   4.370  48.954  1.00  0.00     0.048 A 
ENDBRANCH  16  18
ENDBRANCH   7  16
BRANCH   1  25
HETATM   25  C3  UNL     1      22.683  -0.061  52.556  1.00  0.00    -0.017 C 
HETATM   26  C2  UNL     1      22.658  -0.876  53.600  1.00  0.00    -0.034 C 
HETATM   27  C1  UNL     1      21.673  -1.084  54.672  1.00  0.00     0.036 C 
ENDBRANCH   1  25
TORSDOF 3
ENDMDL
MODEL 4
REMARK VINA RESULT:      -7.7      4.006      7.103
REMARK  3 active torsions:
REMARK  status: ('A' for Active; 'I' for Inactive)
REMARK    1  A    between atoms: C3_3  and  C4_4 
REMARK    2  A    between atoms: C9_10  and  N2_11 
REMARK    3  A    between atoms: N2_11  and  C10_12 
ROOT
HETATM    1  C4  UNL     1      26.521   2.055  51.900  1.00  0.00     0.093 C 
HETATM    2  C5  UNL     1      27.490   0.942  52.104  1.00  0.00    -0.006 C 
HETATM    3  C6  UNL     1      26.826   0.348  53.084  1.00  0.00    -0.042 C 
HETATM    4  C7  UNL     1      25.933  -0.901  53.113  1.00  0.00     0.156 C 
HETATM    5  N1  UNL     1      24.589  -0.231  53.134  1.00  0.00    -0.382 N 
HETATM    6  C8  UNL     1      24.382   1.210  52.952  1.00  0.00     0.109 A 
HETATM    7  C9  UNL     1      23.060   1.474  52.821  1.00  0.00     0.156 A 
HETATM    8  N3  UNL     1      22.655   2.798  52.623  1.00  0.00    -0.224 NA
HETATM    9  C16 UNL     1      23.448   3.801  52.555  1.00  0.00     0.207 A 
HETATM   10  N4  UNL     1      24.835   3.535  52.690  1.00  0.00    -0.347 N 
HETATM   11  C17 UNL     1      25.481   2.237  52.924  1.00  0.00     0.192 A 
HETATM   12  O1  UNL     1      26.052   2.266  54.194  1.00  0.00    -0.350 OA
HETATM   13  C18 UNL     1      26.900   1.153  54.388  1.00  0.00     0.207 C 
HETATM   14  H10 UNL     1      23.768  -0.856  53.291  1.00  0.00     0.160 HD
HETATM   15  H17 UNL     1      25.574   4.297  52.629  1.00  0.00     0.163 HD
ENDROOT
BRANCH   7  16
HETATM   16  N2  UNL     1      22.138   0.409  52.874  1.00  0.00    -0.339 N 
HETATM   17  H11 UNL     1      22.178  -0.444  53.503  1.00  0.00     0.167 HD
BRANCH  16  18
HETATM   18  C10 UNL     1      21.017   0.459  51.996  1.00  0.00     0.035 A 
HETATM   19  C11 UNL     1      21.146   0.897  50.689  1.00  0.00     0.029 A 
HETATM   20  C12 UNL     1      20.071   0.952  49.822  1.00  0.00     0.004 A 
HETATM   21  C13 UNL     1      18.813   0.565  50.242  1.00  0.00     0.019 A 
HETATM   22  C14 UNL     1      18.647   0.123  51.537  1.00  0.00     0.013 A 
HETATM   23 BR1  UNL     1      16.932  -0.437  52.217  1.00  0.00    -0.051 Br
HETATM   24  C15 UNL     1      19.739   0.086  52.358  1.00  0.00     0.048 A 
ENDBRANCH  16  18
ENDBRANCH   7  16
BRANCH   1  25
HETATM   25  C3  UNL     1      26.004   2.071  50.502  1.00  0.00    -0.017 C 
HETATM   26  C2  UNL     1      26.208   3.035  49.617  1.00  0.00    -0.034 C 
HETATM   27  C1  UNL     1      26.944   4.306  49.689  1.00  0.00     0.036 C 
ENDBRANCH   1  25
TORSDOF 3
ENDMDL
MODEL 5
REMARK VINA RESULT:      -7.7      3.248      6.665
REMARK  3 active torsions:
REMARK  status: ('A' for Active; 'I' for Inactive)
REMARK    1  A    between atoms: C3_3  and  C4_4 
REMARK    2  A    between atoms: C9_10  and  N2_11 
REMARK    3  A    between atoms: N2_11  and  C10_12 
ROOT
HETATM    1  C4  UNL     1      23.901   4.254  49.239  1.00  0.00     0.093 C 
HETATM    2  C5  UNL     1      24.133   5.589  49.859  1.00  0.00    -0.006 C 
HETATM    3  C6  UNL     1      22.921   5.723  50.374  1.00  0.00    -0.042 C 
HETATM    4  C7  UNL     1      22.385   5.552  51.803  1.00  0.00     0.156 C 
HETATM    5  N1  UNL     1      21.748   4.198  51.656  1.00  0.00    -0.382 N 
HETATM    6  C8  UNL     1      21.890   3.343  50.473  1.00  0.00     0.109 A 
HETATM    7  C9  UNL     1      21.373   2.117  50.724  1.00  0.00     0.156 A 
HETATM    8  N3  UNL     1      21.424   1.147  49.718  1.00  0.00    -0.224 NA
HETATM    9  C16 UNL     1      21.930   1.327  48.556  1.00  0.00     0.207 A 
HETATM   10  N4  UNL     1      22.476   2.608  48.283  1.00  0.00    -0.347 N 
HETATM   11  C17 UNL     1      22.512   3.775  49.173  1.00  0.00     0.192 A 
HETATM   12  O1  UNL     1      21.688   4.756  48.626  1.00  0.00    -0.350 OA
HETATM   13  C18 UNL     1      21.869   5.990  49.289  1.00  0.00     0.207 C 
HETATM   14  H10 UNL     1      21.173   3.873  52.464  1.00  0.00     0.160 HD
HETATM   15  H17 UNL     1      22.935   2.850  47.355  1.00  0.00     0.163 HD
ENDROOT
BRANCH   7  16
HETATM   16  N2  UNL     1      20.813   1.854  51.990  1.00  0.00    -0.339 N 
HETATM   17  H11 UNL     1      19.926   2.268  52.399  1.00  0.00     0.167 HD
BRANCH  16  18
HETATM   18  C10 UNL     1      21.493   0.930  52.837  1.00  0.00     0.035 A 
HETATM   19  C11 UNL     1      20.821   0.242  53.833  1.00  0.00     0.029 A 
HETATM   20  C12 UNL     1      21.461  -0.658  54.664  1.00  0.00     0.004 A 
HETATM   21  C13 UNL     1      22.814  -0.902  54.522  1.00  0.00     0.019 A 
HETATM   22  C14 UNL     1      23.514  -0.233  53.540  1.00  0.00     0.013 A 
HETATM   23 BR1  UNL     1      25.403  -0.504  53.265  1.00  0.00    -0.051 Br
HETATM   24  C15 UNL     1      22.840   0.647  52.743  1.00  0.00     0.048 A 
ENDBRANCH  16  18
ENDBRANCH   7  16
BRANCH   1  25
HETATM   25  C3  UNL     1      24.865   3.243  49.760  1.00  0.00    -0.017 C 
HETATM   26  C2  UNL     1      26.184   3.308  49.646  1.00  0.00    -0.034 C 
HETATM   27  C1  UNL     1      27.078   4.298  49.029  1.00  0.00     0.036 C 
ENDBRANCH   1  25
TORSDOF 3
ENDMDL
MODEL 6
REMARK VINA RESULT:      -7.6      2.200      3.606
REMARK  3 active torsions:
REMARK  status: ('A' for Active; 'I' for Inactive)
REMARK    1  A    between atoms: C3_3  and  C4_4 
REMARK    2  A    between atoms: C9_10  and  N2_11 
REMARK    3  A    between atoms: N2_11  and  C10_12 
ROOT
HETATM    1  C4  UNL     1      23.486   0.529  52.825  1.00  0.00     0.093 C 
HETATM    2  C5  UNL     1      24.546   0.151  53.801  1.00  0.00    -0.006 C 
HETATM    3  C6  UNL     1      25.419   1.076  53.433  1.00  0.00    -0.042 C 
HETATM    4  C7  UNL     1      25.822   2.419  54.060  1.00  0.00     0.156 C 
HETATM    5  N1  UNL     1      25.054   3.342  53.157  1.00  0.00    -0.382 N 
HETATM    6  C8  UNL     1      24.080   2.894  52.155  1.00  0.00     0.109 A 
HETATM    7  C9  UNL     1      23.415   3.960  51.649  1.00  0.00     0.156 A 
HETATM    8  N3  UNL     1      22.428   3.740  50.683  1.00  0.00    -0.224 NA
HETATM    9  C16 UNL     1      22.094   2.590  50.230  1.00  0.00     0.207 A 
HETATM   10  N4  UNL     1      22.783   1.467  50.756  1.00  0.00    -0.347 N 
HETATM   11  C17 UNL     1      23.861   1.462  51.752  1.00  0.00     0.192 A 
HETATM   12  O1  UNL     1      25.025   1.029  51.120  1.00  0.00    -0.350 OA
HETATM   13  C18 UNL     1      26.039   0.759  52.066  1.00  0.00     0.207 C 
HETATM   14  H10 UNL     1      25.248   4.360  53.271  1.00  0.00     0.160 HD
HETATM   15  H17 UNL     1      22.565   0.470  50.458  1.00  0.00     0.163 HD
ENDROOT
BRANCH   7  16
HETATM   16  N2  UNL     1      23.729   5.251  52.118  1.00  0.00    -0.339 N 
HETATM   17  H11 UNL     1      23.663   5.606  53.116  1.00  0.00     0.167 HD
BRANCH  16  18
HETATM   18  C10 UNL     1      24.192   6.208  51.168  1.00  0.00     0.035 A 
HETATM   19  C11 UNL     1      23.543   7.419  50.995  1.00  0.00     0.029 A 
HETATM   20  C12 UNL     1      23.976   8.360  50.079  1.00  0.00     0.004 A 
HETATM   21  C13 UNL     1      25.088   8.115  49.296  1.00  0.00     0.019 A 
HETATM   22  C14 UNL     1      25.758   6.919  49.442  1.00  0.00     0.013 A 
HETATM   23 BR1  UNL     1      27.317   6.484  48.395  1.00  0.00    -0.051 Br
HETATM   24  C15 UNL     1      25.294   6.019  50.359  1.00  0.00     0.048 A 
ENDBRANCH  16  18
ENDBRANCH   7  16
BRANCH   1  25
HETATM   25  C3  UNL     1      22.216   0.885  53.519  1.00  0.00    -0.017 C 
HETATM   26  C2  UNL     1      21.406   0.031  54.128  1.00  0.00    -0.034 C 
HETATM   27  C1  UNL     1      21.465  -1.426  54.319  1.00  0.00     0.036 C 
ENDBRANCH   1  25
TORSDOF 3
ENDMDL
MODEL 7
REMARK VINA RESULT:      -7.3      3.420      6.311
REMARK  3 active torsions:
REMARK  status: ('A' for Active; 'I' for Inactive)
REMARK    1  A    between atoms: C3_3  and  C4_4 
REMARK    2  A    between atoms: C9_10  and  N2_11 
REMARK    3  A    between atoms: N2_11  and  C10_12 
ROOT
HETATM    1  C4  UNL     1      22.740   5.791  48.662  1.00  0.00     0.093 C 
HETATM    2  C5  UNL     1      23.880   6.530  48.052  1.00  0.00    -0.006 C 
HETATM    3  C6  UNL     1      24.398   6.966  49.190  1.00  0.00    -0.042 C 
HETATM    4  C7  UNL     1      25.608   6.502  50.014  1.00  0.00     0.156 C 
HETATM    5  N1  UNL     1      24.884   5.739  51.088  1.00  0.00    -0.382 N 
HETATM    6  C8  UNL     1      23.447   5.446  51.066  1.00  0.00     0.109 A 
HETATM    7  C9  UNL     1      23.137   4.578  52.059  1.00  0.00     0.156 A 
HETATM    8  N3  UNL     1      21.809   4.162  52.198  1.00  0.00    -0.224 NA
HETATM    9  C16 UNL     1      20.843   4.542  51.448  1.00  0.00     0.207 A 
HETATM   10  N4  UNL     1      21.158   5.450  50.404  1.00  0.00    -0.347 N 
HETATM   11  C17 UNL     1      22.467   6.033  50.087  1.00  0.00     0.192 A 
HETATM   12  O1  UNL     1      22.399   7.401  50.341  1.00  0.00    -0.350 OA
HETATM   13  C18 UNL     1      23.534   8.064  49.823  1.00  0.00     0.207 C 
HETATM   14  H10 UNL     1      25.468   5.409  51.887  1.00  0.00     0.160 HD
HETATM   15  H17 UNL     1      20.429   5.809  49.718  1.00  0.00     0.163 HD
ENDROOT
BRANCH   7  16
HETATM   16  N2  UNL     1      24.160   4.114  52.909  1.00  0.00    -0.339 N 
HETATM   17  H11 UNL     1      24.713   4.678  53.618  1.00  0.00     0.167 HD
BRANCH  16  18
HETATM   18  C10 UNL     1      24.512   2.735  52.831  1.00  0.00     0.035 A 
HETATM   19  C11 UNL     1      25.790   2.339  52.470  1.00  0.00     0.029 A 
HETATM   20  C12 UNL     1      26.151   1.008  52.389  1.00  0.00     0.004 A 
HETATM   21  C13 UNL     1      25.233   0.015  52.671  1.00  0.00     0.019 A 
HETATM   22  C14 UNL     1      23.951   0.373  53.033  1.00  0.00     0.013 A 
HETATM   23 BR1  UNL     1      22.599  -0.938  53.444  1.00  0.00    -0.051 Br
HETATM   24  C15 UNL     1      23.639   1.701  53.100  1.00  0.00     0.048 A 
ENDBRANCH  16  18
ENDBRANCH   7  16
BRANCH   1  25
HETATM   25  C3  UNL     1      22.772   4.348  48.289  1.00  0.00    -0.017 C 
HETATM   26  C2  UNL     1      22.255   3.827  47.187  1.00  0.00    -0.034 C 
HETATM   27  C1  UNL     1      21.537   4.424  46.051  1.00  0.00     0.036 C 
ENDBRANCH   1  25
TORSDOF 3
ENDMDL
MODEL 8
REMARK VINA RESULT:      -7.2      5.207      8.087
REMARK  3 active torsions:
REMARK  status: ('A' for Active; 'I' for Inactive)
REMARK    1  A    between atoms: C3_3  and  C4_4 
REMARK    2  A    between atoms: C9_10  and  N2_11 
REMARK    3  A    between atoms: N2_11  and  C10_12 
ROOT
HETATM    1  C4  UNL     1      28.107   7.329  48.238  1.00  0.00     0.093 C 
HETATM    2  C5  UNL     1      26.985   7.581  47.290  1.00  0.00    -0.006 C 
HETATM    3  C6  UNL     1      27.617   8.481  46.552  1.00  0.00    -0.042 C 
HETATM    4  C7  UNL     1      28.288   8.394  45.173  1.00  0.00     0.156 C 
HETATM    5  N1  UNL     1      29.723   8.319  45.613  1.00  0.00    -0.382 N 
HETATM    6  C8  UNL     1      30.152   8.165  47.007  1.00  0.00     0.109 A 
HETATM    7  C9  UNL     1      31.484   7.927  47.057  1.00  0.00     0.156 A 
HETATM    8  N3  UNL     1      32.087   7.737  48.304  1.00  0.00    -0.224 NA
HETATM    9  C16 UNL     1      31.470   7.769  49.426  1.00  0.00     0.207 A 
HETATM   10  N4  UNL     1      30.073   8.016  49.384  1.00  0.00    -0.347 N 
HETATM   11  C17 UNL     1      29.242   8.264  48.201  1.00  0.00     0.192 A 
HETATM   12  O1  UNL     1      28.787   9.579  48.265  1.00  0.00    -0.350 OA
HETATM   13  C18 UNL     1      27.783   9.811  47.298  1.00  0.00     0.207 C 
HETATM   14  H10 UNL     1      30.438   8.384  44.856  1.00  0.00     0.160 HD
HETATM   15  H17 UNL     1      29.470   8.043  50.259  1.00  0.00     0.163 HD
ENDROOT
BRANCH   7  16
HETATM   16  N2  UNL     1      32.217   7.867  45.854  1.00  0.00    -0.339 N 
HETATM   17  H11 UNL     1      32.372   8.651  45.157  1.00  0.00     0.167 HD
BRANCH  16  18
HETATM   18  C10 UNL     1      32.830   6.627  45.513  1.00  0.00     0.035 A 
HETATM   19  C11 UNL     1      33.843   6.562  44.571  1.00  0.00     0.029 A 
HETATM   20  C12 UNL     1      34.451   5.370  44.226  1.00  0.00     0.004 A 
HETATM   21  C13 UNL     1      34.059   4.187  44.821  1.00  0.00     0.019 A 
HETATM   22  C14 UNL     1      33.052   4.213  45.763  1.00  0.00     0.013 A 
HETATM   23 BR1  UNL     1      32.434   2.616  46.648  1.00  0.00    -0.051 Br
HETATM   24  C15 UNL     1      32.480   5.415  46.072  1.00  0.00     0.048 A 
ENDBRANCH  16  18
ENDBRANCH   7  16
BRANCH   1  25
HETATM   25  C3  UNL     1      28.505   5.893  48.232  1.00  0.00    -0.017 C 
HETATM   26  C2  UNL     1      27.755   4.884  48.651  1.00  0.00    -0.034 C 
HETATM   27  C1  UNL     1      26.399   4.826  49.214  1.00  0.00     0.036 C 
ENDBRANCH   1  25
TORSDOF 3
ENDMDL
MODEL 9
REMARK VINA RESULT:      -7.2      3.309      7.214
REMARK  3 active torsions:
REMARK  status: ('A' for Active; 'I' for Inactive)
REMARK    1  A    between atoms: C3_3  and  C4_4 
REMARK    2  A    between atoms: C9_10  and  N2_11 
REMARK    3  A    between atoms: N2_11  and  C10_12 
ROOT
HETATM    1  C4  UNL     1      25.626   8.160  47.860  1.00  0.00     0.093 C 
HETATM    2  C5  UNL     1      26.898   8.120  47.085  1.00  0.00    -0.006 C 
HETATM    3  C6  UNL     1      27.631   7.565  48.037  1.00  0.00    -0.042 C 
HETATM    4  C7  UNL     1      28.132   6.128  48.245  1.00  0.00     0.156 C 
HETATM    5  N1  UNL     1      27.144   5.682  49.287  1.00  0.00    -0.382 N 
HETATM    6  C8  UNL     1      25.974   6.462  49.702  1.00  0.00     0.109 A 
HETATM    7  C9  UNL     1      25.177   5.712  50.499  1.00  0.00     0.156 A 
HETATM    8  N3  UNL     1      23.995   6.275  50.991  1.00  0.00    -0.224 NA
HETATM    9  C16 UNL     1      23.597   7.467  50.745  1.00  0.00     0.207 A 
HETATM   10  N4  UNL     1      24.425   8.261  49.909  1.00  0.00    -0.347 N 
HETATM   11  C17 UNL     1      25.708   7.888  49.303  1.00  0.00     0.192 A 
HETATM   12  O1  UNL     1      26.701   8.672  49.886  1.00  0.00    -0.350 OA
HETATM   13  C18 UNL     1      27.918   8.549  49.179  1.00  0.00     0.207 C 
HETATM   14  H10 UNL     1      27.330   4.754  49.726  1.00  0.00     0.160 HD
HETATM   15  H17 UNL     1      24.172   9.256  49.631  1.00  0.00     0.163 HD
ENDROOT
BRANCH   7  16
HETATM   16  N2  UNL     1      25.555   4.387  50.796  1.00  0.00    -0.339 N 
HETATM   17  H11 UNL     1      26.540   3.998  50.857  1.00  0.00     0.167 HD
BRANCH  16  18
HETATM   18  C10 UNL     1      24.518   3.442  51.050  1.00  0.00     0.035 A 
HETATM   19  C11 UNL     1      24.252   2.996  52.334  1.00  0.00     0.029 A 
HETATM   20  C12 UNL     1      23.251   2.081  52.601  1.00  0.00     0.004 A 
HETATM   21  C13 UNL     1      22.474   1.576  51.577  1.00  0.00     0.019 A 
HETATM   22  C14 UNL     1      22.712   1.997  50.286  1.00  0.00     0.013 A 
HETATM   23 BR1  UNL     1      21.682   1.349  48.790  1.00  0.00    -0.051 Br
HETATM   24  C15 UNL     1      23.711   2.903  50.070  1.00  0.00     0.048 A 
ENDBRANCH  16  18
ENDBRANCH   7  16
BRANCH   1  25
HETATM   25  C3  UNL     1      24.547   7.404  47.162  1.00  0.00    -0.017 C 
HETATM   26  C2  UNL     1      23.725   7.901  46.250  1.00  0.00    -0.034 C 
HETATM   27  C1  UNL     1      23.596   9.241  45.658  1.00  0.00     0.036 C 
ENDBRANCH   1  25
TORSDOF 3
ENDMDL
