MODEL 1
REMARK VINA RESULT:      -8.1      0.000      0.000
REMARK  6 active torsions:
REMARK  status: ('A' for Active; 'I' for Inactive)
REMARK    1  A    between atoms: C6_10  and  N3_11 
REMARK    2  A    between atoms: N3_11  and  C7_12 
REMARK    3  A    between atoms: N4_22  and  C16_23 
REMARK    4  A    between atoms: C16_23  and  C17_24 
REMARK    5  A    between atoms: C17_24  and  C18_25 
REMARK    6  A    between atoms: C18_25  and  N5_26 
ROOT
HETATM    1  O1  UNL     1      22.245   3.093  52.091  1.00  0.00    -0.271 OA
HETATM    2  C1  UNL     1      21.727   2.098  51.576  1.00  0.00     0.247 C 
HETATM    3  C2  UNL     1      20.762   1.094  52.065  1.00  0.00     0.277 C 
HETATM    4  O2  UNL     1      20.989   1.095  53.500  1.00  0.00    -0.351 OA
HETATM    5  C3  UNL     1      20.703  -0.004  54.257  1.00  0.00     0.169 C 
HETATM    6  C4  UNL     1      21.244  -1.150  53.975  1.00  0.00     0.110 C 
HETATM    7  N1  UNL     1      22.266  -1.234  53.231  1.00  0.00    -0.238 NA
HETATM    8  C5  UNL     1      23.217  -0.188  53.242  1.00  0.00     0.236 C 
HETATM    9  N2  UNL     1      24.019   0.721  53.490  1.00  0.00    -0.225 NA
HETATM   10  C6  UNL     1      24.814   1.510  52.651  1.00  0.00     0.129 C 
HETATM   11  C13 UNL     1      25.128   2.308  51.617  1.00  0.00     0.052 C 
HETATM   12  C14 UNL     1      24.523   2.934  50.474  1.00  0.00     0.021 C 
HETATM   13  C15 UNL     1      23.446   3.113  49.762  1.00  0.00     0.094 C 
HETATM   14  N4  UNL     1      22.446   2.342  50.396  1.00  0.00    -0.326 N 
ENDROOT
BRANCH  10  15
HETATM   15  N3  UNL     1      25.889   1.187  53.519  1.00  0.00    -0.341 N 
HETATM   16  H5  UNL     1      25.757   1.605  54.447  1.00  0.00     0.167 HD
BRANCH  15  17
HETATM   17  C7  UNL     1      27.128   0.500  53.592  1.00  0.00     0.033 A 
HETATM   18  C8  UNL     1      27.221  -0.803  53.122  1.00  0.00     0.032 A 
HETATM   19  C9  UNL     1      28.457  -1.442  53.216  1.00  0.00     0.044 A 
HETATM   20  C10 UNL     1      29.490  -0.749  53.761  1.00  0.00     0.116 A 
HETATM   21  F1  UNL     1      30.672  -1.400  53.836  1.00  0.00    -0.206 F 
HETATM   22  C11 UNL     1      29.454   0.531  54.238  1.00  0.00     0.044 A 
HETATM   23  C12 UNL     1      28.222   1.175  54.146  1.00  0.00     0.032 A 
ENDBRANCH  15  17
ENDBRANCH  10  15
BRANCH  14  24
HETATM   24  C16 UNL     1      21.938   1.309  49.578  1.00  0.00     0.133 C 
BRANCH  24  25
HETATM   25  C17 UNL     1      21.647   1.637  48.142  1.00  0.00     0.040 C 
BRANCH  25  26
HETATM   26  C18 UNL     1      20.456   2.518  47.915  1.00  0.00     0.118 C 
BRANCH  26  27
HETATM   27  N5  UNL     1      20.775   3.743  47.230  1.00  0.00    -0.408 N 
HETATM   28  C19 UNL     1      21.794   3.657  46.244  1.00  0.00     0.143 C 
HETATM   29  C20 UNL     1      21.902   4.877  45.376  1.00  0.00     0.187 C 
HETATM   30  O3  UNL     1      21.497   6.032  46.018  1.00  0.00    -0.388 OA
HETATM   31  C21 UNL     1      21.612   5.986  47.392  1.00  0.00     0.187 C 
HETATM   32  C22 UNL     1      20.696   4.937  47.985  1.00  0.00     0.143 C 
ENDBRANCH  26  27
ENDBRANCH  25  26
ENDBRANCH  24  25
ENDBRANCH  14  24
TORSDOF 6
ENDMDL
MODEL 2
REMARK VINA RESULT:      -7.9      1.707      2.347
REMARK  6 active torsions:
REMARK  status: ('A' for Active; 'I' for Inactive)
REMARK    1  A    between atoms: C6_10  and  N3_11 
REMARK    2  A    between atoms: N3_11  and  C7_12 
REMARK    3  A    between atoms: N4_22  and  C16_23 
REMARK    4  A    between atoms: C16_23  and  C17_24 
REMARK    5  A    between atoms: C17_24  and  C18_25 
REMARK    6  A    between atoms: C18_25  and  N5_26 
ROOT
HETATM    1  O1  UNL     1      23.424   4.115  51.838  1.00  0.00    -0.271 OA
HETATM    2  C1  UNL     1      22.638   3.590  51.044  1.00  0.00     0.247 C 
HETATM    3  C2  UNL     1      21.283   3.022  51.188  1.00  0.00     0.277 C 
HETATM    4  O2  UNL     1      21.255   2.596  52.577  1.00  0.00    -0.351 OA
HETATM    5  C3  UNL     1      20.429   1.589  52.985  1.00  0.00     0.169 C 
HETATM    6  C4  UNL     1      20.497   0.420  52.425  1.00  0.00     0.110 C 
HETATM    7  N1  UNL     1      21.503   0.074  51.738  1.00  0.00    -0.238 NA
HETATM    8  C5  UNL     1      22.781   0.571  52.084  1.00  0.00     0.236 C 
HETATM    9  N2  UNL     1      23.831   0.958  52.612  1.00  0.00    -0.225 NA
HETATM   10  C6  UNL     1      25.002   1.492  52.063  1.00  0.00     0.129 C 
HETATM   11  C13 UNL     1      25.776   2.288  51.306  1.00  0.00     0.052 C 
HETATM   12  C14 UNL     1      25.671   3.357  50.353  1.00  0.00     0.021 C 
HETATM   13  C15 UNL     1      24.891   4.143  49.666  1.00  0.00     0.094 C 
HETATM   14  N4  UNL     1      23.576   3.761  50.013  1.00  0.00    -0.326 N 
ENDROOT
BRANCH  10  15
HETATM   15  N3  UNL     1      25.698   0.545  52.860  1.00  0.00    -0.341 N 
HETATM   16  H5  UNL     1      25.050   0.000  53.440  1.00  0.00     0.167 HD
BRANCH  15  17
HETATM   17  C7  UNL     1      26.990   0.060  53.186  1.00  0.00     0.033 A 
HETATM   18  C8  UNL     1      27.871   0.869  53.891  1.00  0.00     0.032 A 
HETATM   19  C9  UNL     1      29.132   0.354  54.188  1.00  0.00     0.044 A 
HETATM   20  C10 UNL     1      29.418  -0.905  53.770  1.00  0.00     0.116 A 
HETATM   21  F1  UNL     1      30.649  -1.371  54.075  1.00  0.00    -0.206 F 
HETATM   22  C11 UNL     1      28.591  -1.743  53.074  1.00  0.00     0.044 A 
HETATM   23  C12 UNL     1      27.329  -1.233  52.775  1.00  0.00     0.032 A 
ENDBRANCH  15  17
ENDBRANCH  10  15
BRANCH  14  24
HETATM   24  C16 UNL     1      22.833   3.268  48.918  1.00  0.00     0.133 C 
BRANCH  24  25
HETATM   25  C17 UNL     1      22.631   4.183  47.745  1.00  0.00     0.040 C 
BRANCH  25  26
HETATM   26  C18 UNL     1      21.388   5.019  47.790  1.00  0.00     0.118 C 
BRANCH  26  27
HETATM   27  N5  UNL     1      21.583   6.298  48.421  1.00  0.00    -0.408 N 
HETATM   28  C19 UNL     1      22.832   6.929  48.173  1.00  0.00     0.143 C 
HETATM   29  C20 UNL     1      22.885   8.362  48.618  1.00  0.00     0.187 C 
HETATM   30  O3  UNL     1      22.046   8.627  49.682  1.00  0.00    -0.388 OA
HETATM   31  C21 UNL     1      21.768   7.529  50.472  1.00  0.00     0.187 C 
HETATM   32  C22 UNL     1      21.004   6.476  49.699  1.00  0.00     0.143 C 
ENDBRANCH  26  27
ENDBRANCH  25  26
ENDBRANCH  24  25
ENDBRANCH  14  24
TORSDOF 6
ENDMDL
MODEL 3
REMARK VINA RESULT:      -7.9      3.357      5.215
REMARK  6 active torsions:
REMARK  status: ('A' for Active; 'I' for Inactive)
REMARK    1  A    between atoms: C6_10  and  N3_11 
REMARK    2  A    between atoms: N3_11  and  C7_12 
REMARK    3  A    between atoms: N4_22  and  C16_23 
REMARK    4  A    between atoms: C16_23  and  C17_24 
REMARK    5  A    between atoms: C17_24  and  C18_25 
REMARK    6  A    between atoms: C18_25  and  N5_26 
ROOT
HETATM    1  O1  UNL     1      22.271   1.412  50.144  1.00  0.00    -0.271 OA
HETATM    2  C1  UNL     1      21.648   2.401  50.539  1.00  0.00     0.247 C 
HETATM    3  C2  UNL     1      21.818   3.852  50.331  1.00  0.00     0.277 C 
HETATM    4  O2  UNL     1      23.244   3.981  50.088  1.00  0.00    -0.351 OA
HETATM    5  C3  UNL     1      23.899   5.148  50.356  1.00  0.00     0.169 C 
HETATM    6  C4  UNL     1      23.859   5.662  51.547  1.00  0.00     0.110 C 
HETATM    7  N1  UNL     1      23.506   4.975  52.552  1.00  0.00    -0.238 NA
HETATM    8  C5  UNL     1      23.800   3.592  52.581  1.00  0.00     0.236 C 
HETATM    9  N2  UNL     1      24.271   2.450  52.521  1.00  0.00    -0.225 NA
HETATM   10  C6  UNL     1      23.721   1.203  52.840  1.00  0.00     0.129 C 
HETATM   11  C13 UNL     1      22.825   0.202  52.861  1.00  0.00     0.052 C 
HETATM   12  C14 UNL     1      21.524  -0.133  52.354  1.00  0.00     0.021 C 
HETATM   13  C15 UNL     1      20.484   0.242  51.664  1.00  0.00     0.094 C 
HETATM   14  N4  UNL     1      20.771   1.560  51.242  1.00  0.00    -0.326 N 
ENDROOT
BRANCH  10  15
HETATM   15  N3  UNL     1      24.912   0.969  53.577  1.00  0.00    -0.341 N 
HETATM   16  H5  UNL     1      24.895   1.462  54.477  1.00  0.00     0.167 HD
BRANCH  15  17
HETATM   17  C7  UNL     1      26.166   0.309  53.535  1.00  0.00     0.033 A 
HETATM   18  C8  UNL     1      26.325  -0.818  52.739  1.00  0.00     0.032 A 
HETATM   19  C9  UNL     1      27.573  -1.438  52.730  1.00  0.00     0.044 A 
HETATM   20  C10 UNL     1      28.555  -0.901  53.500  1.00  0.00     0.116 A 
HETATM   21  F1  UNL     1      29.751  -1.528  53.467  1.00  0.00    -0.206 F 
HETATM   22  C11 UNL     1      28.453   0.203  54.300  1.00  0.00     0.044 A 
HETATM   23  C12 UNL     1      27.208   0.827  54.313  1.00  0.00     0.032 A 
ENDBRANCH  15  17
ENDBRANCH  10  15
BRANCH  14  24
HETATM   24  C16 UNL     1      19.868   2.516  51.755  1.00  0.00     0.133 C 
BRANCH  24  25
HETATM   25  C17 UNL     1      18.400   2.240  51.604  1.00  0.00     0.040 C 
BRANCH  25  26
HETATM   26  C18 UNL     1      17.528   3.453  51.484  1.00  0.00     0.118 C 
BRANCH  26  27
HETATM   27  N5  UNL     1      16.150   3.200  51.815  1.00  0.00    -0.408 N 
HETATM   28  C19 UNL     1      15.561   4.094  52.750  1.00  0.00     0.143 C 
HETATM   29  C20 UNL     1      14.070   3.963  52.857  1.00  0.00     0.187 C 
HETATM   30  O3  UNL     1      13.619   2.690  52.565  1.00  0.00    -0.388 OA
HETATM   31  C21 UNL     1      14.551   1.696  52.782  1.00  0.00     0.187 C 
HETATM   32  C22 UNL     1      15.740   1.847  51.859  1.00  0.00     0.143 C 
ENDBRANCH  26  27
ENDBRANCH  25  26
ENDBRANCH  24  25
ENDBRANCH  14  24
TORSDOF 6
ENDMDL
MODEL 4
REMARK VINA RESULT:      -7.9      1.416      2.086
REMARK  6 active torsions:
REMARK  status: ('A' for Active; 'I' for Inactive)
REMARK    1  A    between atoms: C6_10  and  N3_11 
REMARK    2  A    between atoms: N3_11  and  C7_12 
REMARK    3  A    between atoms: N4_22  and  C16_23 
REMARK    4  A    between atoms: C16_23  and  C17_24 
REMARK    5  A    between atoms: C17_24  and  C18_25 
REMARK    6  A    between atoms: C18_25  and  N5_26 
ROOT
HETATM    1  O1  UNL     1      22.421   3.325  52.125  1.00  0.00    -0.271 OA
HETATM    2  C1  UNL     1      21.899   2.367  51.548  1.00  0.00     0.247 C 
HETATM    3  C2  UNL     1      20.907   1.356  51.962  1.00  0.00     0.277 C 
HETATM    4  O2  UNL     1      21.100   1.280  53.400  1.00  0.00    -0.351 OA
HETATM    5  C3  UNL     1      20.778   0.148  54.093  1.00  0.00     0.169 C 
HETATM    6  C4  UNL     1      21.307  -0.991  53.765  1.00  0.00     0.110 C 
HETATM    7  N1  UNL     1      22.345  -1.054  53.041  1.00  0.00    -0.238 NA
HETATM    8  C5  UNL     1      23.312  -0.027  53.128  1.00  0.00     0.236 C 
HETATM    9  N2  UNL     1      24.123   0.855  53.441  1.00  0.00    -0.225 NA
HETATM   10  C6  UNL     1      24.950   1.671  52.662  1.00  0.00     0.129 C 
HETATM   11  C13 UNL     1      25.301   2.515  51.677  1.00  0.00     0.052 C 
HETATM   12  C14 UNL     1      24.734   3.209  50.555  1.00  0.00     0.021 C 
HETATM   13  C15 UNL     1      23.678   3.443  49.828  1.00  0.00     0.094 C 
HETATM   14  N4  UNL     1      22.650   2.659  50.399  1.00  0.00    -0.326 N 
ENDROOT
BRANCH  10  15
HETATM   15  N3  UNL     1      25.999   1.285  53.536  1.00  0.00    -0.341 N 
HETATM   16  H5  UNL     1      25.869   1.686  54.473  1.00  0.00     0.167 HD
BRANCH  15  17
HETATM   17  C7  UNL     1      27.209   0.550  53.610  1.00  0.00     0.033 A 
HETATM   18  C8  UNL     1      28.328   1.123  54.200  1.00  0.00     0.032 A 
HETATM   19  C9  UNL     1      29.498   0.366  54.248  1.00  0.00     0.044 A 
HETATM   20  C10 UNL     1      29.469  -0.883  53.716  1.00  0.00     0.116 A 
HETATM   21  F1  UNL     1      30.620  -1.588  53.780  1.00  0.00    -0.206 F 
HETATM   22  C11 UNL     1      28.398  -1.495  53.125  1.00  0.00     0.044 A 
HETATM   23  C12 UNL     1      27.227  -0.743  53.074  1.00  0.00     0.032 A 
ENDBRANCH  15  17
ENDBRANCH  10  15
BRANCH  14  24
HETATM   24  C16 UNL     1      22.145   1.677  49.517  1.00  0.00     0.133 C 
BRANCH  24  25
HETATM   25  C17 UNL     1      21.974   2.059  48.076  1.00  0.00     0.040 C 
BRANCH  25  26
HETATM   26  C18 UNL     1      20.581   2.443  47.676  1.00  0.00     0.118 C 
BRANCH  26  27
HETATM   27  N5  UNL     1      19.872   3.165  48.701  1.00  0.00    -0.408 N 
HETATM   28  C19 UNL     1      18.593   2.654  49.048  1.00  0.00     0.143 C 
HETATM   29  C20 UNL     1      18.015   3.263  50.292  1.00  0.00     0.187 C 
HETATM   30  O3  UNL     1      18.456   4.553  50.515  1.00  0.00    -0.388 OA
HETATM   31  C21 UNL     1      18.843   5.225  49.373  1.00  0.00     0.187 C 
HETATM   32  C22 UNL     1      20.046   4.568  48.732  1.00  0.00     0.143 C 
ENDBRANCH  26  27
ENDBRANCH  25  26
ENDBRANCH  24  25
ENDBRANCH  14  24
TORSDOF 6
ENDMDL
MODEL 5
REMARK VINA RESULT:      -7.9      4.044      6.588
REMARK  6 active torsions:
REMARK  status: ('A' for Active; 'I' for Inactive)
REMARK    1  A    between atoms: C6_10  and  N3_11 
REMARK    2  A    between atoms: N3_11  and  C7_12 
REMARK    3  A    between atoms: N4_22  and  C16_23 
REMARK    4  A    between atoms: C16_23  and  C17_24 
REMARK    5  A    between atoms: C17_24  and  C18_25 
REMARK    6  A    between atoms: C18_25  and  N5_26 
ROOT
HETATM    1  O1  UNL     1      23.787   3.940  52.163  1.00  0.00    -0.271 OA
HETATM    2  C1  UNL     1      23.709   2.709  52.201  1.00  0.00     0.247 C 
HETATM    3  C2  UNL     1      24.296   1.685  53.088  1.00  0.00     0.277 C 
HETATM    4  O2  UNL     1      25.519   2.318  53.550  1.00  0.00    -0.351 OA
HETATM    5  C3  UNL     1      26.587   1.570  53.953  1.00  0.00     0.169 C 
HETATM    6  C4  UNL     1      27.113   0.696  53.149  1.00  0.00     0.110 C 
HETATM    7  N1  UNL     1      26.887   0.723  51.903  1.00  0.00    -0.238 NA
HETATM    8  C5  UNL     1      26.674   1.967  51.266  1.00  0.00     0.236 C 
HETATM    9  N2  UNL     1      26.674   3.130  50.843  1.00  0.00    -0.225 NA
HETATM   10  C6  UNL     1      25.859   3.774  49.905  1.00  0.00     0.129 C 
HETATM   11  C13 UNL     1      24.729   4.172  49.297  1.00  0.00     0.052 C 
HETATM   12  C14 UNL     1      23.303   4.040  49.409  1.00  0.00     0.021 C 
HETATM   13  C15 UNL     1      22.295   3.517  50.050  1.00  0.00     0.094 C 
HETATM   14  N4  UNL     1      22.871   2.734  51.076  1.00  0.00    -0.326 N 
ENDROOT
BRANCH  10  15
HETATM   15  N3  UNL     1      27.064   4.233  49.311  1.00  0.00    -0.341 N 
HETATM   16  H5  UNL     1      27.811   3.535  49.399  1.00  0.00     0.167 HD
BRANCH  15  17
HETATM   17  C7  UNL     1      27.656   5.331  48.636  1.00  0.00     0.033 A 
HETATM   18  C8  UNL     1      28.998   5.280  48.285  1.00  0.00     0.032 A 
HETATM   19  C9  UNL     1      29.540   6.382  47.625  1.00  0.00     0.044 A 
HETATM   20  C10 UNL     1      28.722   7.435  47.368  1.00  0.00     0.116 A 
HETATM   21  F1  UNL     1      29.281   8.485  46.729  1.00  0.00    -0.206 F 
HETATM   22  C11 UNL     1      27.397   7.537  47.691  1.00  0.00     0.044 A 
HETATM   23  C12 UNL     1      26.850   6.438  48.350  1.00  0.00     0.032 A 
ENDBRANCH  15  17
ENDBRANCH  10  15
BRANCH  14  24
HETATM   24  C16 UNL     1      22.571   1.359  50.958  1.00  0.00     0.133 C 
BRANCH  24  25
HETATM   25  C17 UNL     1      21.124   0.958  50.962  1.00  0.00     0.040 C 
BRANCH  25  26
HETATM   26  C18 UNL     1      20.612   0.419  52.263  1.00  0.00     0.118 C 
BRANCH  26  27
HETATM   27  N5  UNL     1      19.196   0.156  52.254  1.00  0.00    -0.408 N 
HETATM   28  C19 UNL     1      18.775  -1.004  52.958  1.00  0.00     0.143 C 
HETATM   29  C20 UNL     1      17.288  -1.088  53.152  1.00  0.00     0.187 C 
HETATM   30  O3  UNL     1      16.578  -0.447  52.155  1.00  0.00    -0.388 OA
HETATM   31  C21 UNL     1      17.248  -0.357  50.951  1.00  0.00     0.187 C 
HETATM   32  C22 UNL     1      18.490   0.499  51.078  1.00  0.00     0.143 C 
ENDBRANCH  26  27
ENDBRANCH  25  26
ENDBRANCH  24  25
ENDBRANCH  14  24
TORSDOF 6
ENDMDL
MODEL 6
REMARK VINA RESULT:      -7.8      4.890      8.273
REMARK  6 active torsions:
REMARK  status: ('A' for Active; 'I' for Inactive)
REMARK    1  A    between atoms: C6_10  and  N3_11 
REMARK    2  A    between atoms: N3_11  and  C7_12 
REMARK    3  A    between atoms: N4_22  and  C16_23 
REMARK    4  A    between atoms: C16_23  and  C17_24 
REMARK    5  A    between atoms: C17_24  and  C18_25 
REMARK    6  A    between atoms: C18_25  and  N5_26 
ROOT
HETATM    1  O1  UNL     1      23.922   3.475  49.052  1.00  0.00    -0.271 OA
HETATM    2  C1  UNL     1      23.583   3.821  50.187  1.00  0.00     0.247 C 
HETATM    3  C2  UNL     1      22.478   4.652  50.702  1.00  0.00     0.277 C 
HETATM    4  O2  UNL     1      22.194   5.543  49.591  1.00  0.00    -0.351 OA
HETATM    5  C3  UNL     1      21.629   6.768  49.800  1.00  0.00     0.169 C 
HETATM    6  C4  UNL     1      22.198   7.623  50.593  1.00  0.00     0.110 C 
HETATM    7  N1  UNL     1      23.411   7.501  50.937  1.00  0.00    -0.238 NA
HETATM    8  C5  UNL     1      24.332   6.925  50.031  1.00  0.00     0.236 C 
HETATM    9  N2  UNL     1      25.026   6.558  49.075  1.00  0.00    -0.225 NA
HETATM   10  C6  UNL     1      26.087   5.649  48.995  1.00  0.00     0.129 C 
HETATM   11  C13 UNL     1      26.765   4.503  49.173  1.00  0.00     0.052 C 
HETATM   12  C14 UNL     1      26.613   3.205  49.769  1.00  0.00     0.021 C 
HETATM   13  C15 UNL     1      25.856   2.391  50.449  1.00  0.00     0.094 C 
HETATM   14  N4  UNL     1      24.674   3.117  50.719  1.00  0.00    -0.326 N 
ENDROOT
BRANCH  10  15
HETATM   15  N3  UNL     1      26.784   6.666  48.291  1.00  0.00    -0.341 N 
HETATM   16  H5  UNL     1      26.243   6.998  47.485  1.00  0.00     0.167 HD
BRANCH  15  17
HETATM   17  C7  UNL     1      27.991   7.410  48.264  1.00  0.00     0.033 A 
HETATM   18  C8  UNL     1      28.130   8.526  49.078  1.00  0.00     0.032 A 
HETATM   19  C9  UNL     1      29.332   9.230  49.017  1.00  0.00     0.044 A 
HETATM   20  C10 UNL     1      30.290   8.780  48.167  1.00  0.00     0.116 A 
HETATM   21  F1  UNL     1      31.441   9.486  48.134  1.00  0.00    -0.206 F 
HETATM   22  C11 UNL     1      30.207   7.689  47.346  1.00  0.00     0.044 A 
HETATM   23  C12 UNL     1      29.008   6.982  47.403  1.00  0.00     0.032 A 
ENDBRANCH  15  17
ENDBRANCH  10  15
BRANCH  14  24
HETATM   24  C16 UNL     1      24.449   3.318  52.099  1.00  0.00     0.133 C 
BRANCH  24  25
HETATM   25  C17 UNL     1      24.623   2.140  53.013  1.00  0.00     0.040 C 
BRANCH  25  26
HETATM   26  C18 UNL     1      25.817   2.200  53.917  1.00  0.00     0.118 C 
BRANCH  26  27
HETATM   27  N5  UNL     1      26.574   0.976  53.943  1.00  0.00    -0.408 N 
HETATM   28  C19 UNL     1      27.987   1.118  53.896  1.00  0.00     0.143 C 
HETATM   29  C20 UNL     1      28.734  -0.149  54.199  1.00  0.00     0.187 C 
HETATM   30  O3  UNL     1      28.027  -1.285  53.859  1.00  0.00    -0.388 OA
HETATM   31  C21 UNL     1      27.100  -1.096  52.854  1.00  0.00     0.187 C 
HETATM   32  C22 UNL     1      26.008  -0.141  53.287  1.00  0.00     0.143 C 
ENDBRANCH  26  27
ENDBRANCH  25  26
ENDBRANCH  24  25
ENDBRANCH  14  24
TORSDOF 6
ENDMDL
MODEL 7
REMARK VINA RESULT:      -7.6      2.258      4.076
REMARK  6 active torsions:
REMARK  status: ('A' for Active; 'I' for Inactive)
REMARK    1  A    between atoms: C6_10  and  N3_11 
REMARK    2  A    between atoms: N3_11  and  C7_12 
REMARK    3  A    between atoms: N4_22  and  C16_23 
REMARK    4  A    between atoms: C16_23  and  C17_24 
REMARK    5  A    between atoms: C17_24  and  C18_25 
REMARK    6  A    between atoms: C18_25  and  N5_26 
ROOT
HETATM    1  O1  UNL     1      21.271  -0.057  50.979  1.00  0.00    -0.271 OA
HETATM    2  C1  UNL     1      20.751   1.003  50.620  1.00  0.00     0.247 C 
HETATM    3  C2  UNL     1      20.588   1.653  49.305  1.00  0.00     0.277 C 
HETATM    4  O2  UNL     1      21.714   1.138  48.545  1.00  0.00    -0.351 OA
HETATM    5  C3  UNL     1      22.235   1.843  47.498  1.00  0.00     0.169 C 
HETATM    6  C4  UNL     1      22.658   3.057  47.673  1.00  0.00     0.110 C 
HETATM    7  N1  UNL     1      22.905   3.511  48.830  1.00  0.00    -0.238 NA
HETATM    8  C5  UNL     1      23.385   2.634  49.829  1.00  0.00     0.236 C 
HETATM    9  N2  UNL     1      23.945   1.780  50.528  1.00  0.00    -0.225 NA
HETATM   10  C6  UNL     1      23.793   1.443  51.878  1.00  0.00     0.129 C 
HETATM   11  C13 UNL     1      23.165   1.123  53.022  1.00  0.00     0.052 C 
HETATM   12  C14 UNL     1      21.842   0.914  53.541  1.00  0.00     0.021 C 
HETATM   13  C15 UNL     1      20.560   0.911  53.309  1.00  0.00     0.094 C 
HETATM   14  N4  UNL     1      20.424   1.288  51.954  1.00  0.00    -0.326 N 
ENDROOT
BRANCH  10  15
HETATM   15  N3  UNL     1      25.208   1.521  51.961  1.00  0.00    -0.341 N 
HETATM   16  H5  UNL     1      25.567   2.330  51.441  1.00  0.00     0.167 HD
BRANCH  15  17
HETATM   17  C7  UNL     1      26.356   0.877  52.490  1.00  0.00     0.033 A 
HETATM   18  C8  UNL     1      26.411  -0.510  52.527  1.00  0.00     0.032 A 
HETATM   19  C9  UNL     1      27.557  -1.101  53.057  1.00  0.00     0.044 A 
HETATM   20  C10 UNL     1      28.545  -0.284  53.503  1.00  0.00     0.116 A 
HETATM   21  F1  UNL     1      29.640  -0.892  54.011  1.00  0.00    -0.206 F 
HETATM   22  C11 UNL     1      28.543   1.083  53.491  1.00  0.00     0.044 A 
HETATM   23  C12 UNL     1      27.400   1.679  52.962  1.00  0.00     0.032 A 
ENDBRANCH  15  17
ENDBRANCH  10  15
BRANCH  14  24
HETATM   24  C16 UNL     1      19.715   2.498  51.783  1.00  0.00     0.133 C 
BRANCH  24  25
HETATM   25  C17 UNL     1      20.487   3.697  51.315  1.00  0.00     0.040 C 
BRANCH  25  26
HETATM   26  C18 UNL     1      21.398   4.311  52.335  1.00  0.00     0.118 C 
BRANCH  26  27
HETATM   27  N5  UNL     1      22.077   5.488  51.859  1.00  0.00    -0.408 N 
HETATM   28  C19 UNL     1      21.482   6.140  50.745  1.00  0.00     0.143 C 
HETATM   29  C20 UNL     1      22.059   7.496  50.459  1.00  0.00     0.187 C 
HETATM   30  O3  UNL     1      23.378   7.614  50.852  1.00  0.00    -0.388 OA
HETATM   31  C21 UNL     1      24.066   6.418  50.892  1.00  0.00     0.187 C 
HETATM   32  C22 UNL     1      23.489   5.489  51.938  1.00  0.00     0.143 C 
ENDBRANCH  26  27
ENDBRANCH  25  26
ENDBRANCH  24  25
ENDBRANCH  14  24
TORSDOF 6
ENDMDL
MODEL 8
REMARK VINA RESULT:      -7.5      1.598      2.350
REMARK  6 active torsions:
REMARK  status: ('A' for Active; 'I' for Inactive)
REMARK    1  A    between atoms: C6_10  and  N3_11 
REMARK    2  A    between atoms: N3_11  and  C7_12 
REMARK    3  A    between atoms: N4_22  and  C16_23 
REMARK    4  A    between atoms: C16_23  and  C17_24 
REMARK    5  A    between atoms: C17_24  and  C18_25 
REMARK    6  A    between atoms: C18_25  and  N5_26 
ROOT
HETATM    1  O1  UNL     1      23.577   4.308  51.547  1.00  0.00    -0.271 OA
HETATM    2  C1  UNL     1      22.790   3.752  50.777  1.00  0.00     0.247 C 
HETATM    3  C2  UNL     1      21.421   3.222  50.940  1.00  0.00     0.277 C 
HETATM    4  O2  UNL     1      21.369   2.884  52.352  1.00  0.00    -0.351 OA
HETATM    5  C3  UNL     1      20.517   1.922  52.812  1.00  0.00     0.169 C 
HETATM    6  C4  UNL     1      20.566   0.719  52.327  1.00  0.00     0.110 C 
HETATM    7  N1  UNL     1      21.572   0.310  51.675  1.00  0.00    -0.238 NA
HETATM    8  C5  UNL     1      22.856   0.801  52.005  1.00  0.00     0.236 C 
HETATM    9  N2  UNL     1      23.908   1.198  52.521  1.00  0.00    -0.225 NA
HETATM   10  C6  UNL     1      25.096   1.673  51.955  1.00  0.00     0.129 C 
HETATM   11  C13 UNL     1      25.896   2.403  51.159  1.00  0.00     0.052 C 
HETATM   12  C14 UNL     1      25.824   3.413  50.140  1.00  0.00     0.021 C 
HETATM   13  C15 UNL     1      25.069   4.171  49.396  1.00  0.00     0.094 C 
HETATM   14  N4  UNL     1      23.742   3.838  49.750  1.00  0.00    -0.326 N 
ENDROOT
BRANCH  10  15
HETATM   15  N3  UNL     1      25.763   0.763  52.817  1.00  0.00    -0.341 N 
HETATM   16  H5  UNL     1      25.106   0.322  53.471  1.00  0.00     0.167 HD
BRANCH  15  17
HETATM   17  C7  UNL     1      27.033   0.226  53.144  1.00  0.00     0.033 A 
HETATM   18  C8  UNL     1      27.970   1.020  53.792  1.00  0.00     0.032 A 
HETATM   19  C9  UNL     1      29.208   0.453  54.093  1.00  0.00     0.044 A 
HETATM   20  C10 UNL     1      29.419  -0.839  53.734  1.00  0.00     0.116 A 
HETATM   21  F1  UNL     1      30.629  -1.355  54.040  1.00  0.00    -0.206 F 
HETATM   22  C11 UNL     1      28.534  -1.664  53.096  1.00  0.00     0.044 A 
HETATM   23  C12 UNL     1      27.296  -1.103  52.793  1.00  0.00     0.032 A 
ENDBRANCH  15  17
ENDBRANCH  10  15
BRANCH  14  24
HETATM   24  C16 UNL     1      23.001   3.293  48.678  1.00  0.00     0.133 C 
BRANCH  24  25
HETATM   25  C17 UNL     1      22.389   4.251  47.697  1.00  0.00     0.040 C 
BRANCH  25  26
HETATM   26  C18 UNL     1      21.995   3.654  46.380  1.00  0.00     0.118 C 
BRANCH  26  27
HETATM   27  N5  UNL     1      20.606   3.850  46.058  1.00  0.00    -0.408 N 
HETATM   28  C19 UNL     1      19.671   3.313  46.983  1.00  0.00     0.143 C 
HETATM   29  C20 UNL     1      18.260   3.772  46.754  1.00  0.00     0.187 C 
HETATM   30  O3  UNL     1      18.001   4.079  45.432  1.00  0.00    -0.388 OA
HETATM   31  C21 UNL     1      18.808   3.417  44.529  1.00  0.00     0.187 C 
HETATM   32  C22 UNL     1      20.257   3.825  44.687  1.00  0.00     0.143 C 
ENDBRANCH  26  27
ENDBRANCH  25  26
ENDBRANCH  24  25
ENDBRANCH  14  24
TORSDOF 6
ENDMDL
MODEL 9
REMARK VINA RESULT:      -7.3      8.401     11.286
REMARK  6 active torsions:
REMARK  status: ('A' for Active; 'I' for Inactive)
REMARK    1  A    between atoms: C6_10  and  N3_11 
REMARK    2  A    between atoms: N3_11  and  C7_12 
REMARK    3  A    between atoms: N4_22  and  C16_23 
REMARK    4  A    between atoms: C16_23  and  C17_24 
REMARK    5  A    between atoms: C17_24  and  C18_25 
REMARK    6  A    between atoms: C18_25  and  N5_26 
ROOT
HETATM    1  O1  UNL     1      30.965   8.741  49.039  1.00  0.00    -0.271 OA
HETATM    2  C1  UNL     1      31.419   8.892  47.902  1.00  0.00     0.247 C 
HETATM    3  C2  UNL     1      31.144   9.863  46.825  1.00  0.00     0.277 C 
HETATM    4  O2  UNL     1      29.768  10.254  47.082  1.00  0.00    -0.351 OA
HETATM    5  C3  UNL     1      28.969  10.713  46.075  1.00  0.00     0.169 C 
HETATM    6  C4  UNL     1      28.770   9.989  45.017  1.00  0.00     0.110 C 
HETATM    7  N1  UNL     1      29.023   8.747  45.008  1.00  0.00    -0.238 NA
HETATM    8  C5  UNL     1      28.865   8.001  46.198  1.00  0.00     0.236 C 
HETATM    9  N2  UNL     1      28.522   7.473  47.263  1.00  0.00    -0.225 NA
HETATM   10  C6  UNL     1      29.132   6.488  48.047  1.00  0.00     0.129 C 
HETATM   11  C13 UNL     1      30.106   5.857  48.725  1.00  0.00     0.052 C 
HETATM   12  C14 UNL     1      31.498   5.994  49.052  1.00  0.00     0.021 C 
HETATM   13  C15 UNL     1      32.593   6.689  48.926  1.00  0.00     0.094 C 
HETATM   14  N4  UNL     1      32.250   7.777  48.092  1.00  0.00    -0.326 N 
ENDROOT
BRANCH  10  15
HETATM   15  N3  UNL     1      27.868   5.843  48.057  1.00  0.00    -0.341 N 
HETATM   16  H5  UNL     1      27.509   5.713  47.104  1.00  0.00     0.167 HD
BRANCH  15  17
HETATM   17  C7  UNL     1      26.868   5.308  48.909  1.00  0.00     0.033 A 
HETATM   18  C8  UNL     1      25.843   6.127  49.365  1.00  0.00     0.032 A 
HETATM   19  C9  UNL     1      24.882   5.561  50.203  1.00  0.00     0.044 A 
HETATM   20  C10 UNL     1      25.009   4.247  50.518  1.00  0.00     0.116 A 
HETATM   21  F1  UNL     1      24.061   3.733  51.332  1.00  0.00    -0.206 F 
HETATM   22  C11 UNL     1      25.995   3.397  50.098  1.00  0.00     0.044 A 
HETATM   23  C12 UNL     1      26.957   3.957  49.261  1.00  0.00     0.032 A 
ENDBRANCH  15  17
ENDBRANCH  10  15
BRANCH  14  24
HETATM   24  C16 UNL     1      32.963   7.789  46.873  1.00  0.00     0.133 C 
BRANCH  24  25
HETATM   25  C17 UNL     1      32.455   6.921  45.759  1.00  0.00     0.040 C 
BRANCH  25  26
HETATM   26  C18 UNL     1      33.374   5.814  45.338  1.00  0.00     0.118 C 
BRANCH  26  27
HETATM   27  N5  UNL     1      33.425   4.726  46.280  1.00  0.00    -0.408 N 
HETATM   28  C19 UNL     1      34.723   4.259  46.621  1.00  0.00     0.143 C 
HETATM   29  C20 UNL     1      34.741   3.323  47.794  1.00  0.00     0.187 C 
HETATM   30  O3  UNL     1      33.565   2.610  47.932  1.00  0.00    -0.388 OA
HETATM   31  C21 UNL     1      32.863   2.443  46.756  1.00  0.00     0.187 C 
HETATM   32  C22 UNL     1      32.384   3.770  46.209  1.00  0.00     0.143 C 
ENDBRANCH  26  27
ENDBRANCH  25  26
ENDBRANCH  24  25
ENDBRANCH  14  24
TORSDOF 6
ENDMDL
