MODEL 1
REMARK VINA RESULT:      -8.1      0.000      0.000
REMARK  2 active torsions:
REMARK  status: ('A' for Active; 'I' for Inactive)
REMARK    1  A    between atoms: O1_2  and  C2_3 
REMARK    2  A    between atoms: C2_3  and  C3_5 
ROOT
HETATM    1  C3  UNL     1      24.006   2.288  52.170  1.00  0.00     0.088 C 
HETATM    2  C4  UNL     1      24.190   3.283  53.280  1.00  0.00     0.032 C 
HETATM    3  C5  UNL     1      24.838   1.079  52.436  1.00  0.00    -0.005 A 
HETATM    4  C6  UNL     1      26.066   1.168  51.783  1.00  0.00     0.011 A 
HETATM    5  C7  UNL     1      27.022   0.181  51.849  1.00  0.00     0.001 A 
HETATM    6  C8  UNL     1      26.814  -0.970  52.578  1.00  0.00     0.003 A 
HETATM    7  C9  UNL     1      25.635  -1.125  53.241  1.00  0.00     0.038 A 
HETATM    8  C10 UNL     1      24.673  -0.117  53.167  1.00  0.00     0.086 A 
HETATM    9  O3  UNL     1      23.484  -0.389  53.903  1.00  0.00    -0.288 OA
HETATM   10  C11 UNL     1      22.209  -0.057  53.484  1.00  0.00     0.182 C 
HETATM   11  C12 UNL     1      22.216   1.312  53.374  1.00  0.00     0.051 C 
HETATM   12  C13 UNL     1      22.565   1.861  52.024  1.00  0.00     0.110 C 
HETATM   13  C14 UNL     1      21.605   2.887  51.661  1.00  0.00     0.165 C 
HETATM   14  O4  UNL     1      21.394   4.101  51.900  1.00  0.00    -0.292 OA
HETATM   15  C15 UNL     1      20.488   2.509  50.732  1.00  0.00    -0.004 A 
HETATM   16  C16 UNL     1      20.429   2.830  49.427  1.00  0.00     0.011 A 
HETATM   17  C17 UNL     1      19.221   2.329  48.735  1.00  0.00    -0.003 A 
HETATM   18  C18 UNL     1      18.582   1.702  49.707  1.00  0.00    -0.017 A 
HETATM   19  C19 UNL     1      19.208   1.710  51.018  1.00  0.00     0.047 A 
HETATM   20  C20 UNL     1      19.654   0.303  51.400  1.00  0.00     0.040 C 
HETATM   21  C21 UNL     1      19.958   0.299  52.907  1.00  0.00     0.178 C 
HETATM   22  O5  UNL     1      20.957  -0.666  53.144  1.00  0.00    -0.331 OA
ENDROOT
BRANCH   1  23
HETATM   23  C2  UNL     1      24.401   2.911  50.896  1.00  0.00     0.272 C 
HETATM   24  O2  UNL     1      24.684   3.157  49.711  1.00  0.00    -0.264 OA
BRANCH  23  25
HETATM   25  O1  UNL     1      24.705   4.247  51.023  1.00  0.00    -0.326 OA
HETATM   26  C1  UNL     1      24.402   5.262  50.116  1.00  0.00     0.213 C 
ENDBRANCH  23  25
ENDBRANCH   1  23
TORSDOF 2
ENDMDL
MODEL 2
REMARK VINA RESULT:      -7.9      1.860      3.102
REMARK  2 active torsions:
REMARK  status: ('A' for Active; 'I' for Inactive)
REMARK    1  A    between atoms: O1_2  and  C2_3 
REMARK    2  A    between atoms: C2_3  and  C3_5 
ROOT
HETATM    1  C3  UNL     1      22.813   3.976  51.300  1.00  0.00     0.088 C 
HETATM    2  C4  UNL     1      22.837   5.052  52.348  1.00  0.00     0.032 C 
HETATM    3  C5  UNL     1      24.206   3.670  50.861  1.00  0.00    -0.005 A 
HETATM    4  C6  UNL     1      24.535   4.396  49.717  1.00  0.00     0.011 A 
HETATM    5  C7  UNL     1      25.757   4.295  49.094  1.00  0.00     0.001 A 
HETATM    6  C8  UNL     1      26.740   3.456  49.575  1.00  0.00     0.003 A 
HETATM    7  C9  UNL     1      26.486   2.717  50.689  1.00  0.00     0.038 A 
HETATM    8  C10 UNL     1      25.243   2.828  51.314  1.00  0.00     0.086 A 
HETATM    9  O3  UNL     1      25.095   2.010  52.470  1.00  0.00    -0.288 OA
HETATM   10  C11 UNL     1      23.931   1.351  52.820  1.00  0.00     0.182 C 
HETATM   11  C12 UNL     1      23.002   2.344  53.006  1.00  0.00     0.051 C 
HETATM   12  C13 UNL     1      22.176   2.704  51.808  1.00  0.00     0.110 C 
HETATM   13  C14 UNL     1      20.779   2.772  52.191  1.00  0.00     0.165 C 
HETATM   14  O4  UNL     1      19.996   3.581  52.748  1.00  0.00    -0.292 OA
HETATM   15  C15 UNL     1      19.907   1.588  51.888  1.00  0.00    -0.004 A 
HETATM   16  C16 UNL     1      19.014   1.524  50.884  1.00  0.00     0.011 A 
HETATM   17  C17 UNL     1      18.287   0.239  50.800  1.00  0.00    -0.003 A 
HETATM   18  C18 UNL     1      18.804  -0.441  51.808  1.00  0.00    -0.017 A 
HETATM   19  C19 UNL     1      19.820   0.231  52.602  1.00  0.00     0.047 A 
HETATM   20  C20 UNL     1      21.173  -0.446  52.413  1.00  0.00     0.040 C 
HETATM   21  C21 UNL     1      22.105   0.049  53.530  1.00  0.00     0.178 C 
HETATM   22  O5  UNL     1      23.425   0.027  53.033  1.00  0.00    -0.331 OA
ENDROOT
BRANCH   1  23
HETATM   23  C2  UNL     1      22.005   4.434  50.158  1.00  0.00     0.272 C 
HETATM   24  O2  UNL     1      21.411   4.557  49.073  1.00  0.00    -0.264 OA
BRANCH  23  25
HETATM   25  O1  UNL     1      21.420   5.661  50.373  1.00  0.00    -0.326 OA
HETATM   26  C1  UNL     1      20.166   6.079  49.925  1.00  0.00     0.213 C 
ENDBRANCH  23  25
ENDBRANCH   1  23
TORSDOF 2
ENDMDL
MODEL 3
REMARK VINA RESULT:      -7.8      1.946      4.838
REMARK  2 active torsions:
REMARK  status: ('A' for Active; 'I' for Inactive)
REMARK    1  A    between atoms: O1_2  and  C2_3 
REMARK    2  A    between atoms: C2_3  and  C3_5 
ROOT
HETATM    1  C3  UNL     1      21.337   1.499  51.388  1.00  0.00     0.088 C 
HETATM    2  C4  UNL     1      21.134   0.608  50.196  1.00  0.00     0.032 C 
HETATM    3  C5  UNL     1      21.915   0.710  52.514  1.00  0.00    -0.005 A 
HETATM    4  C6  UNL     1      20.910   0.257  53.368  1.00  0.00     0.011 A 
HETATM    5  C7  UNL     1      21.167  -0.487  54.497  1.00  0.00     0.001 A 
HETATM    6  C8  UNL     1      22.454  -0.831  54.850  1.00  0.00     0.003 A 
HETATM    7  C9  UNL     1      23.485  -0.422  54.061  1.00  0.00     0.038 A 
HETATM    8  C10 UNL     1      23.212   0.332  52.918  1.00  0.00     0.086 A 
HETATM    9  O3  UNL     1      24.368   0.700  52.172  1.00  0.00    -0.288 OA
HETATM   10  C11 UNL     1      24.539   1.918  51.541  1.00  0.00     0.182 C 
HETATM   11  C12 UNL     1      23.523   1.987  50.620  1.00  0.00     0.051 C 
HETATM   12  C13 UNL     1      22.262   2.653  51.082  1.00  0.00     0.110 C 
HETATM   13  C14 UNL     1      21.824   3.602  50.075  1.00  0.00     0.165 C 
HETATM   14  O4  UNL     1      21.205   3.593  48.983  1.00  0.00    -0.292 OA
HETATM   15  C15 UNL     1      22.147   5.053  50.288  1.00  0.00    -0.004 A 
HETATM   16  C16 UNL     1      21.268   5.986  50.696  1.00  0.00     0.011 A 
HETATM   17  C17 UNL     1      21.845   7.342  50.832  1.00  0.00    -0.003 A 
HETATM   18  C18 UNL     1      23.104   7.146  50.481  1.00  0.00    -0.017 A 
HETATM   19  C19 UNL     1      23.479   5.794  50.104  1.00  0.00     0.047 A 
HETATM   20  C20 UNL     1      24.444   5.208  51.130  1.00  0.00     0.040 C 
HETATM   21  C21 UNL     1      25.088   3.958  50.508  1.00  0.00     0.178 C 
HETATM   22  O5  UNL     1      25.398   3.066  51.554  1.00  0.00    -0.331 OA
ENDROOT
BRANCH   1  23
HETATM   23  C2  UNL     1      20.042   2.080  51.780  1.00  0.00     0.272 C 
HETATM   24  O2  UNL     1      19.115   2.695  52.332  1.00  0.00    -0.264 OA
BRANCH  23  25
HETATM   25  O1  UNL     1      19.012   1.706  50.947  1.00  0.00    -0.326 OA
HETATM   26  C1  UNL     1      17.949   2.505  50.524  1.00  0.00     0.213 C 
ENDBRANCH  23  25
ENDBRANCH   1  23
TORSDOF 2
ENDMDL
MODEL 4
REMARK VINA RESULT:      -7.6      8.657     12.610
REMARK  2 active torsions:
REMARK  status: ('A' for Active; 'I' for Inactive)
REMARK    1  A    between atoms: O1_2  and  C2_3 
REMARK    2  A    between atoms: C2_3  and  C3_5 
ROOT
HETATM    1  C3  UNL     1      31.340   6.002  48.021  1.00  0.00     0.088 C 
HETATM    2  C4  UNL     1      32.016   6.073  49.360  1.00  0.00     0.032 C 
HETATM    3  C5  UNL     1      29.899   6.356  48.164  1.00  0.00    -0.005 A 
HETATM    4  C6  UNL     1      29.119   5.209  48.312  1.00  0.00     0.011 A 
HETATM    5  C7  UNL     1      27.751   5.249  48.452  1.00  0.00     0.001 A 
HETATM    6  C8  UNL     1      27.065   6.444  48.454  1.00  0.00     0.003 A 
HETATM    7  C9  UNL     1      27.763   7.604  48.314  1.00  0.00     0.038 A 
HETATM    8  C10 UNL     1      29.151   7.552  48.173  1.00  0.00     0.086 A 
HETATM    9  O3  UNL     1      29.772   8.827  48.036  1.00  0.00    -0.288 OA
HETATM   10  C11 UNL     1      30.845   9.091  47.206  1.00  0.00     0.182 C 
HETATM   11  C12 UNL     1      31.857   8.285  47.666  1.00  0.00     0.051 C 
HETATM   12  C13 UNL     1      31.971   6.938  47.017  1.00  0.00     0.110 C 
HETATM   13  C14 UNL     1      33.356   6.692  46.662  1.00  0.00     0.165 C 
HETATM   14  O4  UNL     1      34.414   6.312  47.220  1.00  0.00    -0.292 OA
HETATM   15  C15 UNL     1      33.770   6.924  45.238  1.00  0.00    -0.004 A 
HETATM   16  C16 UNL     1      33.984   5.956  44.330  1.00  0.00     0.011 A 
HETATM   17  C17 UNL     1      34.378   6.455  42.994  1.00  0.00    -0.003 A 
HETATM   18  C18 UNL     1      34.381   7.764  43.175  1.00  0.00    -0.017 A 
HETATM   19  C19 UNL     1      34.036   8.245  44.502  1.00  0.00     0.047 A 
HETATM   20  C20 UNL     1      32.708   8.994  44.463  1.00  0.00     0.040 C 
HETATM   21  C21 UNL     1      32.577   9.785  45.774  1.00  0.00     0.178 C 
HETATM   22  O5  UNL     1      31.204   9.897  46.077  1.00  0.00    -0.331 OA
ENDROOT
BRANCH   1  23
HETATM   23  C2  UNL     1      31.482   4.639  47.482  1.00  0.00     0.272 C 
HETATM   24  O2  UNL     1      31.408   3.591  46.818  1.00  0.00    -0.264 OA
BRANCH  23  25
HETATM   25  O1  UNL     1      32.333   3.853  48.226  1.00  0.00    -0.326 OA
HETATM   26  C1  UNL     1      33.193   2.866  47.745  1.00  0.00     0.213 C 
ENDBRANCH  23  25
ENDBRANCH   1  23
TORSDOF 2
ENDMDL
MODEL 5
REMARK VINA RESULT:      -7.4      8.866     12.904
REMARK  2 active torsions:
REMARK  status: ('A' for Active; 'I' for Inactive)
REMARK    1  A    between atoms: O1_2  and  C2_3 
REMARK    2  A    between atoms: C2_3  and  C3_5 
ROOT
HETATM    1  C3  UNL     1      31.098   8.349  47.968  1.00  0.00     0.088 C 
HETATM    2  C4  UNL     1      30.739   8.751  49.371  1.00  0.00     0.032 C 
HETATM    3  C5  UNL     1      31.624   9.530  47.226  1.00  0.00    -0.005 A 
HETATM    4  C6  UNL     1      30.610  10.149  46.496  1.00  0.00     0.011 A 
HETATM    5  C7  UNL     1      30.824  11.258  45.710  1.00  0.00     0.001 A 
HETATM    6  C8  UNL     1      32.074  11.827  45.600  1.00  0.00     0.003 A 
HETATM    7  C9  UNL     1      33.112  11.274  46.285  1.00  0.00     0.038 A 
HETATM    8  C10 UNL     1      32.883  10.150  47.080  1.00  0.00     0.086 A 
HETATM    9  O3  UNL     1      34.042   9.662  47.750  1.00  0.00    -0.288 OA
HETATM   10  C11 UNL     1      34.330   8.324  47.944  1.00  0.00     0.182 C 
HETATM   11  C12 UNL     1      33.292   7.843  48.701  1.00  0.00     0.051 C 
HETATM   12  C13 UNL     1      32.140   7.256  47.941  1.00  0.00     0.110 C 
HETATM   13  C14 UNL     1      31.777   5.981  48.529  1.00  0.00     0.165 C 
HETATM   14  O4  UNL     1      31.115   5.552  49.506  1.00  0.00    -0.292 OA
HETATM   15  C15 UNL     1      32.280   4.731  47.866  1.00  0.00    -0.004 A 
HETATM   16  C16 UNL     1      31.538   3.915  47.096  1.00  0.00     0.011 A 
HETATM   17  C17 UNL     1      32.278   2.753  46.558  1.00  0.00    -0.003 A 
HETATM   18  C18 UNL     1      33.488   2.937  47.055  1.00  0.00    -0.017 A 
HETATM   19  C19 UNL     1      33.683   4.107  47.896  1.00  0.00     0.047 A 
HETATM   20  C20 UNL     1      34.613   5.102  47.210  1.00  0.00     0.040 C 
HETATM   21  C21 UNL     1      35.075   6.117  48.268  1.00  0.00     0.178 C 
HETATM   22  O5  UNL     1      35.320   7.342  47.613  1.00  0.00    -0.331 OA
ENDROOT
BRANCH   1  23
HETATM   23  C2  UNL     1      29.900   7.815  47.300  1.00  0.00     0.272 C 
HETATM   24  O2  UNL     1      29.070   7.364  46.492  1.00  0.00    -0.264 OA
BRANCH  23  25
HETATM   25  O1  UNL     1      28.828   7.674  48.151  1.00  0.00    -0.326 OA
HETATM   26  C1  UNL     1      27.963   6.582  48.230  1.00  0.00     0.213 C 
ENDBRANCH  23  25
ENDBRANCH   1  23
TORSDOF 2
ENDMDL
MODEL 6
REMARK VINA RESULT:      -7.2      1.565      6.291
REMARK  2 active torsions:
REMARK  status: ('A' for Active; 'I' for Inactive)
REMARK    1  A    between atoms: O1_2  and  C2_3 
REMARK    2  A    between atoms: C2_3  and  C3_5 
ROOT
HETATM    1  C3  UNL     1      22.164   2.545  51.090  1.00  0.00     0.088 C 
HETATM    2  C4  UNL     1      21.684   3.659  51.977  1.00  0.00     0.032 C 
HETATM    3  C5  UNL     1      21.895   2.888  49.663  1.00  0.00    -0.005 A 
HETATM    4  C6  UNL     1      20.686   2.336  49.240  1.00  0.00     0.011 A 
HETATM    5  C7  UNL     1      20.202   2.488  47.961  1.00  0.00     0.001 A 
HETATM    6  C8  UNL     1      20.898   3.207  47.013  1.00  0.00     0.003 A 
HETATM    7  C9  UNL     1      22.087   3.773  47.357  1.00  0.00     0.038 A 
HETATM    8  C10 UNL     1      22.568   3.613  48.657  1.00  0.00     0.086 A 
HETATM    9  O3  UNL     1      23.818   4.251  48.901  1.00  0.00    -0.288 OA
HETATM   10  C11 UNL     1      24.826   3.727  49.687  1.00  0.00     0.182 C 
HETATM   11  C12 UNL     1      24.274   3.607  50.939  1.00  0.00     0.051 C 
HETATM   12  C13 UNL     1      23.642   2.285  51.255  1.00  0.00     0.110 C 
HETATM   13  C14 UNL     1      24.093   1.837  52.559  1.00  0.00     0.165 C 
HETATM   14  O4  UNL     1      23.828   2.049  53.768  1.00  0.00    -0.292 OA
HETATM   15  C15 UNL     1      25.199   0.823  52.612  1.00  0.00    -0.004 A 
HETATM   16  C16 UNL     1      25.034  -0.485  52.878  1.00  0.00     0.011 A 
HETATM   17  C17 UNL     1      26.288  -1.269  52.862  1.00  0.00    -0.003 A 
HETATM   18  C18 UNL     1      27.190  -0.347  52.573  1.00  0.00    -0.017 A 
HETATM   19  C19 UNL     1      26.707   1.011  52.388  1.00  0.00     0.047 A 
HETATM   20  C20 UNL     1      26.878   1.439  50.934  1.00  0.00     0.040 C 
HETATM   21  C21 UNL     1      26.710   2.965  50.872  1.00  0.00     0.178 C 
HETATM   22  O5  UNL     1      26.189   3.291  49.603  1.00  0.00    -0.331 OA
ENDROOT
BRANCH   1  23
HETATM   23  C2  UNL     1      21.466   1.302  51.458  1.00  0.00     0.272 C 
HETATM   24  O2  UNL     1      21.014   0.146  51.520  1.00  0.00    -0.264 OA
BRANCH  23  25
HETATM   25  O1  UNL     1      20.715   1.428  52.605  1.00  0.00    -0.326 OA
HETATM   26  C1  UNL     1      20.421   0.421  53.525  1.00  0.00     0.213 C 
ENDBRANCH  23  25
ENDBRANCH   1  23
TORSDOF 2
ENDMDL
MODEL 7
REMARK VINA RESULT:      -7.2      8.604     12.693
REMARK  2 active torsions:
REMARK  status: ('A' for Active; 'I' for Inactive)
REMARK    1  A    between atoms: O1_2  and  C2_3 
REMARK    2  A    between atoms: C2_3  and  C3_5 
ROOT
HETATM    1  C3  UNL     1      31.250   7.294  48.365  1.00  0.00     0.088 C 
HETATM    2  C4  UNL     1      31.899   7.141  49.711  1.00  0.00     0.032 C 
HETATM    3  C5  UNL     1      29.774   7.124  48.496  1.00  0.00    -0.005 A 
HETATM    4  C6  UNL     1      29.401   5.809  48.222  1.00  0.00     0.011 A 
HETATM    5  C7  UNL     1      28.094   5.380  48.259  1.00  0.00     0.001 A 
HETATM    6  C8  UNL     1      27.065   6.242  48.574  1.00  0.00     0.003 A 
HETATM    7  C9  UNL     1      27.358   7.542  48.852  1.00  0.00     0.038 A 
HETATM    8  C10 UNL     1      28.687   7.966  48.812  1.00  0.00     0.086 A 
HETATM    9  O3  UNL     1      28.870   9.343  49.123  1.00  0.00    -0.288 OA
HETATM   10  C11 UNL     1      29.785  10.173  48.502  1.00  0.00     0.182 C 
HETATM   11  C12 UNL     1      31.011   9.614  48.771  1.00  0.00     0.051 C 
HETATM   12  C13 UNL     1      31.529   8.645  47.751  1.00  0.00     0.110 C 
HETATM   13  C14 UNL     1      32.912   8.962  47.448  1.00  0.00     0.165 C 
HETATM   14  O4  UNL     1      34.049   8.769  47.944  1.00  0.00    -0.292 OA
HETATM   15  C15 UNL     1      33.198   9.748  46.201  1.00  0.00    -0.004 A 
HETATM   16  C16 UNL     1      33.687   9.232  45.059  1.00  0.00     0.011 A 
HETATM   17  C17 UNL     1      33.871  10.223  43.977  1.00  0.00    -0.003 A 
HETATM   18  C18 UNL     1      33.465  11.342  44.551  1.00  0.00    -0.017 A 
HETATM   19  C19 UNL     1      33.016  11.248  45.930  1.00  0.00     0.047 A 
HETATM   20  C20 UNL     1      31.519  11.525  46.018  1.00  0.00     0.040 C 
HETATM   21  C21 UNL     1      31.175  11.780  47.495  1.00  0.00     0.178 C 
HETATM   22  O5  UNL     1      29.845  11.364  47.707  1.00  0.00    -0.331 OA
ENDROOT
BRANCH   1  23
HETATM   23  C2  UNL     1      31.803   6.284  47.447  1.00  0.00     0.272 C 
HETATM   24  O2  UNL     1      32.093   5.573  46.469  1.00  0.00    -0.264 OA
BRANCH  23  25
HETATM   25  O1  UNL     1      32.690   5.430  48.060  1.00  0.00    -0.326 OA
HETATM   26  C1  UNL     1      32.837   4.063  47.818  1.00  0.00     0.213 C 
ENDBRANCH  23  25
ENDBRANCH   1  23
TORSDOF 2
ENDMDL
MODEL 8
REMARK VINA RESULT:      -7.1      1.703      2.782
REMARK  2 active torsions:
REMARK  status: ('A' for Active; 'I' for Inactive)
REMARK    1  A    between atoms: O1_2  and  C2_3 
REMARK    2  A    between atoms: C2_3  and  C3_5 
ROOT
HETATM    1  C3  UNL     1      23.150   3.185  51.723  1.00  0.00     0.088 C 
HETATM    2  C4  UNL     1      23.201   4.351  52.669  1.00  0.00     0.032 C 
HETATM    3  C5  UNL     1      23.111   1.911  52.497  1.00  0.00    -0.005 A 
HETATM    4  C6  UNL     1      24.393   1.382  52.646  1.00  0.00     0.011 A 
HETATM    5  C7  UNL     1      24.643   0.203  53.309  1.00  0.00     0.001 A 
HETATM    6  C8  UNL     1      23.623  -0.531  53.875  1.00  0.00     0.003 A 
HETATM    7  C9  UNL     1      22.346  -0.074  53.768  1.00  0.00     0.038 A 
HETATM    8  C10 UNL     1      22.103   1.123  53.093  1.00  0.00     0.086 A 
HETATM    9  O3  UNL     1      20.731   1.501  53.048  1.00  0.00    -0.288 OA
HETATM   10  C11 UNL     1      20.116   2.093  51.961  1.00  0.00     0.182 C 
HETATM   11  C12 UNL     1      20.784   3.278  51.776  1.00  0.00     0.051 C 
HETATM   12  C13 UNL     1      21.939   3.239  50.821  1.00  0.00     0.110 C 
HETATM   13  C14 UNL     1      21.845   4.363  49.909  1.00  0.00     0.165 C 
HETATM   14  O4  UNL     1      22.112   5.590  49.899  1.00  0.00    -0.292 OA
HETATM   15  C15 UNL     1      21.276   4.114  48.541  1.00  0.00    -0.004 A 
HETATM   16  C16 UNL     1      21.999   4.020  47.411  1.00  0.00     0.011 A 
HETATM   17  C17 UNL     1      21.193   3.764  46.197  1.00  0.00    -0.003 A 
HETATM   18  C18 UNL     1      19.965   3.715  46.682  1.00  0.00    -0.017 A 
HETATM   19  C19 UNL     1      19.815   3.915  48.114  1.00  0.00     0.047 A 
HETATM   20  C20 UNL     1      19.341   2.628  48.780  1.00  0.00     0.040 C 
HETATM   21  C21 UNL     1      18.848   2.984  50.192  1.00  0.00     0.178 C 
HETATM   22  O5  UNL     1      19.059   1.863  51.020  1.00  0.00    -0.331 OA
ENDROOT
BRANCH   1  23
HETATM   23  C2  UNL     1      24.335   3.219  50.851  1.00  0.00     0.272 C 
HETATM   24  O2  UNL     1      25.244   2.969  50.042  1.00  0.00    -0.264 OA
BRANCH  23  25
HETATM   25  O1  UNL     1      25.027   4.406  50.933  1.00  0.00    -0.326 OA
HETATM   26  C1  UNL     1      25.619   5.102  49.878  1.00  0.00     0.213 C 
ENDBRANCH  23  25
ENDBRANCH   1  23
TORSDOF 2
ENDMDL
MODEL 9
REMARK VINA RESULT:      -6.8     10.152     12.296
REMARK  2 active torsions:
REMARK  status: ('A' for Active; 'I' for Inactive)
REMARK    1  A    between atoms: O1_2  and  C2_3 
REMARK    2  A    between atoms: C2_3  and  C3_5 
ROOT
HETATM    1  C3  UNL     1      33.360   7.077  45.633  1.00  0.00     0.088 C 
HETATM    2  C4  UNL     1      34.417   8.143  45.576  1.00  0.00     0.032 C 
HETATM    3  C5  UNL     1      33.931   5.833  46.223  1.00  0.00    -0.005 A 
HETATM    4  C6  UNL     1      34.366   4.964  45.223  1.00  0.00     0.011 A 
HETATM    5  C7  UNL     1      34.925   3.735  45.490  1.00  0.00     0.001 A 
HETATM    6  C8  UNL     1      35.088   3.289  46.784  1.00  0.00     0.003 A 
HETATM    7  C9  UNL     1      34.686   4.086  47.811  1.00  0.00     0.038 A 
HETATM    8  C10 UNL     1      34.121   5.331  47.528  1.00  0.00     0.086 A 
HETATM    9  O3  UNL     1      33.740   6.076  48.681  1.00  0.00    -0.288 OA
HETATM   10  C11 UNL     1      32.605   6.860  48.769  1.00  0.00     0.182 C 
HETATM   11  C12 UNL     1      32.761   7.820  47.800  1.00  0.00     0.051 C 
HETATM   12  C13 UNL     1      32.169   7.502  46.459  1.00  0.00     0.110 C 
HETATM   13  C14 UNL     1      31.410   8.645  45.987  1.00  0.00     0.165 C 
HETATM   14  O4  UNL     1      31.625   9.749  45.429  1.00  0.00    -0.292 OA
HETATM   15  C15 UNL     1      29.919   8.620  46.160  1.00  0.00    -0.004 A 
HETATM   16  C16 UNL     1      29.033   8.376  45.178  1.00  0.00     0.011 A 
HETATM   17  C17 UNL     1      27.620   8.404  45.617  1.00  0.00    -0.003 A 
HETATM   18  C18 UNL     1      27.733   8.677  46.904  1.00  0.00    -0.017 A 
HETATM   19  C19 UNL     1      29.079   8.851  47.425  1.00  0.00     0.047 A 
HETATM   20  C20 UNL     1      29.425   7.719  48.386  1.00  0.00     0.040 C 
HETATM   21  C21 UNL     1      30.675   8.140  49.176  1.00  0.00     0.178 C 
HETATM   22  O5  UNL     1      31.386   6.970  49.514  1.00  0.00    -0.331 OA
ENDROOT
BRANCH   1  23
HETATM   23  C2  UNL     1      32.865   6.818  44.270  1.00  0.00     0.272 C 
HETATM   24  O2  UNL     1      32.275   6.393  43.262  1.00  0.00    -0.264 OA
BRANCH  23  25
HETATM   25  O1  UNL     1      33.459   7.619  43.322  1.00  0.00    -0.326 OA
HETATM   26  C1  UNL     1      33.693   7.297  41.985  1.00  0.00     0.213 C 
ENDBRANCH  23  25
ENDBRANCH   1  23
TORSDOF 2
ENDMDL
