MODEL 1
REMARK VINA RESULT:      -9.1      0.000      0.000
REMARK  8 active torsions:
REMARK  status: ('A' for Active; 'I' for Inactive)
REMARK    1  A    between atoms: C2_2  and  N4_22 
REMARK    2  A    between atoms: C3_3  and  C4_4 
REMARK    3  A    between atoms: C7_7  and  N1_8 
REMARK    4  A    between atoms: N1_8  and  C8_9 
REMARK    5  A    between atoms: N4_22  and  C17_23 
REMARK    6  A    between atoms: C17_23  and  C19_25 
REMARK    7  A    between atoms: C20_26  and  C21_27 
REMARK    8  A    between atoms: C21_27  and  N5_28 
ROOT
HETATM    1  C4  UNL     1      22.805   3.115  50.696  1.00  0.00     0.012 C 
HETATM    2  C5  UNL     1      22.606   2.179  51.644  1.00  0.00     0.036 A 
HETATM    3  C6  UNL     1      23.849   1.457  52.101  1.00  0.00     0.117 A 
HETATM    4  C7  UNL     1      23.533   0.367  53.043  1.00  0.00     0.037 A 
HETATM    5  C14 UNL     1      22.342   0.122  53.514  1.00  0.00     0.085 A 
HETATM    6  C15 UNL     1      22.074  -0.966  54.448  1.00  0.00     0.103 C 
HETATM    7  N2  UNL     1      21.854  -1.834  55.174  1.00  0.00    -0.191 NA
HETATM    8  C16 UNL     1      21.179   0.892  53.095  1.00  0.00     0.141 A 
HETATM    9  N3  UNL     1      21.391   1.804  52.246  1.00  0.00    -0.264 NA
ENDROOT
BRANCH   4  10
HETATM   10  N1  UNL     1      24.540  -0.502  53.489  1.00  0.00    -0.358 N 
HETATM   11  H8  UNL     1      24.080  -1.326  53.927  1.00  0.00     0.166 HD
BRANCH  10  12
HETATM   12  C8  UNL     1      25.927  -0.368  53.406  1.00  0.00     0.034 A 
HETATM   13  C9  UNL     1      26.788  -1.409  53.137  1.00  0.00     0.032 A 
HETATM   14  C10 UNL     1      28.172  -1.335  53.056  1.00  0.00     0.046 A 
HETATM   15  C11 UNL     1      28.721  -0.090  53.267  1.00  0.00     0.138 A 
HETATM   16  F1  UNL     1      30.067   0.043  53.205  1.00  0.00    -0.204 F 
HETATM   17  C12 UNL     1      27.894   1.000  53.543  1.00  0.00     0.074 A 
HETATM   18 CL1  UNL     1      28.670   2.543  53.805  1.00  0.00    -0.081 Cl
HETATM   19  C13 UNL     1      26.526   0.875  53.613  1.00  0.00     0.056 A 
ENDBRANCH  10  12
ENDBRANCH   4  10
BRANCH   1  20
HETATM   20  C3  UNL     1      24.250   3.034  50.499  1.00  0.00     0.068 C 
HETATM   21  C2  UNL     1      25.339   3.817  50.301  1.00  0.00    -0.013 C 
HETATM   22  C1  UNL     1      26.574   3.031  50.176  1.00  0.00     0.064 C 
BRANCH  21  23
HETATM   23  N4  UNL     1      25.901   5.167  50.141  1.00  0.00    -0.389 N 
HETATM   24  H13 UNL     1      26.296   5.605  51.003  1.00  0.00     0.159 HD
BRANCH  23  25
HETATM   25  C17 UNL     1      25.846   5.746  48.786  1.00  0.00     0.100 C 
HETATM   26  C18 UNL     1      24.714   6.762  48.739  1.00  0.00     0.036 C 
BRANCH  25  27
HETATM   27  C19 UNL     1      27.160   6.427  48.625  1.00  0.00    -0.005 C 
HETATM   28  C20 UNL     1      28.289   5.818  48.281  1.00  0.00     0.001 C 
BRANCH  28  29
HETATM   29  C21 UNL     1      29.595   6.484  48.119  1.00  0.00     0.298 C 
BRANCH  29  30
HETATM   30  N5  UNL     1      30.683   5.733  48.646  1.00  0.00     0.083 N 
HETATM   31  C22 UNL     1      31.340   4.938  47.640  1.00  0.00     0.309 C 
HETATM   32  C23 UNL     1      31.652   6.453  49.401  1.00  0.00     0.309 C 
ENDBRANCH  29  30
ENDBRANCH  28  29
ENDBRANCH  25  27
ENDBRANCH  23  25
ENDBRANCH  21  23
ENDBRANCH   1  20
TORSDOF 8
ENDMDL
MODEL 2
REMARK VINA RESULT:      -8.7      3.456      5.143
REMARK  8 active torsions:
REMARK  status: ('A' for Active; 'I' for Inactive)
REMARK    1  A    between atoms: C2_2  and  N4_22 
REMARK    2  A    between atoms: C3_3  and  C4_4 
REMARK    3  A    between atoms: C7_7  and  N1_8 
REMARK    4  A    between atoms: N1_8  and  C8_9 
REMARK    5  A    between atoms: N4_22  and  C17_23 
REMARK    6  A    between atoms: C17_23  and  C19_25 
REMARK    7  A    between atoms: C20_26  and  C21_27 
REMARK    8  A    between atoms: C21_27  and  N5_28 
ROOT
HETATM    1  C4  UNL     1      26.685   1.677  51.468  1.00  0.00     0.012 C 
HETATM    2  C5  UNL     1      25.863   0.934  52.233  1.00  0.00     0.036 A 
HETATM    3  C6  UNL     1      24.410   1.335  52.189  1.00  0.00     0.117 A 
HETATM    4  C7  UNL     1      23.598   0.559  53.145  1.00  0.00     0.037 A 
HETATM    5  C14 UNL     1      24.051  -0.431  53.862  1.00  0.00     0.085 A 
HETATM    6  C15 UNL     1      23.211  -1.176  54.794  1.00  0.00     0.103 C 
HETATM    7  N2  UNL     1      22.557  -1.758  55.543  1.00  0.00    -0.191 NA
HETATM    8  C16 UNL     1      25.452  -0.829  53.821  1.00  0.00     0.141 A 
HETATM    9  N3  UNL     1      26.200  -0.157  53.055  1.00  0.00    -0.264 NA
ENDROOT
BRANCH   4  10
HETATM   10  N1  UNL     1      22.244   0.866  53.343  1.00  0.00    -0.358 N 
HETATM   11  H8  UNL     1      22.149   1.296  54.285  1.00  0.00     0.166 HD
BRANCH  10  12
HETATM   12  C8  UNL     1      21.156   0.667  52.490  1.00  0.00     0.034 A 
HETATM   13  C9  UNL     1      21.122   1.077  51.175  1.00  0.00     0.032 A 
HETATM   14  C10 UNL     1      20.066   0.917  50.289  1.00  0.00     0.046 A 
HETATM   15  C11 UNL     1      18.950   0.284  50.790  1.00  0.00     0.138 A 
HETATM   16  F1  UNL     1      17.886   0.104  49.973  1.00  0.00    -0.204 F 
HETATM   17  C12 UNL     1      18.932  -0.150  52.116  1.00  0.00     0.074 A 
HETATM   18 CL1  UNL     1      17.476  -0.937  52.676  1.00  0.00    -0.081 Cl
HETATM   19  C13 UNL     1      20.005   0.032  52.957  1.00  0.00     0.056 A 
ENDBRANCH  10  12
ENDBRANCH   4  10
BRANCH   1  20
HETATM   20  C3  UNL     1      25.752   2.628  50.869  1.00  0.00     0.068 C 
HETATM   21  C2  UNL     1      25.688   3.896  50.395  1.00  0.00    -0.013 C 
HETATM   22  C1  UNL     1      24.348   4.240  49.901  1.00  0.00     0.064 C 
BRANCH  21  23
HETATM   23  N4  UNL     1      26.373   5.171  50.124  1.00  0.00    -0.389 N 
HETATM   24  H13 UNL     1      26.611   5.751  50.960  1.00  0.00     0.159 HD
BRANCH  23  25
HETATM   25  C17 UNL     1      26.646   5.483  48.709  1.00  0.00     0.100 C 
HETATM   26  C18 UNL     1      26.450   6.977  48.496  1.00  0.00     0.036 C 
BRANCH  25  27
HETATM   27  C19 UNL     1      28.077   5.116  48.523  1.00  0.00    -0.005 C 
HETATM   28  C20 UNL     1      29.020   5.948  48.098  1.00  0.00     0.001 C 
BRANCH  28  29
HETATM   29  C21 UNL     1      30.440   5.593  47.911  1.00  0.00     0.298 C 
BRANCH  29  30
HETATM   30  N5  UNL     1      31.336   6.475  48.579  1.00  0.00     0.083 N 
HETATM   31  C22 UNL     1      30.729   7.745  48.887  1.00  0.00     0.309 C 
HETATM   32  C23 UNL     1      31.996   5.964  49.733  1.00  0.00     0.309 C 
ENDBRANCH  29  30
ENDBRANCH  28  29
ENDBRANCH  25  27
ENDBRANCH  23  25
ENDBRANCH  21  23
ENDBRANCH   1  20
TORSDOF 8
ENDMDL
MODEL 3
REMARK VINA RESULT:      -8.5      1.877      2.293
REMARK  8 active torsions:
REMARK  status: ('A' for Active; 'I' for Inactive)
REMARK    1  A    between atoms: C2_2  and  N4_22 
REMARK    2  A    between atoms: C3_3  and  C4_4 
REMARK    3  A    between atoms: C7_7  and  N1_8 
REMARK    4  A    between atoms: N1_8  and  C8_9 
REMARK    5  A    between atoms: N4_22  and  C17_23 
REMARK    6  A    between atoms: C17_23  and  C19_25 
REMARK    7  A    between atoms: C20_26  and  C21_27 
REMARK    8  A    between atoms: C21_27  and  N5_28 
ROOT
HETATM    1  C4  UNL     1      22.902   2.504  49.892  1.00  0.00     0.012 C 
HETATM    2  C5  UNL     1      22.633   1.701  50.940  1.00  0.00     0.036 A 
HETATM    3  C6  UNL     1      23.813   1.387  51.826  1.00  0.00     0.117 A 
HETATM    4  C7  UNL     1      23.467   0.407  52.872  1.00  0.00     0.037 A 
HETATM    5  C14 UNL     1      22.266  -0.053  53.082  1.00  0.00     0.085 A 
HETATM    6  C15 UNL     1      21.966  -1.021  54.132  1.00  0.00     0.103 C 
HETATM    7  N2  UNL     1      21.726  -1.796  54.949  1.00  0.00    -0.191 NA
HETATM    8  C16 UNL     1      21.140   0.332  52.241  1.00  0.00     0.141 A 
HETATM    9  N3  UNL     1      21.397   1.131  51.296  1.00  0.00    -0.264 NA
ENDROOT
BRANCH   4  10
HETATM   10  N1  UNL     1      24.458  -0.108  53.721  1.00  0.00    -0.358 N 
HETATM   11  H8  UNL     1      23.986  -0.661  54.464  1.00  0.00     0.166 HD
BRANCH  10  12
HETATM   12  C8  UNL     1      25.845   0.044  53.658  1.00  0.00     0.034 A 
HETATM   13  C9  UNL     1      26.496   1.249  53.812  1.00  0.00     0.032 A 
HETATM   14  C10 UNL     1      27.867   1.459  53.747  1.00  0.00     0.046 A 
HETATM   15  C11 UNL     1      28.636   0.343  53.502  1.00  0.00     0.138 A 
HETATM   16  F1  UNL     1      29.980   0.488  53.422  1.00  0.00    -0.204 F 
HETATM   17  C12 UNL     1      28.026  -0.902  53.337  1.00  0.00     0.074 A 
HETATM   18 CL1  UNL     1      29.072  -2.266  53.024  1.00  0.00    -0.081 Cl
HETATM   19  C13 UNL     1      26.662  -1.059  53.411  1.00  0.00     0.056 A 
ENDBRANCH  10  12
ENDBRANCH   4  10
BRANCH   1  20
HETATM   20  C3  UNL     1      24.329   2.756  50.072  1.00  0.00     0.068 C 
HETATM   21  C2  UNL     1      25.207   3.761  50.313  1.00  0.00    -0.013 C 
HETATM   22  C1  UNL     1      26.596   3.284  50.378  1.00  0.00     0.064 C 
BRANCH  21  23
HETATM   23  N4  UNL     1      25.438   5.194  50.554  1.00  0.00    -0.389 N 
HETATM   24  H13 UNL     1      25.391   5.506  51.550  1.00  0.00     0.159 HD
BRANCH  23  25
HETATM   25  C17 UNL     1      25.712   6.025  49.366  1.00  0.00     0.100 C 
HETATM   26  C18 UNL     1      24.430   6.150  48.556  1.00  0.00     0.036 C 
BRANCH  25  27
HETATM   27  C19 UNL     1      26.103   7.347  49.927  1.00  0.00    -0.005 C 
HETATM   28  C20 UNL     1      27.086   8.106  49.457  1.00  0.00     0.001 C 
BRANCH  28  29
HETATM   29  C21 UNL     1      27.480   9.417  50.005  1.00  0.00     0.298 C 
BRANCH  29  30
HETATM   30  N5  UNL     1      28.618   9.980  49.363  1.00  0.00     0.083 N 
HETATM   31  C22 UNL     1      29.683   9.025  49.195  1.00  0.00     0.309 C 
HETATM   32  C23 UNL     1      28.387  10.665  48.135  1.00  0.00     0.309 C 
ENDBRANCH  29  30
ENDBRANCH  28  29
ENDBRANCH  25  27
ENDBRANCH  23  25
ENDBRANCH  21  23
ENDBRANCH   1  20
TORSDOF 8
ENDMDL
MODEL 4
REMARK VINA RESULT:      -8.4      3.008      8.403
REMARK  8 active torsions:
REMARK  status: ('A' for Active; 'I' for Inactive)
REMARK    1  A    between atoms: C2_2  and  N4_22 
REMARK    2  A    between atoms: C3_3  and  C4_4 
REMARK    3  A    between atoms: C7_7  and  N1_8 
REMARK    4  A    between atoms: N1_8  and  C8_9 
REMARK    5  A    between atoms: N4_22  and  C17_23 
REMARK    6  A    between atoms: C17_23  and  C19_25 
REMARK    7  A    between atoms: C20_26  and  C21_27 
REMARK    8  A    between atoms: C21_27  and  N5_28 
ROOT
HETATM    1  C4  UNL     1      21.081   0.808  50.865  1.00  0.00     0.012 C 
HETATM    2  C5  UNL     1      22.201   1.476  50.528  1.00  0.00     0.036 A 
HETATM    3  C6  UNL     1      23.286   1.479  51.576  1.00  0.00     0.117 A 
HETATM    4  C7  UNL     1      24.423   2.332  51.184  1.00  0.00     0.037 A 
HETATM    5  C14 UNL     1      24.535   2.926  50.029  1.00  0.00     0.085 A 
HETATM    6  C15 UNL     1      25.681   3.759  49.681  1.00  0.00     0.103 C 
HETATM    7  N2  UNL     1      26.576   4.431  49.407  1.00  0.00    -0.191 NA
HETATM    8  C16 UNL     1      23.490   2.839  49.018  1.00  0.00     0.141 A 
HETATM    9  N3  UNL     1      22.469   2.161  49.328  1.00  0.00    -0.264 NA
ENDROOT
BRANCH   4  10
HETATM   10  N1  UNL     1      25.479   2.564  52.077  1.00  0.00    -0.358 N 
HETATM   11  H8  UNL     1      25.425   3.556  52.386  1.00  0.00     0.166 HD
BRANCH  10  12
HETATM   12  C8  UNL     1      26.470   1.687  52.525  1.00  0.00     0.034 A 
HETATM   13  C9  UNL     1      27.632   2.088  53.147  1.00  0.00     0.032 A 
HETATM   14  C10 UNL     1      28.652   1.264  53.600  1.00  0.00     0.046 A 
HETATM   15  C11 UNL     1      28.468  -0.087  53.398  1.00  0.00     0.138 A 
HETATM   16  F1  UNL     1      29.433  -0.940  53.815  1.00  0.00    -0.204 F 
HETATM   17  C12 UNL     1      27.309  -0.547  52.773  1.00  0.00     0.074 A 
HETATM   18 CL1  UNL     1      27.156  -2.273  52.550  1.00  0.00    -0.081 Cl
HETATM   19  C13 UNL     1      26.325   0.312  52.341  1.00  0.00     0.056 A 
ENDBRANCH  10  12
ENDBRANCH   4  10
BRANCH   1  20
HETATM   20  C3  UNL     1      21.417   0.327  52.202  1.00  0.00     0.068 C 
HETATM   21  C2  UNL     1      20.867  -0.295  53.275  1.00  0.00    -0.013 C 
HETATM   22  C1  UNL     1      21.835  -0.488  54.363  1.00  0.00     0.064 C 
BRANCH  21  23
HETATM   23  N4  UNL     1      19.683  -0.905  53.901  1.00  0.00    -0.389 N 
HETATM   24  H13 UNL     1      19.625  -0.832  54.942  1.00  0.00     0.159 HD
BRANCH  23  25
HETATM   25  C17 UNL     1      18.715  -1.545  52.992  1.00  0.00     0.100 C 
HETATM   26  C18 UNL     1      17.925  -2.582  53.777  1.00  0.00     0.036 C 
BRANCH  25  27
HETATM   27  C19 UNL     1      17.824  -0.431  52.563  1.00  0.00    -0.005 C 
HETATM   28  C20 UNL     1      17.325  -0.293  51.340  1.00  0.00     0.001 C 
BRANCH  28  29
HETATM   29  C21 UNL     1      16.442   0.806  50.906  1.00  0.00     0.298 C 
BRANCH  29  30
HETATM   30  N5  UNL     1      16.098   1.703  51.956  1.00  0.00     0.083 N 
HETATM   31  C22 UNL     1      16.478   3.062  51.664  1.00  0.00     0.309 C 
HETATM   32  C23 UNL     1      14.749   1.668  52.412  1.00  0.00     0.309 C 
ENDBRANCH  29  30
ENDBRANCH  28  29
ENDBRANCH  25  27
ENDBRANCH  23  25
ENDBRANCH  21  23
ENDBRANCH   1  20
TORSDOF 8
ENDMDL
MODEL 5
REMARK VINA RESULT:      -8.4      2.486      4.446
REMARK  8 active torsions:
REMARK  status: ('A' for Active; 'I' for Inactive)
REMARK    1  A    between atoms: C2_2  and  N4_22 
REMARK    2  A    between atoms: C3_3  and  C4_4 
REMARK    3  A    between atoms: C7_7  and  N1_8 
REMARK    4  A    between atoms: N1_8  and  C8_9 
REMARK    5  A    between atoms: N4_22  and  C17_23 
REMARK    6  A    between atoms: C17_23  and  C19_25 
REMARK    7  A    between atoms: C20_26  and  C21_27 
REMARK    8  A    between atoms: C21_27  and  N5_28 
ROOT
HETATM    1  C4  UNL     1      22.928   2.271  49.799  1.00  0.00     0.012 C 
HETATM    2  C5  UNL     1      22.683   1.507  50.881  1.00  0.00     0.036 A 
HETATM    3  C6  UNL     1      23.847   1.341  51.825  1.00  0.00     0.117 A 
HETATM    4  C7  UNL     1      23.540   0.394  52.913  1.00  0.00     0.037 A 
HETATM    5  C14 UNL     1      22.372  -0.153  53.105  1.00  0.00     0.085 A 
HETATM    6  C15 UNL     1      22.110  -1.084  54.198  1.00  0.00     0.103 C 
HETATM    7  N2  UNL     1      21.901  -1.831  55.049  1.00  0.00    -0.191 NA
HETATM    8  C16 UNL     1      21.254   0.090  52.203  1.00  0.00     0.141 A 
HETATM    9  N3  UNL     1      21.484   0.855  51.223  1.00  0.00    -0.264 NA
ENDROOT
BRANCH   4  10
HETATM   10  N1  UNL     1      24.534   0.012  53.826  1.00  0.00    -0.358 N 
HETATM   11  H8  UNL     1      24.062  -0.371  54.670  1.00  0.00     0.166 HD
BRANCH  10  12
HETATM   12  C8  UNL     1      25.923   0.094  53.709  1.00  0.00     0.034 A 
HETATM   13  C9  UNL     1      26.638   1.266  53.823  1.00  0.00     0.032 A 
HETATM   14  C10 UNL     1      28.013   1.408  53.704  1.00  0.00     0.046 A 
HETATM   15  C11 UNL     1      28.717   0.252  53.445  1.00  0.00     0.138 A 
HETATM   16  F1  UNL     1      30.062   0.329  53.313  1.00  0.00    -0.204 F 
HETATM   17  C12 UNL     1      28.041  -0.963  53.320  1.00  0.00     0.074 A 
HETATM   18 CL1  UNL     1      29.007  -2.380  52.985  1.00  0.00    -0.081 Cl
HETATM   19  C13 UNL     1      26.675  -1.051  53.447  1.00  0.00     0.056 A 
ENDBRANCH  10  12
ENDBRANCH   4  10
BRANCH   1  20
HETATM   20  C3  UNL     1      24.322   2.651  50.016  1.00  0.00     0.068 C 
HETATM   21  C2  UNL     1      25.157   3.715  49.927  1.00  0.00    -0.013 C 
HETATM   22  C1  UNL     1      26.531   3.381  50.328  1.00  0.00     0.064 C 
BRANCH  21  23
HETATM   23  N4  UNL     1      25.347   5.137  49.597  1.00  0.00    -0.389 N 
HETATM   24  H13 UNL     1      25.946   5.339  48.765  1.00  0.00     0.159 HD
BRANCH  23  25
HETATM   25  C17 UNL     1      24.672   6.111  50.474  1.00  0.00     0.100 C 
HETATM   26  C18 UNL     1      25.384   7.451  50.349  1.00  0.00     0.036 C 
BRANCH  25  27
HETATM   27  C19 UNL     1      23.292   6.204  49.924  1.00  0.00    -0.005 C 
HETATM   28  C20 UNL     1      22.183   6.144  50.653  1.00  0.00     0.001 C 
BRANCH  28  29
HETATM   29  C21 UNL     1      20.812   6.235  50.117  1.00  0.00     0.298 C 
BRANCH  29  30
HETATM   30  N5  UNL     1      20.024   5.081  50.381  1.00  0.00     0.083 N 
HETATM   31  C22 UNL     1      19.875   4.240  49.221  1.00  0.00     0.309 C 
HETATM   32  C23 UNL     1      20.402   4.290  51.504  1.00  0.00     0.309 C 
ENDBRANCH  29  30
ENDBRANCH  28  29
ENDBRANCH  25  27
ENDBRANCH  23  25
ENDBRANCH  21  23
ENDBRANCH   1  20
TORSDOF 8
ENDMDL
MODEL 6
REMARK VINA RESULT:      -8.1      3.061      4.743
REMARK  8 active torsions:
REMARK  status: ('A' for Active; 'I' for Inactive)
REMARK    1  A    between atoms: C2_2  and  N4_22 
REMARK    2  A    between atoms: C3_3  and  C4_4 
REMARK    3  A    between atoms: C7_7  and  N1_8 
REMARK    4  A    between atoms: N1_8  and  C8_9 
REMARK    5  A    between atoms: N4_22  and  C17_23 
REMARK    6  A    between atoms: C17_23  and  C19_25 
REMARK    7  A    between atoms: C20_26  and  C21_27 
REMARK    8  A    between atoms: C21_27  and  N5_28 
ROOT
HETATM    1  C4  UNL     1      27.008   1.666  52.205  1.00  0.00     0.012 C 
HETATM    2  C5  UNL     1      26.041   0.930  52.784  1.00  0.00     0.036 A 
HETATM    3  C6  UNL     1      24.683   1.033  52.136  1.00  0.00     0.117 A 
HETATM    4  C7  UNL     1      23.655   0.301  52.900  1.00  0.00     0.037 A 
HETATM    5  C14 UNL     1      23.901  -0.437  53.946  1.00  0.00     0.085 A 
HETATM    6  C15 UNL     1      22.853  -1.148  54.671  1.00  0.00     0.103 C 
HETATM    7  N2  UNL     1      22.028  -1.698  55.257  1.00  0.00    -0.191 NA
HETATM    8  C16 UNL     1      25.243  -0.562  54.498  1.00  0.00     0.141 A 
HETATM    9  N3  UNL     1      26.151   0.091  53.908  1.00  0.00    -0.264 NA
ENDROOT
BRANCH   4  10
HETATM   10  N1  UNL     1      22.305   0.376  52.529  1.00  0.00    -0.358 N 
HETATM   11  H8  UNL     1      21.761  -0.229  53.177  1.00  0.00     0.166 HD
BRANCH  10  12
HETATM   12  C8  UNL     1      21.709   1.100  51.494  1.00  0.00     0.034 A 
HETATM   13  C9  UNL     1      21.446   0.584  50.244  1.00  0.00     0.032 A 
HETATM   14  C10 UNL     1      20.871   1.260  49.177  1.00  0.00     0.046 A 
HETATM   15  C11 UNL     1      20.536   2.576  49.409  1.00  0.00     0.138 A 
HETATM   16  F1  UNL     1      19.975   3.288  48.403  1.00  0.00    -0.204 F 
HETATM   17  C12 UNL     1      20.781   3.148  50.658  1.00  0.00     0.074 A 
HETATM   18 CL1  UNL     1      20.332   4.824  50.867  1.00  0.00    -0.081 Cl
HETATM   19  C13 UNL     1      21.355   2.436  51.685  1.00  0.00     0.056 A 
ENDBRANCH  10  12
ENDBRANCH   4  10
BRANCH   1  20
HETATM   20  C3  UNL     1      26.281   2.297  51.106  1.00  0.00     0.068 C 
HETATM   21  C2  UNL     1      26.302   3.397  50.314  1.00  0.00    -0.013 C 
HETATM   22  C1  UNL     1      25.198   3.405  49.344  1.00  0.00     0.064 C 
BRANCH  21  23
HETATM   23  N4  UNL     1      26.950   4.666  49.945  1.00  0.00    -0.389 N 
HETATM   24  H13 UNL     1      27.938   4.786  50.260  1.00  0.00     0.159 HD
BRANCH  23  25
HETATM   25  C17 UNL     1      26.133   5.620  49.172  1.00  0.00     0.100 C 
HETATM   26  C18 UNL     1      25.482   6.597  50.141  1.00  0.00     0.036 C 
BRANCH  25  27
HETATM   27  C19 UNL     1      27.117   6.326  48.306  1.00  0.00    -0.005 C 
HETATM   28  C20 UNL     1      28.423   6.086  48.296  1.00  0.00     0.001 C 
BRANCH  28  29
HETATM   29  C21 UNL     1      29.404   6.780  47.441  1.00  0.00     0.298 C 
BRANCH  29  30
HETATM   30  N5  UNL     1      30.426   7.443  48.177  1.00  0.00     0.083 N 
HETATM   31  C22 UNL     1      29.909   8.513  48.991  1.00  0.00     0.309 C 
HETATM   32  C23 UNL     1      31.293   6.622  48.953  1.00  0.00     0.309 C 
ENDBRANCH  29  30
ENDBRANCH  28  29
ENDBRANCH  25  27
ENDBRANCH  23  25
ENDBRANCH  21  23
ENDBRANCH   1  20
TORSDOF 8
ENDMDL
MODEL 7
REMARK VINA RESULT:      -8.0      1.628      2.102
REMARK  8 active torsions:
REMARK  status: ('A' for Active; 'I' for Inactive)
REMARK    1  A    between atoms: C2_2  and  N4_22 
REMARK    2  A    between atoms: C3_3  and  C4_4 
REMARK    3  A    between atoms: C7_7  and  N1_8 
REMARK    4  A    between atoms: N1_8  and  C8_9 
REMARK    5  A    between atoms: N4_22  and  C17_23 
REMARK    6  A    between atoms: C17_23  and  C19_25 
REMARK    7  A    between atoms: C20_26  and  C21_27 
REMARK    8  A    between atoms: C21_27  and  N5_28 
ROOT
HETATM    1  C4  UNL     1      23.412   4.652  49.917  1.00  0.00     0.012 C 
HETATM    2  C5  UNL     1      23.109   3.705  50.826  1.00  0.00     0.036 A 
HETATM    3  C6  UNL     1      24.240   2.772  51.179  1.00  0.00     0.117 A 
HETATM    4  C7  UNL     1      23.797   1.691  52.080  1.00  0.00     0.037 A 
HETATM    5  C14 UNL     1      22.604   1.609  52.600  1.00  0.00     0.085 A 
HETATM    6  C15 UNL     1      22.208   0.523  53.490  1.00  0.00     0.103 C 
HETATM    7  N2  UNL     1      21.885  -0.340  54.182  1.00  0.00    -0.191 NA
HETATM    8  C16 UNL     1      21.561   2.574  52.282  1.00  0.00     0.141 A 
HETATM    9  N3  UNL     1      21.877   3.490  51.471  1.00  0.00    -0.264 NA
ENDROOT
BRANCH   4  10
HETATM   10  N1  UNL     1      24.671   0.651  52.428  1.00  0.00    -0.358 N 
HETATM   11  H8  UNL     1      24.145  -0.243  52.361  1.00  0.00     0.166 HD
BRANCH  10  12
HETATM   12  C8  UNL     1      26.014   0.713  52.808  1.00  0.00     0.034 A 
HETATM   13  C9  UNL     1      26.662   1.875  53.164  1.00  0.00     0.032 A 
HETATM   14  C10 UNL     1      27.993   1.996  53.536  1.00  0.00     0.046 A 
HETATM   15  C11 UNL     1      28.724   0.827  53.545  1.00  0.00     0.138 A 
HETATM   16  F1  UNL     1      30.030   0.884  53.895  1.00  0.00    -0.204 F 
HETATM   17  C12 UNL     1      28.116  -0.378  53.192  1.00  0.00     0.074 A 
HETATM   18 CL1  UNL     1      29.114  -1.812  53.223  1.00  0.00    -0.081 Cl
HETATM   19  C13 UNL     1      26.790  -0.446  52.830  1.00  0.00     0.056 A 
ENDBRANCH  10  12
ENDBRANCH   4  10
BRANCH   1  20
HETATM   20  C3  UNL     1      24.815   4.358  49.641  1.00  0.00     0.068 C 
HETATM   21  C2  UNL     1      26.006   4.972  49.431  1.00  0.00    -0.013 C 
HETATM   22  C1  UNL     1      27.094   4.011  49.197  1.00  0.00     0.064 C 
BRANCH  21  23
HETATM   23  N4  UNL     1      26.770   6.225  49.320  1.00  0.00    -0.389 N 
HETATM   24  H13 UNL     1      27.434   6.428  50.100  1.00  0.00     0.159 HD
BRANCH  23  25
HETATM   25  C17 UNL     1      26.514   7.047  48.123  1.00  0.00     0.100 C 
HETATM   26  C18 UNL     1      25.703   8.266  48.536  1.00  0.00     0.036 C 
BRANCH  25  27
HETATM   27  C19 UNL     1      27.870   7.457  47.664  1.00  0.00    -0.005 C 
HETATM   28  C20 UNL     1      29.004   7.130  48.273  1.00  0.00     0.001 C 
BRANCH  28  29
HETATM   29  C21 UNL     1      30.351   7.532  47.826  1.00  0.00     0.298 C 
BRANCH  29  30
HETATM   30  N5  UNL     1      31.070   8.280  48.799  1.00  0.00     0.083 N 
HETATM   31  C22 UNL     1      32.397   7.763  49.020  1.00  0.00     0.309 C 
HETATM   32  C23 UNL     1      31.129   9.691  48.607  1.00  0.00     0.309 C 
ENDBRANCH  29  30
ENDBRANCH  28  29
ENDBRANCH  25  27
ENDBRANCH  23  25
ENDBRANCH  21  23
ENDBRANCH   1  20
TORSDOF 8
ENDMDL
MODEL 8
REMARK VINA RESULT:      -8.0      1.741      2.699
REMARK  8 active torsions:
REMARK  status: ('A' for Active; 'I' for Inactive)
REMARK    1  A    between atoms: C2_2  and  N4_22 
REMARK    2  A    between atoms: C3_3  and  C4_4 
REMARK    3  A    between atoms: C7_7  and  N1_8 
REMARK    4  A    between atoms: N1_8  and  C8_9 
REMARK    5  A    between atoms: N4_22  and  C17_23 
REMARK    6  A    between atoms: C17_23  and  C19_25 
REMARK    7  A    between atoms: C20_26  and  C21_27 
REMARK    8  A    between atoms: C21_27  and  N5_28 
ROOT
HETATM    1  C4  UNL     1      24.448   5.990  50.088  1.00  0.00     0.012 C 
HETATM    2  C5  UNL     1      24.021   4.948  50.826  1.00  0.00     0.036 A 
HETATM    3  C6  UNL     1      24.899   3.723  50.774  1.00  0.00     0.117 A 
HETATM    4  C7  UNL     1      24.301   2.588  51.503  1.00  0.00     0.037 A 
HETATM    5  C14 UNL     1      23.203   2.659  52.202  1.00  0.00     0.085 A 
HETATM    6  C15 UNL     1      22.648   1.511  52.912  1.00  0.00     0.103 C 
HETATM    7  N2  UNL     1      22.196   0.605  53.461  1.00  0.00    -0.191 NA
HETATM    8  C16 UNL     1      22.422   3.885  52.280  1.00  0.00     0.141 A 
HETATM    9  N3  UNL     1      22.866   4.872  51.627  1.00  0.00    -0.264 NA
ENDROOT
BRANCH   4  10
HETATM   10  N1  UNL     1      24.905   1.323  51.469  1.00  0.00    -0.358 N 
HETATM   11  H8  UNL     1      24.349   0.721  50.829  1.00  0.00     0.166 HD
BRANCH  10  12
HETATM   12  C8  UNL     1      26.042   0.866  52.139  1.00  0.00     0.034 A 
HETATM   13  C9  UNL     1      26.342  -0.465  52.329  1.00  0.00     0.032 A 
HETATM   14  C10 UNL     1      27.448  -0.974  52.996  1.00  0.00     0.046 A 
HETATM   15  C11 UNL     1      28.320  -0.042  53.514  1.00  0.00     0.138 A 
HETATM   16  F1  UNL     1      29.415  -0.479  54.179  1.00  0.00    -0.204 F 
HETATM   17  C12 UNL     1      28.063   1.320  53.350  1.00  0.00     0.074 A 
HETATM   18 CL1  UNL     1      29.215   2.437  54.042  1.00  0.00    -0.081 Cl
HETATM   19  C13 UNL     1      26.951   1.775  52.679  1.00  0.00     0.056 A 
ENDBRANCH  10  12
ENDBRANCH   4  10
BRANCH   1  20
HETATM   20  C3  UNL     1      25.678   5.457  49.509  1.00  0.00     0.068 C 
HETATM   21  C2  UNL     1      26.910   5.843  49.096  1.00  0.00    -0.013 C 
HETATM   22  C1  UNL     1      27.704   4.718  48.581  1.00  0.00     0.064 C 
BRANCH  21  23
HETATM   23  N4  UNL     1      27.889   6.926  48.908  1.00  0.00    -0.389 N 
HETATM   24  H13 UNL     1      28.037   7.559  49.726  1.00  0.00     0.159 HD
BRANCH  23  25
HETATM   25  C17 UNL     1      28.548   6.995  47.590  1.00  0.00     0.100 C 
HETATM   26  C18 UNL     1      27.887   8.096  46.774  1.00  0.00     0.036 C 
BRANCH  25  27
HETATM   27  C19 UNL     1      29.957   7.358  47.905  1.00  0.00    -0.005 C 
HETATM   28  C20 UNL     1      30.661   6.849  48.909  1.00  0.00     0.001 C 
BRANCH  28  29
HETATM   29  C21 UNL     1      32.058   7.201  49.227  1.00  0.00     0.298 C 
BRANCH  29  30
HETATM   30  N5  UNL     1      32.918   7.185  48.094  1.00  0.00     0.083 N 
HETATM   31  C22 UNL     1      33.902   8.236  48.135  1.00  0.00     0.309 C 
HETATM   32  C23 UNL     1      33.549   5.945  47.786  1.00  0.00     0.309 C 
ENDBRANCH  29  30
ENDBRANCH  28  29
ENDBRANCH  25  27
ENDBRANCH  23  25
ENDBRANCH  21  23
ENDBRANCH   1  20
TORSDOF 8
ENDMDL
MODEL 9
REMARK VINA RESULT:      -7.9      2.710      4.300
REMARK  8 active torsions:
REMARK  status: ('A' for Active; 'I' for Inactive)
REMARK    1  A    between atoms: C2_2  and  N4_22 
REMARK    2  A    between atoms: C3_3  and  C4_4 
REMARK    3  A    between atoms: C7_7  and  N1_8 
REMARK    4  A    between atoms: N1_8  and  C8_9 
REMARK    5  A    between atoms: N4_22  and  C17_23 
REMARK    6  A    between atoms: C17_23  and  C19_25 
REMARK    7  A    between atoms: C20_26  and  C21_27 
REMARK    8  A    between atoms: C21_27  and  N5_28 
ROOT
HETATM    1  C4  UNL     1      24.597   7.092  49.715  1.00  0.00     0.012 C 
HETATM    2  C5  UNL     1      23.613   6.354  50.262  1.00  0.00     0.036 A 
HETATM    3  C6  UNL     1      23.882   4.871  50.323  1.00  0.00     0.117 A 
HETATM    4  C7  UNL     1      22.712   4.122  50.816  1.00  0.00     0.037 A 
HETATM    5  C14 UNL     1      21.614   4.674  51.253  1.00  0.00     0.085 A 
HETATM    6  C15 UNL     1      20.480   3.894  51.736  1.00  0.00     0.103 C 
HETATM    7  N2  UNL     1      19.575   3.283  52.105  1.00  0.00    -0.191 NA
HETATM    8  C16 UNL     1      21.425   6.118  51.239  1.00  0.00     0.141 A 
HETATM    9  N3  UNL     1      22.381   6.802  50.774  1.00  0.00    -0.264 NA
ENDROOT
BRANCH   4  10
HETATM   10  N1  UNL     1      22.719   2.719  50.831  1.00  0.00    -0.358 N 
HETATM   11  H8  UNL     1      22.065   2.389  50.092  1.00  0.00     0.166 HD
BRANCH  10  12
HETATM   12  C8  UNL     1      23.437   1.846  51.650  1.00  0.00     0.034 A 
HETATM   13  C9  UNL     1      24.807   1.701  51.609  1.00  0.00     0.032 A 
HETATM   14  C10 UNL     1      25.569   0.841  52.388  1.00  0.00     0.046 A 
HETATM   15  C11 UNL     1      24.870   0.064  53.285  1.00  0.00     0.138 A 
HETATM   16  F1  UNL     1      25.560  -0.797  54.069  1.00  0.00    -0.204 F 
HETATM   17  C12 UNL     1      23.481   0.171  53.368  1.00  0.00     0.074 A 
HETATM   18 CL1  UNL     1      22.671  -0.855  54.527  1.00  0.00    -0.081 Cl
HETATM   19  C13 UNL     1      22.770   1.039  52.572  1.00  0.00     0.056 A 
ENDBRANCH  10  12
ENDBRANCH   4  10
BRANCH   1  20
HETATM   20  C3  UNL     1      25.588   6.069  49.392  1.00  0.00     0.068 C 
HETATM   21  C2  UNL     1      26.912   5.917  49.138  1.00  0.00    -0.013 C 
HETATM   22  C1  UNL     1      27.270   4.517  48.871  1.00  0.00     0.064 C 
BRANCH  21  23
HETATM   23  N4  UNL     1      28.241   6.532  48.996  1.00  0.00    -0.389 N 
HETATM   24  H13 UNL     1      28.586   7.076  49.818  1.00  0.00     0.159 HD
BRANCH  23  25
HETATM   25  C17 UNL     1      28.935   6.309  47.714  1.00  0.00     0.100 C 
HETATM   26  C18 UNL     1      28.813   7.570  46.871  1.00  0.00     0.036 C 
BRANCH  25  27
HETATM   27  C19 UNL     1      30.354   6.079  48.100  1.00  0.00    -0.005 C 
HETATM   28  C20 UNL     1      31.096   5.062  47.677  1.00  0.00     0.001 C 
BRANCH  28  29
HETATM   29  C21 UNL     1      32.503   4.826  48.054  1.00  0.00     0.298 C 
BRANCH  29  30
HETATM   30  N5  UNL     1      33.186   3.948  47.167  1.00  0.00     0.083 N 
HETATM   31  C22 UNL     1      33.272   2.605  47.681  1.00  0.00     0.309 C 
HETATM   32  C23 UNL     1      32.732   3.920  45.818  1.00  0.00     0.309 C 
ENDBRANCH  29  30
ENDBRANCH  28  29
ENDBRANCH  25  27
ENDBRANCH  23  25
ENDBRANCH  21  23
ENDBRANCH   1  20
TORSDOF 8
ENDMDL
