MODEL 1
REMARK VINA RESULT:      -8.8      0.000      0.000
REMARK  5 active torsions:
REMARK  status: ('A' for Active; 'I' for Inactive)
REMARK       I    between atoms: C1_2  and  N1_3 
REMARK       I    between atoms: C1_2  and  N3_11 
REMARK    1  A    between atoms: N1_3  and  C2_4 
REMARK    2  A    between atoms: N3_11  and  C8_12 
REMARK    3  A    between atoms: N3_11  and  C15_21 
REMARK    4  A    between atoms: C8_12  and  C9_13 
REMARK    5  A    between atoms: C14_19  and  O2_20 
ROOT
HETATM    1  O1  UNL     1      23.648  -0.970  53.802  1.00  0.00    -0.246 OA
HETATM    2  C1  UNL     1      24.133   0.182  53.630  1.00  0.00     0.327 C 
HETATM    3  N1  UNL     1      22.924   0.870  53.376  1.00  0.00    -0.318 N 
HETATM    4  N3  UNL     1      25.384   0.903  53.616  1.00  0.00    -0.296 N 
HETATM    5  H1  UNL     1      22.860   1.877  53.156  1.00  0.00     0.170 HD
ENDROOT
BRANCH   4   6
HETATM    6  C8  UNL     1      25.416   2.328  53.414  1.00  0.00     0.175 C 
BRANCH   6   7
HETATM    7  C9  UNL     1      25.296   2.804  52.024  1.00  0.00    -0.005 A 
HETATM    8  C10 UNL     1      26.414   2.679  51.177  1.00  0.00     0.012 A 
HETATM    9  C11 UNL     1      26.511   3.079  49.860  1.00  0.00     0.002 A 
HETATM   10  C12 UNL     1      25.407   3.675  49.270  1.00  0.00     0.022 A 
HETATM   11  C13 UNL     1      24.278   3.828  50.044  1.00  0.00     0.044 A 
HETATM   12 BR1  UNL     1      22.755   4.645  49.240  1.00  0.00    -0.048 Br
HETATM   13  C14 UNL     1      24.290   3.395  51.342  1.00  0.00     0.090 A 
BRANCH  13  14
HETATM   14  O2  UNL     1      23.104   3.612  51.989  1.00  0.00    -0.359 OA
HETATM   15  H13 UNL     1      23.133   4.186  52.829  1.00  0.00     0.217 HD
ENDBRANCH  13  14
ENDBRANCH   6   7
ENDBRANCH   4   6
BRANCH   4  16
HETATM   16  C15 UNL     1      26.603   0.172  53.746  1.00  0.00     0.054 C 
HETATM   17  C16 UNL     1      27.207  -0.600  52.858  1.00  0.00     0.120 C 
HETATM   18  F1  UNL     1      26.711  -0.814  51.617  1.00  0.00    -0.208 F 
HETATM   19  C17 UNL     1      28.488  -1.291  53.159  1.00  0.00     0.099 C 
HETATM   20  C18 UNL     1      29.523  -0.299  53.567  1.00  0.00    -0.024 C 
HETATM   21  C19 UNL     1      28.951   0.454  54.500  1.00  0.00    -0.024 C 
HETATM   22  C20 UNL     1      27.540   0.138  54.868  1.00  0.00     0.087 C 
ENDBRANCH   4  16
BRANCH   3  23
HETATM   23  C2  UNL     1      21.609   0.345  53.348  1.00  0.00     0.101 C 
HETATM   24  C3  UNL     1      20.734   0.411  52.362  1.00  0.00    -0.023 A 
HETATM   25  C4  UNL     1      21.030   1.076  51.101  1.00  0.00     0.011 A 
HETATM   26  C7  UNL     1      19.396  -0.183  52.476  1.00  0.00     0.188 A 
HETATM   27  C5  UNL     1      20.182   1.171  50.077  1.00  0.00     0.019 A 
HETATM   28  C6  UNL     1      18.873   0.573  50.227  1.00  0.00     0.110 A 
HETATM   29  N2  UNL     1      18.589  -0.012  51.314  1.00  0.00    -0.297 NA
ENDBRANCH   3  23
TORSDOF 5
ENDMDL
MODEL 2
REMARK VINA RESULT:      -8.6      1.607      2.082
REMARK  5 active torsions:
REMARK  status: ('A' for Active; 'I' for Inactive)
REMARK       I    between atoms: C1_2  and  N1_3 
REMARK       I    between atoms: C1_2  and  N3_11 
REMARK    1  A    between atoms: N1_3  and  C2_4 
REMARK    2  A    between atoms: N3_11  and  C8_12 
REMARK    3  A    between atoms: N3_11  and  C15_21 
REMARK    4  A    between atoms: C8_12  and  C9_13 
REMARK    5  A    between atoms: C14_19  and  O2_20 
ROOT
HETATM    1  O1  UNL     1      23.341  -1.258  53.474  1.00  0.00    -0.246 OA
HETATM    2  C1  UNL     1      23.748  -0.067  53.380  1.00  0.00     0.327 C 
HETATM    3  N1  UNL     1      22.493   0.577  53.477  1.00  0.00    -0.318 N 
HETATM    4  N3  UNL     1      24.947   0.720  53.220  1.00  0.00    -0.296 N 
HETATM    5  H1  UNL     1      22.356   1.600  53.425  1.00  0.00     0.170 HD
ENDROOT
BRANCH   4   6
HETATM    6  C8  UNL     1      24.896   2.158  53.227  1.00  0.00     0.175 C 
BRANCH   6   7
HETATM    7  C9  UNL     1      24.890   2.828  51.915  1.00  0.00    -0.005 A 
HETATM    8  C10 UNL     1      23.650   3.061  51.289  1.00  0.00     0.012 A 
HETATM    9  C11 UNL     1      23.433   3.650  50.061  1.00  0.00     0.002 A 
HETATM   10  C12 UNL     1      24.533   4.073  49.330  1.00  0.00     0.022 A 
HETATM   11  C13 UNL     1      25.778   3.876  49.885  1.00  0.00     0.044 A 
HETATM   12 BR1  UNL     1      27.295   4.456  48.887  1.00  0.00    -0.048 Br
HETATM   13  C14 UNL     1      25.880   3.280  51.112  1.00  0.00     0.090 A 
BRANCH  13  14
HETATM   14  O2  UNL     1      27.174   3.147  51.537  1.00  0.00    -0.359 OA
HETATM   15  H13 UNL     1      27.597   2.225  51.452  1.00  0.00     0.217 HD
ENDBRANCH  13  14
ENDBRANCH   6   7
ENDBRANCH   4   6
BRANCH   4  16
HETATM   16  C15 UNL     1      26.187   0.050  52.994  1.00  0.00     0.054 C 
HETATM   17  C16 UNL     1      27.258   0.002  53.769  1.00  0.00     0.120 C 
HETATM   18  F1  UNL     1      27.323   0.629  54.967  1.00  0.00    -0.208 F 
HETATM   19  C17 UNL     1      28.478  -0.754  53.379  1.00  0.00     0.099 C 
HETATM   20  C18 UNL     1      28.134  -2.181  53.116  1.00  0.00    -0.024 C 
HETATM   21  C19 UNL     1      27.091  -2.153  52.294  1.00  0.00    -0.024 C 
HETATM   22  C20 UNL     1      26.576  -0.814  51.881  1.00  0.00     0.087 C 
ENDBRANCH   4  16
BRANCH   3  23
HETATM   23  C2  UNL     1      21.216  -0.014  53.637  1.00  0.00     0.101 C 
HETATM   24  C3  UNL     1      20.212  -0.011  52.781  1.00  0.00    -0.023 A 
HETATM   25  C4  UNL     1      20.297   0.643  51.483  1.00  0.00     0.011 A 
HETATM   26  C7  UNL     1      18.935  -0.671  53.085  1.00  0.00     0.188 A 
HETATM   27  C5  UNL     1      19.313   0.675  50.584  1.00  0.00     0.019 A 
HETATM   28  C6  UNL     1      18.070   0.014  50.920  1.00  0.00     0.110 A 
HETATM   29  N2  UNL     1      17.969  -0.563  52.044  1.00  0.00    -0.297 NA
ENDBRANCH   3  23
TORSDOF 5
ENDMDL
MODEL 3
REMARK VINA RESULT:      -8.6      2.775      5.230
REMARK  5 active torsions:
REMARK  status: ('A' for Active; 'I' for Inactive)
REMARK       I    between atoms: C1_2  and  N1_3 
REMARK       I    between atoms: C1_2  and  N3_11 
REMARK    1  A    between atoms: N1_3  and  C2_4 
REMARK    2  A    between atoms: N3_11  and  C8_12 
REMARK    3  A    between atoms: N3_11  and  C15_21 
REMARK    4  A    between atoms: C8_12  and  C9_13 
REMARK    5  A    between atoms: C14_19  and  O2_20 
ROOT
HETATM    1  O1  UNL     1      27.222   2.863  50.597  1.00  0.00    -0.246 OA
HETATM    2  C1  UNL     1      26.332   2.730  51.482  1.00  0.00     0.327 C 
HETATM    3  N1  UNL     1      25.474   3.771  51.056  1.00  0.00    -0.318 N 
HETATM    4  N3  UNL     1      25.983   1.941  52.640  1.00  0.00    -0.296 N 
HETATM    5  H1  UNL     1      24.596   4.034  51.532  1.00  0.00     0.170 HD
ENDROOT
BRANCH   4   6
HETATM    6  C8  UNL     1      24.738   2.151  53.331  1.00  0.00     0.175 C 
BRANCH   6   7
HETATM    7  C9  UNL     1      23.585   1.354  52.877  1.00  0.00    -0.005 A 
HETATM    8  C10 UNL     1      23.350   0.109  53.491  1.00  0.00     0.012 A 
HETATM    9  C11 UNL     1      22.344  -0.789  53.198  1.00  0.00     0.002 A 
HETATM   10  C12 UNL     1      21.445  -0.466  52.193  1.00  0.00     0.022 A 
HETATM   11  C13 UNL     1      21.618   0.740  51.550  1.00  0.00     0.044 A 
HETATM   12 BR1  UNL     1      20.385   1.192  50.168  1.00  0.00    -0.048 Br
HETATM   13  C14 UNL     1      22.651   1.557  51.920  1.00  0.00     0.090 A 
BRANCH  13  14
HETATM   14  O2  UNL     1      22.701   2.717  51.197  1.00  0.00    -0.359 OA
HETATM   15  H13 UNL     1      22.416   3.572  51.671  1.00  0.00     0.217 HD
ENDBRANCH  13  14
ENDBRANCH   6   7
ENDBRANCH   4   6
BRANCH   4  16
HETATM   16  C15 UNL     1      26.920   0.983  53.130  1.00  0.00     0.054 C 
HETATM   17  C16 UNL     1      27.244  -0.195  52.625  1.00  0.00     0.120 C 
HETATM   18  F1  UNL     1      26.688  -0.684  51.492  1.00  0.00    -0.208 F 
HETATM   19  C17 UNL     1      28.255  -1.075  53.268  1.00  0.00     0.099 C 
HETATM   20  C18 UNL     1      29.551  -0.352  53.407  1.00  0.00    -0.024 C 
HETATM   21  C19 UNL     1      29.252   0.816  53.963  1.00  0.00    -0.024 C 
HETATM   22  C20 UNL     1      27.818   1.080  54.280  1.00  0.00     0.087 C 
ENDBRANCH   4  16
BRANCH   3  23
HETATM   23  C2  UNL     1      25.639   4.645  49.955  1.00  0.00     0.101 C 
HETATM   24  C3  UNL     1      25.178   5.874  49.823  1.00  0.00    -0.023 A 
HETATM   25  C4  UNL     1      24.390   6.526  50.860  1.00  0.00     0.011 A 
HETATM   26  C7  UNL     1      25.430   6.669  48.614  1.00  0.00     0.188 A 
HETATM   27  C5  UNL     1      23.900   7.763  50.776  1.00  0.00     0.019 A 
HETATM   28  C6  UNL     1      24.169   8.514  49.569  1.00  0.00     0.110 A 
HETATM   29  N2  UNL     1      24.853   7.971  48.651  1.00  0.00    -0.297 NA
ENDBRANCH   3  23
TORSDOF 5
ENDMDL
MODEL 4
REMARK VINA RESULT:      -8.4      2.775      4.718
REMARK  5 active torsions:
REMARK  status: ('A' for Active; 'I' for Inactive)
REMARK       I    between atoms: C1_2  and  N1_3 
REMARK       I    between atoms: C1_2  and  N3_11 
REMARK    1  A    between atoms: N1_3  and  C2_4 
REMARK    2  A    between atoms: N3_11  and  C8_12 
REMARK    3  A    between atoms: N3_11  and  C15_21 
REMARK    4  A    between atoms: C8_12  and  C9_13 
REMARK    5  A    between atoms: C14_19  and  O2_20 
ROOT
HETATM    1  O1  UNL     1      26.789   3.448  50.230  1.00  0.00    -0.246 OA
HETATM    2  C1  UNL     1      26.137   3.186  51.278  1.00  0.00     0.327 C 
HETATM    3  N1  UNL     1      25.130   4.169  51.133  1.00  0.00    -0.318 N 
HETATM    4  N3  UNL     1      26.120   2.306  52.422  1.00  0.00    -0.296 N 
HETATM    5  H1  UNL     1      24.366   4.326  51.811  1.00  0.00     0.170 HD
ENDROOT
BRANCH   4   6
HETATM    6  C8  UNL     1      25.054   2.365  53.387  1.00  0.00     0.175 C 
BRANCH   6   7
HETATM    7  C9  UNL     1      23.842   1.582  53.085  1.00  0.00    -0.005 A 
HETATM    8  C10 UNL     1      23.850   0.203  53.370  1.00  0.00     0.012 A 
HETATM    9  C11 UNL     1      22.833  -0.701  53.145  1.00  0.00     0.002 A 
HETATM   10  C12 UNL     1      21.656  -0.239  52.576  1.00  0.00     0.022 A 
HETATM   11  C13 UNL     1      21.581   1.102  52.272  1.00  0.00     0.044 A 
HETATM   12 BR1  UNL     1      19.966   1.744  51.490  1.00  0.00    -0.048 Br
HETATM   13  C14 UNL     1      22.651   1.912  52.537  1.00  0.00     0.090 A 
BRANCH  13  14
HETATM   14  O2  UNL     1      22.437   3.215  52.182  1.00  0.00    -0.359 OA
HETATM   15  H13 UNL     1      22.822   3.932  52.794  1.00  0.00     0.217 HD
ENDBRANCH  13  14
ENDBRANCH   6   7
ENDBRANCH   4   6
BRANCH   4  16
HETATM   16  C15 UNL     1      27.213   1.409  52.619  1.00  0.00     0.054 C 
HETATM   17  C16 UNL     1      28.361   1.623  53.239  1.00  0.00     0.120 C 
HETATM   18  F1  UNL     1      28.674   2.809  53.811  1.00  0.00    -0.208 F 
HETATM   19  C17 UNL     1      29.400   0.566  53.358  1.00  0.00     0.099 C 
HETATM   20  C18 UNL     1      28.829  -0.642  54.020  1.00  0.00    -0.024 C 
HETATM   21  C19 UNL     1      27.699  -0.905  53.375  1.00  0.00    -0.024 C 
HETATM   22  C20 UNL     1      27.324  -0.001  52.248  1.00  0.00     0.087 C 
ENDBRANCH   4  16
BRANCH   3  23
HETATM   23  C2  UNL     1      24.975   5.115  50.092  1.00  0.00     0.101 C 
HETATM   24  C3  UNL     1      24.100   5.093  49.104  1.00  0.00    -0.023 A 
HETATM   25  C4  UNL     1      23.124   4.024  48.952  1.00  0.00     0.011 A 
HETATM   26  C7  UNL     1      24.056   6.152  48.087  1.00  0.00     0.188 A 
HETATM   27  C5  UNL     1      22.221   3.954  47.974  1.00  0.00     0.019 A 
HETATM   28  C6  UNL     1      22.209   5.016  46.991  1.00  0.00     0.110 A 
HETATM   29  N2  UNL     1      23.048   5.959  47.099  1.00  0.00    -0.297 NA
ENDBRANCH   3  23
TORSDOF 5
ENDMDL
MODEL 5
REMARK VINA RESULT:      -8.2      3.159      6.688
REMARK  5 active torsions:
REMARK  status: ('A' for Active; 'I' for Inactive)
REMARK       I    between atoms: C1_2  and  N1_3 
REMARK       I    between atoms: C1_2  and  N3_11 
REMARK    1  A    between atoms: N1_3  and  C2_4 
REMARK    2  A    between atoms: N3_11  and  C8_12 
REMARK    3  A    between atoms: N3_11  and  C15_21 
REMARK    4  A    between atoms: C8_12  and  C9_13 
REMARK    5  A    between atoms: C14_19  and  O2_20 
ROOT
HETATM    1  O1  UNL     1      22.023   4.361  52.274  1.00  0.00    -0.246 OA
HETATM    2  C1  UNL     1      22.703   3.339  51.982  1.00  0.00     0.327 C 
HETATM    3  N1  UNL     1      23.799   3.999  51.378  1.00  0.00    -0.318 N 
HETATM    4  N3  UNL     1      22.692   1.898  52.067  1.00  0.00    -0.296 N 
HETATM    5  H1  UNL     1      24.614   3.517  50.964  1.00  0.00     0.170 HD
ENDROOT
BRANCH   4   6
HETATM    6  C8  UNL     1      23.813   1.120  51.608  1.00  0.00     0.175 C 
BRANCH   6   7
HETATM    7  C9  UNL     1      24.923   0.933  52.559  1.00  0.00    -0.005 A 
HETATM    8  C10 UNL     1      24.805  -0.074  53.535  1.00  0.00     0.012 A 
HETATM    9  C11 UNL     1      25.716  -0.392  54.520  1.00  0.00     0.002 A 
HETATM   10  C12 UNL     1      26.892   0.339  54.591  1.00  0.00     0.022 A 
HETATM   11  C13 UNL     1      27.073   1.342  53.663  1.00  0.00     0.044 A 
HETATM   12 BR1  UNL     1      28.687   2.351  53.753  1.00  0.00    -0.048 Br
HETATM   13  C14 UNL     1      26.102   1.574  52.727  1.00  0.00     0.090 A 
BRANCH  13  14
HETATM   14  O2  UNL     1      26.415   2.598  51.875  1.00  0.00    -0.359 OA
HETATM   15  H13 UNL     1      26.461   2.377  50.883  1.00  0.00     0.217 HD
ENDBRANCH  13  14
ENDBRANCH   6   7
ENDBRANCH   4   6
BRANCH   4  16
HETATM   16  C15 UNL     1      21.523   1.245  52.560  1.00  0.00     0.054 C 
HETATM   17  C16 UNL     1      20.577   0.614  51.885  1.00  0.00     0.120 C 
HETATM   18  F1  UNL     1      20.595   0.496  50.536  1.00  0.00    -0.208 F 
HETATM   19  C17 UNL     1      19.417  -0.021  52.563  1.00  0.00     0.099 C 
HETATM   20  C18 UNL     1      19.891  -1.013  53.570  1.00  0.00    -0.024 C 
HETATM   21  C19 UNL     1      20.806  -0.380  54.294  1.00  0.00    -0.024 C 
HETATM   22  C20 UNL     1      21.098   1.042  53.944  1.00  0.00     0.087 C 
ENDBRANCH   4  16
BRANCH   3  23
HETATM   23  C2  UNL     1      23.994   5.390  51.203  1.00  0.00     0.101 C 
HETATM   24  C3  UNL     1      24.873   5.991  50.424  1.00  0.00    -0.023 A 
HETATM   25  C4  UNL     1      25.812   5.250  49.594  1.00  0.00     0.011 A 
HETATM   26  C7  UNL     1      24.961   7.455  50.343  1.00  0.00     0.188 A 
HETATM   27  C5  UNL     1      26.719   5.808  48.791  1.00  0.00     0.019 A 
HETATM   28  C6  UNL     1      26.775   7.253  48.739  1.00  0.00     0.110 A 
HETATM   29  N2  UNL     1      25.968   7.922  49.451  1.00  0.00    -0.297 NA
ENDBRANCH   3  23
TORSDOF 5
ENDMDL
MODEL 6
REMARK VINA RESULT:      -8.2      3.217      6.372
REMARK  5 active torsions:
REMARK  status: ('A' for Active; 'I' for Inactive)
REMARK       I    between atoms: C1_2  and  N1_3 
REMARK       I    between atoms: C1_2  and  N3_11 
REMARK    1  A    between atoms: N1_3  and  C2_4 
REMARK    2  A    between atoms: N3_11  and  C8_12 
REMARK    3  A    between atoms: N3_11  and  C15_21 
REMARK    4  A    between atoms: C8_12  and  C9_13 
REMARK    5  A    between atoms: C14_19  and  O2_20 
ROOT
HETATM    1  O1  UNL     1      23.030   3.787  52.653  1.00  0.00    -0.246 OA
HETATM    2  C1  UNL     1      23.810   2.940  52.137  1.00  0.00     0.327 C 
HETATM    3  N1  UNL     1      24.586   3.834  51.363  1.00  0.00    -0.318 N 
HETATM    4  N3  UNL     1      24.100   1.526  52.104  1.00  0.00    -0.296 N 
HETATM    5  H1  UNL     1      25.360   3.548  50.742  1.00  0.00     0.170 HD
ENDROOT
BRANCH   4   6
HETATM    6  C8  UNL     1      25.214   1.016  51.349  1.00  0.00     0.175 C 
BRANCH   6   7
HETATM    7  C9  UNL     1      26.410   0.622  52.115  1.00  0.00    -0.005 A 
HETATM    8  C10 UNL     1      26.710  -0.749  52.228  1.00  0.00     0.012 A 
HETATM    9  C11 UNL     1      27.763  -1.318  52.913  1.00  0.00     0.002 A 
HETATM   10  C12 UNL     1      28.646  -0.481  53.578  1.00  0.00     0.022 A 
HETATM   11  C13 UNL     1      28.410   0.874  53.508  1.00  0.00     0.044 A 
HETATM   12 BR1  UNL     1      29.620   2.032  54.418  1.00  0.00    -0.048 Br
HETATM   13  C14 UNL     1      27.334   1.334  52.800  1.00  0.00     0.090 A 
BRANCH  13  14
HETATM   14  O2  UNL     1      27.223   2.697  52.819  1.00  0.00    -0.359 OA
HETATM   15  H13 UNL     1      27.987   3.218  53.243  1.00  0.00     0.217 HD
ENDBRANCH  13  14
ENDBRANCH   6   7
ENDBRANCH   4   6
BRANCH   4  16
HETATM   16  C15 UNL     1      23.227   0.627  52.788  1.00  0.00     0.054 C 
HETATM   17  C16 UNL     1      23.465  -0.102  53.865  1.00  0.00     0.120 C 
HETATM   18  F1  UNL     1      24.655  -0.090  54.509  1.00  0.00    -0.208 F 
HETATM   19  C17 UNL     1      22.431  -0.993  54.456  1.00  0.00     0.099 C 
HETATM   20  C18 UNL     1      21.208  -0.208  54.789  1.00  0.00    -0.024 C 
HETATM   21  C19 UNL     1      20.922   0.492  53.698  1.00  0.00    -0.024 C 
HETATM   22  C20 UNL     1      21.822   0.326  52.519  1.00  0.00     0.087 C 
ENDBRANCH   4  16
BRANCH   3  23
HETATM   23  C2  UNL     1      24.460   5.241  51.264  1.00  0.00     0.101 C 
HETATM   24  C3  UNL     1      25.079   6.050  50.425  1.00  0.00    -0.023 A 
HETATM   25  C4  UNL     1      26.031   5.566  49.435  1.00  0.00     0.011 A 
HETATM   26  C7  UNL     1      24.847   7.500  50.437  1.00  0.00     0.188 A 
HETATM   27  C5  UNL     1      26.682   6.340  48.568  1.00  0.00     0.019 A 
HETATM   28  C6  UNL     1      26.428   7.764  48.611  1.00  0.00     0.110 A 
HETATM   29  N2  UNL     1      25.603   8.212  49.462  1.00  0.00    -0.297 NA
ENDBRANCH   3  23
TORSDOF 5
ENDMDL
MODEL 7
REMARK VINA RESULT:      -8.0      2.830      6.641
REMARK  5 active torsions:
REMARK  status: ('A' for Active; 'I' for Inactive)
REMARK       I    between atoms: C1_2  and  N1_3 
REMARK       I    between atoms: C1_2  and  N3_11 
REMARK    1  A    between atoms: N1_3  and  C2_4 
REMARK    2  A    between atoms: N3_11  and  C8_12 
REMARK    3  A    between atoms: N3_11  and  C15_21 
REMARK    4  A    between atoms: C8_12  and  C9_13 
REMARK    5  A    between atoms: C14_19  and  O2_20 
ROOT
HETATM    1  O1  UNL     1      27.491   2.574  51.627  1.00  0.00    -0.246 OA
HETATM    2  C1  UNL     1      26.341   2.652  52.140  1.00  0.00     0.327 C 
HETATM    3  N1  UNL     1      26.560   1.798  53.245  1.00  0.00    -0.318 N 
HETATM    4  N3  UNL     1      25.048   3.268  51.955  1.00  0.00    -0.296 N 
HETATM    5  H1  UNL     1      25.842   1.556  53.947  1.00  0.00     0.170 HD
ENDROOT
BRANCH   4   6
HETATM    6  C8  UNL     1      23.994   3.081  52.917  1.00  0.00     0.175 C 
BRANCH   6   7
HETATM    7  C9  UNL     1      23.074   1.954  52.684  1.00  0.00    -0.005 A 
HETATM    8  C10 UNL     1      23.455   0.676  53.137  1.00  0.00     0.012 A 
HETATM    9  C11 UNL     1      22.750  -0.501  52.999  1.00  0.00     0.002 A 
HETATM   10  C12 UNL     1      21.527  -0.465  52.347  1.00  0.00     0.022 A 
HETATM   11  C13 UNL     1      21.094   0.756  51.878  1.00  0.00     0.044 A 
HETATM   12 BR1  UNL     1      19.413   0.815  50.982  1.00  0.00    -0.048 Br
HETATM   13  C14 UNL     1      21.873   1.864  52.069  1.00  0.00     0.090 A 
BRANCH  13  14
HETATM   14  O2  UNL     1      21.320   3.003  51.551  1.00  0.00    -0.359 OA
HETATM   15  H13 UNL     1      20.324   3.145  51.702  1.00  0.00     0.217 HD
ENDBRANCH  13  14
ENDBRANCH   6   7
ENDBRANCH   4   6
BRANCH   4  16
HETATM   16  C15 UNL     1      24.806   4.021  50.767  1.00  0.00     0.054 C 
HETATM   17  C16 UNL     1      23.995   5.050  50.588  1.00  0.00     0.120 C 
HETATM   18  F1  UNL     1      23.231   5.562  51.581  1.00  0.00    -0.208 F 
HETATM   19  C17 UNL     1      23.865   5.729  49.271  1.00  0.00     0.099 C 
HETATM   20  C18 UNL     1      25.198   6.210  48.808  1.00  0.00    -0.024 C 
HETATM   21  C19 UNL     1      26.016   5.171  48.931  1.00  0.00    -0.024 C 
HETATM   22  C20 UNL     1      25.439   3.899  49.455  1.00  0.00     0.087 C 
ENDBRANCH   4  16
BRANCH   3  23
HETATM   23  C2  UNL     1      27.746   1.109  53.596  1.00  0.00     0.101 C 
HETATM   24  C3  UNL     1      28.021  -0.169  53.418  1.00  0.00    -0.023 A 
HETATM   25  C4  UNL     1      27.077  -1.090  52.799  1.00  0.00     0.011 A 
HETATM   26  C7  UNL     1      29.303  -0.750  53.836  1.00  0.00     0.188 A 
HETATM   27  C5  UNL     1      27.305  -2.388  52.598  1.00  0.00     0.019 A 
HETATM   28  C6  UNL     1      28.580  -2.923  53.023  1.00  0.00     0.110 A 
HETATM   29  N2  UNL     1      29.420  -2.143  53.564  1.00  0.00    -0.297 NA
ENDBRANCH   3  23
TORSDOF 5
ENDMDL
MODEL 8
REMARK VINA RESULT:      -7.9      2.202      6.564
REMARK  5 active torsions:
REMARK  status: ('A' for Active; 'I' for Inactive)
REMARK       I    between atoms: C1_2  and  N1_3 
REMARK       I    between atoms: C1_2  and  N3_11 
REMARK    1  A    between atoms: N1_3  and  C2_4 
REMARK    2  A    between atoms: N3_11  and  C8_12 
REMARK    3  A    between atoms: N3_11  and  C15_21 
REMARK    4  A    between atoms: C8_12  and  C9_13 
REMARK    5  A    between atoms: C14_19  and  O2_20 
ROOT
HETATM    1  O1  UNL     1      23.638  -0.767  52.983  1.00  0.00    -0.246 OA
HETATM    2  C1  UNL     1      23.342   0.453  52.852  1.00  0.00     0.327 C 
HETATM    3  N1  UNL     1      24.503   1.001  53.444  1.00  0.00    -0.318 N 
HETATM    4  N3  UNL     1      22.311   1.330  52.349  1.00  0.00    -0.296 N 
HETATM    5  H1  UNL     1      24.673   2.013  53.566  1.00  0.00     0.170 HD
ENDROOT
BRANCH   4   6
HETATM    6  C8  UNL     1      22.475   2.759  52.378  1.00  0.00     0.175 C 
BRANCH   6   7
HETATM    7  C9  UNL     1      23.025   3.388  51.164  1.00  0.00    -0.005 A 
HETATM    8  C10 UNL     1      22.130   3.781  50.151  1.00  0.00     0.012 A 
HETATM    9  C11 UNL     1      22.444   4.363  48.940  1.00  0.00     0.002 A 
HETATM   10  C12 UNL     1      23.779   4.603  48.651  1.00  0.00     0.022 A 
HETATM   11  C13 UNL     1      24.709   4.242  49.601  1.00  0.00     0.044 A 
HETATM   12 BR1  UNL     1      26.545   4.569  49.212  1.00  0.00    -0.048 Br
HETATM   13  C14 UNL     1      24.288   3.670  50.770  1.00  0.00     0.090 A 
BRANCH  13  14
HETATM   14  O2  UNL     1      25.318   3.362  51.617  1.00  0.00    -0.359 OA
HETATM   15  H13 UNL     1      25.078   2.890  52.485  1.00  0.00     0.217 HD
ENDBRANCH  13  14
ENDBRANCH   6   7
ENDBRANCH   4   6
BRANCH   4  16
HETATM   16  C15 UNL     1      21.092   0.760  51.874  1.00  0.00     0.054 C 
HETATM   17  C16 UNL     1      20.042   0.349  52.565  1.00  0.00     0.120 C 
HETATM   18  F1  UNL     1      19.982   0.421  53.916  1.00  0.00    -0.208 F 
HETATM   19  C17 UNL     1      18.839  -0.223  51.905  1.00  0.00     0.099 C 
HETATM   20  C18 UNL     1      18.287   0.747  50.916  1.00  0.00    -0.024 C 
HETATM   21  C19 UNL     1      19.320   1.132  50.175  1.00  0.00    -0.024 C 
HETATM   22  C20 UNL     1      20.654   0.542  50.496  1.00  0.00     0.087 C 
ENDBRANCH   4  16
BRANCH   3  23
HETATM   23  C2  UNL     1      25.615   0.314  53.988  1.00  0.00     0.101 C 
HETATM   24  C3  UNL     1      26.863   0.736  54.073  1.00  0.00    -0.023 A 
HETATM   25  C4  UNL     1      27.277   2.044  53.586  1.00  0.00     0.011 A 
HETATM   26  C7  UNL     1      27.919  -0.092  54.668  1.00  0.00     0.188 A 
HETATM   27  C5  UNL     1      28.523   2.516  53.647  1.00  0.00     0.019 A 
HETATM   28  C6  UNL     1      29.536   1.671  54.240  1.00  0.00     0.110 A 
HETATM   29  N2  UNL     1      29.202   0.528  54.672  1.00  0.00    -0.297 NA
ENDBRANCH   3  23
TORSDOF 5
ENDMDL
MODEL 9
REMARK VINA RESULT:      -7.8      2.105      2.655
REMARK  5 active torsions:
REMARK  status: ('A' for Active; 'I' for Inactive)
REMARK       I    between atoms: C1_2  and  N1_3 
REMARK       I    between atoms: C1_2  and  N3_11 
REMARK    1  A    between atoms: N1_3  and  C2_4 
REMARK    2  A    between atoms: N3_11  and  C8_12 
REMARK    3  A    between atoms: N3_11  and  C15_21 
REMARK    4  A    between atoms: C8_12  and  C9_13 
REMARK    5  A    between atoms: C14_19  and  O2_20 
ROOT
HETATM    1  O1  UNL     1      23.042  -0.864  53.749  1.00  0.00    -0.246 OA
HETATM    2  C1  UNL     1      22.874   0.322  53.353  1.00  0.00     0.327 C 
HETATM    3  N1  UNL     1      21.461   0.344  53.390  1.00  0.00    -0.318 N 
HETATM    4  N3  UNL     1      23.598   1.497  52.929  1.00  0.00    -0.296 N 
HETATM    5  H1  UNL     1      20.882   1.153  53.113  1.00  0.00     0.170 HD
ENDROOT
BRANCH   4   6
HETATM    6  C8  UNL     1      22.906   2.718  52.608  1.00  0.00     0.175 C 
BRANCH   6   7
HETATM    7  C9  UNL     1      23.449   3.514  51.493  1.00  0.00    -0.005 A 
HETATM    8  C10 UNL     1      23.487   2.931  50.212  1.00  0.00     0.012 A 
HETATM    9  C11 UNL     1      23.971   3.498  49.052  1.00  0.00     0.002 A 
HETATM   10  C12 UNL     1      24.487   4.784  49.113  1.00  0.00     0.022 A 
HETATM   11  C13 UNL     1      24.481   5.414  50.338  1.00  0.00     0.044 A 
HETATM   12 BR1  UNL     1      25.188   7.181  50.429  1.00  0.00    -0.048 Br
HETATM   13  C14 UNL     1      23.976   4.758  51.427  1.00  0.00     0.090 A 
BRANCH  13  14
HETATM   14  O2  UNL     1      24.035   5.501  52.574  1.00  0.00    -0.359 OA
HETATM   15  H13 UNL     1      24.933   5.548  53.050  1.00  0.00     0.217 HD
ENDBRANCH  13  14
ENDBRANCH   6   7
ENDBRANCH   4   6
BRANCH   4  16
HETATM   16  C15 UNL     1      25.015   1.417  52.773  1.00  0.00     0.054 C 
HETATM   17  C16 UNL     1      25.960   2.063  53.433  1.00  0.00     0.120 C 
HETATM   18  F1  UNL     1      25.689   2.953  54.417  1.00  0.00    -0.208 F 
HETATM   19  C17 UNL     1      27.404   1.855  53.145  1.00  0.00     0.099 C 
HETATM   20  C18 UNL     1      27.754   0.414  53.294  1.00  0.00    -0.024 C 
HETATM   21  C19 UNL     1      26.844  -0.251  52.591  1.00  0.00    -0.024 C 
HETATM   22  C20 UNL     1      25.795   0.549  51.893  1.00  0.00     0.087 C 
ENDBRANCH   4  16
BRANCH   3  23
HETATM   23  C2  UNL     1      20.580  -0.696  53.775  1.00  0.00     0.101 C 
HETATM   24  C3  UNL     1      19.367  -0.939  53.316  1.00  0.00    -0.023 A 
HETATM   25  C4  UNL     1      18.743  -0.113  52.292  1.00  0.00     0.011 A 
HETATM   26  C7  UNL     1      18.563  -2.063  53.812  1.00  0.00     0.188 A 
HETATM   27  C5  UNL     1      17.521  -0.314  51.796  1.00  0.00     0.019 A 
HETATM   28  C6  UNL     1      16.760  -1.432  52.310  1.00  0.00     0.110 A 
HETATM   29  N2  UNL     1      17.280  -2.167  53.202  1.00  0.00    -0.297 NA
ENDBRANCH   3  23
TORSDOF 5
ENDMDL
