MODEL 1
REMARK VINA RESULT:      -9.3      0.000      0.000
REMARK  5 active torsions:
REMARK  status: ('A' for Active; 'I' for Inactive)
REMARK    1  A    between atoms: S1_3  and  C3_4 
REMARK    2  A    between atoms: C5_6  and  N1_7 
REMARK    3  A    between atoms: N1_7  and  C6_8 
REMARK    4  A    between atoms: C9_11  and  N2_12 
REMARK    5  A    between atoms: C11_14  and  O1_15 
ROOT
HETATM    1  C3  UNL     1      23.703   0.843  52.235  1.00  0.00     0.003 C 
HETATM    2  C4  UNL     1      24.132   1.885  51.551  1.00  0.00     0.040 C 
HETATM    3  C5  UNL     1      23.934   3.067  50.698  1.00  0.00     0.232 C 
HETATM    4  N3  UNL     1      22.585   3.607  50.895  1.00  0.00    -0.249 NA
HETATM    5  C13 UNL     1      21.463   3.124  51.208  1.00  0.00     0.248 C 
HETATM    6  O2  UNL     1      20.680   2.064  51.543  1.00  0.00    -0.342 OA
HETATM    7  C14 UNL     1      21.015   0.659  51.535  1.00  0.00     0.121 C 
HETATM    8  C15 UNL     1      19.877  -0.087  52.197  1.00  0.00     0.098 A 
HETATM    9  C16 UNL     1      18.809   0.071  51.584  1.00  0.00     0.008 A 
HETATM   10  C17 UNL     1      18.367  -0.786  52.670  1.00  0.00     0.036 A 
HETATM   11  C18 UNL     1      18.688  -1.473  53.791  1.00  0.00     0.069 C 
HETATM   12  N4  UNL     1      20.062  -1.298  54.066  1.00  0.00    -0.337 N 
HETATM   13  C19 UNL     1      21.451  -1.125  54.345  1.00  0.00     0.245 C 
HETATM   14  O3  UNL     1      21.833  -1.686  55.343  1.00  0.00    -0.268 OA
HETATM   15  C20 UNL     1      22.314  -0.299  53.433  1.00  0.00     0.085 C 
HETATM   16  C21 UNL     1      22.319   0.461  52.295  1.00  0.00    -0.014 C 
HETATM   17  H21 UNL     1      19.819  -1.874  54.955  1.00  0.00     0.168 HD
ENDROOT
BRANCH   3  18
HETATM   18  N1  UNL     1      24.939   4.065  50.893  1.00  0.00    -0.362 N 
HETATM   19  H6  UNL     1      24.985   4.296  51.937  1.00  0.00     0.162 HD
BRANCH  18  20
HETATM   20  C6  UNL     1      25.829   4.747  50.043  1.00  0.00     0.063 A 
HETATM   21  C7  UNL     1      26.873   4.209  49.297  1.00  0.00     0.034 A 
HETATM   22  C8  UNL     1      27.697   4.973  48.536  1.00  0.00     0.031 A 
HETATM   23  C9  UNL     1      27.517   6.324  48.478  1.00  0.00     0.028 A 
HETATM   24  C10 UNL     1      26.514   6.871  49.192  1.00  0.00     0.068 A 
HETATM   25  C11 UNL     1      25.653   6.156  49.979  1.00  0.00     0.096 A 
BRANCH  23  26
HETATM   26  N2  UNL     1      28.396   7.046  47.662  1.00  0.00    -0.399 N 
HETATM   27  H9  UNL     1      28.405   6.412  46.813  1.00  0.00     0.156 HD
HETATM   28  H10 UNL     1      28.943   7.918  47.707  1.00  0.00     0.156 HD
ENDBRANCH  23  26
BRANCH  25  29
HETATM   29  O1  UNL     1      24.615   6.832  50.704  1.00  0.00    -0.354 OA
HETATM   30  C12 UNL     1      24.093   8.059  50.151  1.00  0.00     0.210 C 
ENDBRANCH  25  29
ENDBRANCH  18  20
ENDBRANCH   3  18
BRANCH   1  31
HETATM   31  S1  UNL     1      24.859  -0.220  53.108  1.00  0.00    -0.161 SA
HETATM   32  C2  UNL     1      26.483   0.583  52.910  1.00  0.00     0.023 A 
HETATM   33  C1  UNL     1      26.027   1.114  54.092  1.00  0.00     0.106 A 
ENDBRANCH   1  31
TORSDOF 5
ENDMDL
MODEL 2
REMARK VINA RESULT:      -8.9      3.443      9.237
REMARK  5 active torsions:
REMARK  status: ('A' for Active; 'I' for Inactive)
REMARK    1  A    between atoms: S1_3  and  C3_4 
REMARK    2  A    between atoms: C5_6  and  N1_7 
REMARK    3  A    between atoms: N1_7  and  C6_8 
REMARK    4  A    between atoms: C9_11  and  N2_12 
REMARK    5  A    between atoms: C11_14  and  O1_15 
ROOT
HETATM    1  C3  UNL     1      21.582   0.591  52.351  1.00  0.00     0.003 C 
HETATM    2  C4  UNL     1      20.703  -0.297  52.768  1.00  0.00     0.040 C 
HETATM    3  C5  UNL     1      20.291  -1.459  53.571  1.00  0.00     0.232 C 
HETATM    4  N3  UNL     1      21.143  -1.576  54.758  1.00  0.00    -0.249 NA
HETATM    5  C13 UNL     1      22.335  -1.274  55.039  1.00  0.00     0.248 C 
HETATM    6  O2  UNL     1      23.542  -0.754  54.687  1.00  0.00    -0.342 OA
HETATM    7  C14 UNL     1      23.996  -0.338  53.382  1.00  0.00     0.121 C 
HETATM    8  C15 UNL     1      25.323   0.368  53.561  1.00  0.00     0.098 A 
HETATM    9  C16 UNL     1      26.176  -0.385  54.058  1.00  0.00     0.008 A 
HETATM   10  C17 UNL     1      26.950   0.835  53.915  1.00  0.00     0.036 A 
HETATM   11  C18 UNL     1      26.985   2.131  53.526  1.00  0.00     0.069 C 
HETATM   12  N4  UNL     1      25.713   2.505  53.040  1.00  0.00    -0.337 N 
HETATM   13  C19 UNL     1      24.428   2.885  52.548  1.00  0.00     0.245 C 
HETATM   14  O3  UNL     1      24.351   4.036  52.192  1.00  0.00    -0.268 OA
HETATM   15  C20 UNL     1      23.305   1.888  52.499  1.00  0.00     0.085 C 
HETATM   16  C21 UNL     1      22.955   0.593  52.774  1.00  0.00    -0.014 C 
HETATM   17  H21 UNL     1      26.179   3.484  52.963  1.00  0.00     0.168 HD
ENDROOT
BRANCH   3  18
HETATM   18  N1  UNL     1      18.904  -1.430  53.914  1.00  0.00    -0.362 N 
HETATM   19  H6  UNL     1      18.749  -0.641  54.621  1.00  0.00     0.162 HD
BRANCH  18  20
HETATM   20  C6  UNL     1      17.775  -2.174  53.522  1.00  0.00     0.063 A 
HETATM   21  C7  UNL     1      17.510  -3.516  53.776  1.00  0.00     0.034 A 
HETATM   22  C8  UNL     1      16.399  -4.142  53.313  1.00  0.00     0.031 A 
HETATM   23  C9  UNL     1      15.487  -3.454  52.566  1.00  0.00     0.028 A 
HETATM   24  C10 UNL     1      15.721  -2.154  52.303  1.00  0.00     0.068 A 
HETATM   25  C11 UNL     1      16.822  -1.468  52.739  1.00  0.00     0.096 A 
BRANCH  23  26
HETATM   26  N2  UNL     1      14.359  -4.161  52.134  1.00  0.00    -0.399 N 
HETATM   27  H9  UNL     1      13.670  -3.863  52.883  1.00  0.00     0.156 HD
HETATM   28  H10 UNL     1      14.103  -4.803  51.369  1.00  0.00     0.156 HD
ENDBRANCH  23  26
BRANCH  25  29
HETATM   29  O1  UNL     1      16.981  -0.081  52.404  1.00  0.00    -0.354 OA
HETATM   30  C12 UNL     1      15.798   0.674  52.067  1.00  0.00     0.210 C 
ENDBRANCH  25  29
ENDBRANCH  18  20
ENDBRANCH   3  18
BRANCH   1  31
HETATM   31  S1  UNL     1      21.117   1.851  51.157  1.00  0.00    -0.161 SA
HETATM   32  C2  UNL     1      19.409   2.311  51.595  1.00  0.00     0.023 A 
HETATM   33  C1  UNL     1      20.157   3.216  52.308  1.00  0.00     0.106 A 
ENDBRANCH   1  31
TORSDOF 5
ENDMDL
MODEL 3
REMARK VINA RESULT:      -8.8      3.156      7.569
REMARK  5 active torsions:
REMARK  status: ('A' for Active; 'I' for Inactive)
REMARK    1  A    between atoms: S1_3  and  C3_4 
REMARK    2  A    between atoms: C5_6  and  N1_7 
REMARK    3  A    between atoms: N1_7  and  C6_8 
REMARK    4  A    between atoms: C9_11  and  N2_12 
REMARK    5  A    between atoms: C11_14  and  O1_15 
ROOT
HETATM    1  C3  UNL     1      24.914   1.695  52.156  1.00  0.00     0.003 C 
HETATM    2  C4  UNL     1      23.654   1.317  52.236  1.00  0.00     0.040 C 
HETATM    3  C5  UNL     1      22.592   0.345  52.542  1.00  0.00     0.232 C 
HETATM    4  N3  UNL     1      23.063  -0.612  53.547  1.00  0.00    -0.249 NA
HETATM    5  C13 UNL     1      24.181  -1.100  53.867  1.00  0.00     0.248 C 
HETATM    6  O2  UNL     1      25.526  -1.201  53.689  1.00  0.00    -0.342 OA
HETATM    7  C14 UNL     1      26.337  -0.651  52.628  1.00  0.00     0.121 C 
HETATM    8  C15 UNL     1      27.788  -0.860  53.005  1.00  0.00     0.098 A 
HETATM    9  C16 UNL     1      28.058  -2.066  53.128  1.00  0.00     0.008 A 
HETATM   10  C17 UNL     1      29.347  -1.472  53.435  1.00  0.00     0.036 A 
HETATM   11  C18 UNL     1      30.085  -0.348  53.581  1.00  0.00     0.069 C 
HETATM   12  N4  UNL     1      29.268   0.779  53.339  1.00  0.00    -0.337 N 
HETATM   13  C19 UNL     1      28.445   1.919  53.095  1.00  0.00     0.245 C 
HETATM   14  O3  UNL     1      29.010   2.978  53.220  1.00  0.00    -0.268 OA
HETATM   15  C20 UNL     1      27.001   1.749  52.715  1.00  0.00     0.085 C 
HETATM   16  C21 UNL     1      26.014   0.830  52.481  1.00  0.00    -0.014 C 
HETATM   17  H21 UNL     1      30.165   1.322  53.627  1.00  0.00     0.168 HD
ENDROOT
BRANCH   3  18
HETATM   18  N1  UNL     1      21.368   0.969  52.934  1.00  0.00    -0.362 N 
HETATM   19  H6  UNL     1      21.511   1.414  53.897  1.00  0.00     0.162 HD
BRANCH  18  20
HETATM   20  C6  UNL     1      20.101   1.118  52.338  1.00  0.00     0.063 A 
HETATM   21  C7  UNL     1      19.258   0.116  51.872  1.00  0.00     0.034 A 
HETATM   22  C8  UNL     1      18.067   0.380  51.276  1.00  0.00     0.031 A 
HETATM   23  C9  UNL     1      17.655   1.671  51.116  1.00  0.00     0.028 A 
HETATM   24  C10 UNL     1      18.453   2.661  51.558  1.00  0.00     0.068 A 
HETATM   25  C11 UNL     1      19.664   2.459  52.163  1.00  0.00     0.096 A 
BRANCH  23  26
HETATM   26  N2  UNL     1      16.410   1.867  50.507  1.00  0.00    -0.399 N 
HETATM   27  H9  UNL     1      16.716   2.439  49.667  1.00  0.00     0.156 HD
HETATM   28  H10 UNL     1      15.425   1.616  50.675  1.00  0.00     0.156 HD
ENDBRANCH  23  26
BRANCH  25  29
HETATM   29  O1  UNL     1      20.444   3.583  52.598  1.00  0.00    -0.354 OA
HETATM   30  C12 UNL     1      21.128   4.362  51.594  1.00  0.00     0.210 C 
ENDBRANCH  25  29
ENDBRANCH  18  20
ENDBRANCH   3  18
BRANCH   1  31
HETATM   31  S1  UNL     1      25.343   3.338  51.570  1.00  0.00    -0.161 SA
HETATM   32  C2  UNL     1      25.906   3.096  49.854  1.00  0.00     0.023 A 
HETATM   33  C1  UNL     1      24.566   3.354  49.697  1.00  0.00     0.106 A 
ENDBRANCH   1  31
TORSDOF 5
ENDMDL
MODEL 4
REMARK VINA RESULT:      -8.7      2.561      4.186
REMARK  5 active torsions:
REMARK  status: ('A' for Active; 'I' for Inactive)
REMARK    1  A    between atoms: S1_3  and  C3_4 
REMARK    2  A    between atoms: C5_6  and  N1_7 
REMARK    3  A    between atoms: N1_7  and  C6_8 
REMARK    4  A    between atoms: C9_11  and  N2_12 
REMARK    5  A    between atoms: C11_14  and  O1_15 
ROOT
HETATM    1  C3  UNL     1      23.733   2.974  50.808  1.00  0.00     0.003 C 
HETATM    2  C4  UNL     1      24.897   3.507  50.497  1.00  0.00     0.040 C 
HETATM    3  C5  UNL     1      26.362   3.606  50.590  1.00  0.00     0.232 C 
HETATM    4  N3  UNL     1      26.929   2.310  50.972  1.00  0.00    -0.249 NA
HETATM    5  C13 UNL     1      26.533   1.322  51.649  1.00  0.00     0.248 C 
HETATM    6  O2  UNL     1      25.583   0.704  52.401  1.00  0.00    -0.342 OA
HETATM    7  C14 UNL     1      24.341   1.243  52.903  1.00  0.00     0.121 C 
HETATM    8  C15 UNL     1      23.547   0.096  53.490  1.00  0.00     0.098 A 
HETATM    9  C16 UNL     1      24.154  -0.446  54.428  1.00  0.00     0.008 A 
HETATM   10  C17 UNL     1      22.947  -1.252  54.392  1.00  0.00     0.036 A 
HETATM   11  C18 UNL     1      21.750  -1.498  53.811  1.00  0.00     0.069 C 
HETATM   12  N4  UNL     1      21.549  -0.582  52.755  1.00  0.00    -0.337 N 
HETATM   13  C19 UNL     1      21.343   0.344  51.688  1.00  0.00     0.245 C 
HETATM   14  O3  UNL     1      20.305   0.194  51.090  1.00  0.00    -0.268 OA
HETATM   15  C20 UNL     1      22.372   1.397  51.384  1.00  0.00     0.085 C 
HETATM   16  C21 UNL     1      23.590   1.900  51.752  1.00  0.00    -0.014 C 
HETATM   17  H21 UNL     1      20.649  -1.170  52.595  1.00  0.00     0.168 HD
ENDROOT
BRANCH   3  18
HETATM   18  N1  UNL     1      26.959   4.115  49.395  1.00  0.00    -0.362 N 
HETATM   19  H6  UNL     1      27.464   3.310  48.902  1.00  0.00     0.162 HD
BRANCH  18  20
HETATM   20  C6  UNL     1      26.997   5.377  48.772  1.00  0.00     0.063 A 
HETATM   21  C7  UNL     1      25.935   6.245  48.542  1.00  0.00     0.034 A 
HETATM   22  C8  UNL     1      26.085   7.428  47.895  1.00  0.00     0.031 A 
HETATM   23  C9  UNL     1      27.315   7.809  47.441  1.00  0.00     0.028 A 
HETATM   24  C10 UNL     1      28.360   6.986  47.649  1.00  0.00     0.068 A 
HETATM   25  C11 UNL     1      28.273   5.781  48.292  1.00  0.00     0.096 A 
BRANCH  23  26
HETATM   26  N2  UNL     1      27.396   9.047  46.794  1.00  0.00    -0.399 N 
HETATM   27  H9  UNL     1      27.022   8.771  45.841  1.00  0.00     0.156 HD
HETATM   28  H10 UNL     1      27.694  10.009  47.014  1.00  0.00     0.156 HD
ENDBRANCH  23  26
BRANCH  25  29
HETATM   29  O1  UNL     1      29.447   4.973  48.463  1.00  0.00    -0.354 OA
HETATM   30  C12 UNL     1      30.675   5.427  47.855  1.00  0.00     0.210 C 
ENDBRANCH  25  29
ENDBRANCH  18  20
ENDBRANCH   3  18
BRANCH   1  31
HETATM   31  S1  UNL     1      22.213   3.610  50.094  1.00  0.00    -0.161 SA
HETATM   32  C2  UNL     1      22.703   4.309  48.484  1.00  0.00     0.023 A 
HETATM   33  C1  UNL     1      22.354   3.020  48.159  1.00  0.00     0.106 A 
ENDBRANCH   1  31
TORSDOF 5
ENDMDL
MODEL 5
REMARK VINA RESULT:      -8.7      1.894      2.683
REMARK  5 active torsions:
REMARK  status: ('A' for Active; 'I' for Inactive)
REMARK    1  A    between atoms: S1_3  and  C3_4 
REMARK    2  A    between atoms: C5_6  and  N1_7 
REMARK    3  A    between atoms: N1_7  and  C6_8 
REMARK    4  A    between atoms: C9_11  and  N2_12 
REMARK    5  A    between atoms: C11_14  and  O1_15 
ROOT
HETATM    1  C3  UNL     1      25.454   1.604  51.931  1.00  0.00     0.003 C 
HETATM    2  C4  UNL     1      25.475   2.711  51.216  1.00  0.00     0.040 C 
HETATM    3  C5  UNL     1      24.833   3.846  50.535  1.00  0.00     0.232 C 
HETATM    4  N3  UNL     1      23.537   4.136  51.157  1.00  0.00    -0.249 NA
HETATM    5  C13 UNL     1      22.660   3.459  51.760  1.00  0.00     0.248 C 
HETATM    6  O2  UNL     1      22.204   2.273  52.246  1.00  0.00    -0.342 OA
HETATM    7  C14 UNL     1      22.750   0.951  52.053  1.00  0.00     0.121 C 
HETATM    8  C15 UNL     1      22.009   0.008  52.976  1.00  0.00     0.098 A 
HETATM    9  C16 UNL     1      20.794  -0.021  52.719  1.00  0.00     0.008 A 
HETATM   10  C17 UNL     1      20.852  -0.951  53.832  1.00  0.00     0.036 A 
HETATM   11  C18 UNL     1      21.608  -1.580  54.762  1.00  0.00     0.069 C 
HETATM   12  N4  UNL     1      22.951  -1.166  54.626  1.00  0.00    -0.337 N 
HETATM   13  C19 UNL     1      24.310  -0.750  54.490  1.00  0.00     0.245 C 
HETATM   14  O3  UNL     1      25.065  -1.243  55.293  1.00  0.00    -0.268 OA
HETATM   15  C20 UNL     1      24.705   0.223  53.415  1.00  0.00     0.085 C 
HETATM   16  C21 UNL     1      24.238   0.981  52.376  1.00  0.00    -0.014 C 
HETATM   17  H21 UNL     1      23.090  -1.783  55.510  1.00  0.00     0.168 HD
ENDROOT
BRANCH   3  18
HETATM   18  N1  UNL     1      25.668   5.005  50.484  1.00  0.00    -0.362 N 
HETATM   19  H6  UNL     1      26.452   4.886  51.202  1.00  0.00     0.162 HD
BRANCH  18  20
HETATM   20  C6  UNL     1      25.671   6.185  49.716  1.00  0.00     0.063 A 
HETATM   21  C7  UNL     1      24.825   7.282  49.839  1.00  0.00     0.034 A 
HETATM   22  C8  UNL     1      24.896   8.356  49.013  1.00  0.00     0.031 A 
HETATM   23  C9  UNL     1      25.825   8.390  48.014  1.00  0.00     0.028 A 
HETATM   24  C10 UNL     1      26.656   7.340  47.871  1.00  0.00     0.068 A 
HETATM   25  C11 UNL     1      26.632   6.228  48.670  1.00  0.00     0.096 A 
BRANCH  23  26
HETATM   26  N2  UNL     1      25.849   9.535  47.210  1.00  0.00    -0.399 N 
HETATM   27  H9  UNL     1      24.857   9.507  46.837  1.00  0.00     0.156 HD
HETATM   28  H10 UNL     1      26.518  10.275  46.948  1.00  0.00     0.156 HD
ENDBRANCH  23  26
BRANCH  25  29
HETATM   29  O1  UNL     1      27.561   5.159  48.436  1.00  0.00    -0.354 OA
HETATM   30  C12 UNL     1      28.944   5.501  48.208  1.00  0.00     0.210 C 
ENDBRANCH  25  29
ENDBRANCH  18  20
ENDBRANCH   3  18
BRANCH   1  31
HETATM   31  S1  UNL     1      26.980   0.756  52.353  1.00  0.00    -0.161 SA
HETATM   32  C2  UNL     1      28.155   2.082  52.781  1.00  0.00     0.023 A 
HETATM   33  C1  UNL     1      27.603   1.764  53.998  1.00  0.00     0.106 A 
ENDBRANCH   1  31
TORSDOF 5
ENDMDL
MODEL 6
REMARK VINA RESULT:      -8.4      3.224      7.316
REMARK  5 active torsions:
REMARK  status: ('A' for Active; 'I' for Inactive)
REMARK    1  A    between atoms: S1_3  and  C3_4 
REMARK    2  A    between atoms: C5_6  and  N1_7 
REMARK    3  A    between atoms: N1_7  and  C6_8 
REMARK    4  A    between atoms: C9_11  and  N2_12 
REMARK    5  A    between atoms: C11_14  and  O1_15 
ROOT
HETATM    1  C3  UNL     1      23.605   0.353  53.058  1.00  0.00     0.003 C 
HETATM    2  C4  UNL     1      22.689   1.228  52.697  1.00  0.00     0.040 C 
HETATM    3  C5  UNL     1      22.247   2.564  52.267  1.00  0.00     0.232 C 
HETATM    4  N3  UNL     1      23.344   3.260  51.588  1.00  0.00    -0.249 NA
HETATM    5  C13 UNL     1      24.603   3.240  51.665  1.00  0.00     0.248 C 
HETATM    6  O2  UNL     1      25.750   2.761  52.217  1.00  0.00    -0.342 OA
HETATM    7  C14 UNL     1      25.905   1.893  53.361  1.00  0.00     0.121 C 
HETATM    8  C15 UNL     1      27.359   1.482  53.432  1.00  0.00     0.098 A 
HETATM    9  C16 UNL     1      28.105   2.464  53.574  1.00  0.00     0.008 A 
HETATM   10  C17 UNL     1      29.082   1.391  53.543  1.00  0.00     0.036 A 
HETATM   11  C18 UNL     1      29.325   0.065  53.433  1.00  0.00     0.069 C 
HETATM   12  N4  UNL     1      28.101  -0.619  53.265  1.00  0.00    -0.337 N 
HETATM   13  C19 UNL     1      26.865  -1.313  53.096  1.00  0.00     0.245 C 
HETATM   14  O3  UNL     1      26.977  -2.508  52.969  1.00  0.00    -0.268 OA
HETATM   15  C20 UNL     1      25.564  -0.560  53.089  1.00  0.00     0.085 C 
HETATM   16  C21 UNL     1      24.998   0.682  53.184  1.00  0.00    -0.014 C 
HETATM   17  H21 UNL     1      28.753  -1.482  53.152  1.00  0.00     0.168 HD
ENDROOT
BRANCH   3  18
HETATM   18  N1  UNL     1      21.066   2.524  51.464  1.00  0.00    -0.362 N 
HETATM   19  H6  UNL     1      21.178   3.228  50.665  1.00  0.00     0.162 HD
BRANCH  18  20
HETATM   20  C6  UNL     1      19.871   1.780  51.504  1.00  0.00     0.063 A 
HETATM   21  C7  UNL     1      19.728   0.398  51.463  1.00  0.00     0.034 A 
HETATM   22  C8  UNL     1      18.516  -0.213  51.470  1.00  0.00     0.031 A 
HETATM   23  C9  UNL     1      17.375   0.534  51.520  1.00  0.00     0.028 A 
HETATM   24  C10 UNL     1      17.485   1.876  51.558  1.00  0.00     0.068 A 
HETATM   25  C11 UNL     1      18.677   2.549  51.551  1.00  0.00     0.096 A 
BRANCH  23  26
HETATM   26  N2  UNL     1      16.162  -0.163  51.538  1.00  0.00    -0.399 N 
HETATM   27  H9  UNL     1      16.512  -1.113  51.855  1.00  0.00     0.156 HD
HETATM   28  H10 UNL     1      15.167   0.022  51.340  1.00  0.00     0.156 HD
ENDBRANCH  23  26
BRANCH  25  29
HETATM   29  O1  UNL     1      18.689   3.984  51.593  1.00  0.00    -0.354 OA
HETATM   30  C12 UNL     1      18.300   4.699  50.401  1.00  0.00     0.210 C 
ENDBRANCH  25  29
ENDBRANCH  18  20
ENDBRANCH   3  18
BRANCH   1  31
HETATM   31  S1  UNL     1      23.147  -1.333  53.479  1.00  0.00    -0.161 SA
HETATM   32  C2  UNL     1      22.695  -1.275  55.243  1.00  0.00     0.023 A 
HETATM   33  C1  UNL     1      21.490  -1.069  54.616  1.00  0.00     0.106 A 
ENDBRANCH   1  31
TORSDOF 5
ENDMDL
MODEL 7
REMARK VINA RESULT:      -8.4      3.032      6.236
REMARK  5 active torsions:
REMARK  status: ('A' for Active; 'I' for Inactive)
REMARK    1  A    between atoms: S1_3  and  C3_4 
REMARK    2  A    between atoms: C5_6  and  N1_7 
REMARK    3  A    between atoms: N1_7  and  C6_8 
REMARK    4  A    between atoms: C9_11  and  N2_12 
REMARK    5  A    between atoms: C11_14  and  O1_15 
ROOT
HETATM    1  C3  UNL     1      23.975   1.981  52.172  1.00  0.00     0.003 C 
HETATM    2  C4  UNL     1      23.700   2.739  51.129  1.00  0.00     0.040 C 
HETATM    3  C5  UNL     1      24.072   3.644  50.030  1.00  0.00     0.232 C 
HETATM    4  N3  UNL     1      25.465   3.411  49.639  1.00  0.00    -0.249 NA
HETATM    5  C13 UNL     1      26.509   3.018  50.229  1.00  0.00     0.248 C 
HETATM    6  O2  UNL     1      27.147   2.588  51.350  1.00  0.00    -0.342 OA
HETATM    7  C14 UNL     1      26.650   2.538  52.705  1.00  0.00     0.121 C 
HETATM    8  C15 UNL     1      27.663   1.782  53.537  1.00  0.00     0.098 A 
HETATM    9  C16 UNL     1      28.767   2.350  53.539  1.00  0.00     0.008 A 
HETATM   10  C17 UNL     1      29.059   1.199  54.376  1.00  0.00     0.036 A 
HETATM   11  C18 UNL     1      28.613   0.060  54.954  1.00  0.00     0.069 C 
HETATM   12  N4  UNL     1      27.259  -0.138  54.607  1.00  0.00    -0.337 N 
HETATM   13  C19 UNL     1      25.889  -0.340  54.258  1.00  0.00     0.245 C 
HETATM   14  O3  UNL     1      25.402  -1.346  54.712  1.00  0.00    -0.268 OA
HETATM   15  C20 UNL     1      25.168   0.657  53.394  1.00  0.00     0.085 C 
HETATM   16  C21 UNL     1      25.300   1.833  52.707  1.00  0.00    -0.014 C 
HETATM   17  H21 UNL     1      27.394  -1.068  55.153  1.00  0.00     0.168 HD
ENDROOT
BRANCH   3  18
HETATM   18  N1  UNL     1      23.185   3.552  48.914  1.00  0.00    -0.362 N 
HETATM   19  H6  UNL     1      23.770   3.548  48.018  1.00  0.00     0.162 HD
BRANCH  18  20
HETATM   20  C6  UNL     1      21.787   3.456  48.771  1.00  0.00     0.063 A 
HETATM   21  C7  UNL     1      21.044   2.337  48.408  1.00  0.00     0.034 A 
HETATM   22  C8  UNL     1      19.696   2.370  48.264  1.00  0.00     0.031 A 
HETATM   23  C9  UNL     1      19.014   3.534  48.477  1.00  0.00     0.028 A 
HETATM   24  C10 UNL     1      19.709   4.633  48.828  1.00  0.00     0.068 A 
HETATM   25  C11 UNL     1      21.068   4.663  48.987  1.00  0.00     0.096 A 
BRANCH  23  26
HETATM   26  N2  UNL     1      17.623   3.490  48.323  1.00  0.00    -0.399 N 
HETATM   27  H9  UNL     1      17.342   3.318  49.331  1.00  0.00     0.156 HD
HETATM   28  H10 UNL     1      16.933   3.576  47.563  1.00  0.00     0.156 HD
ENDBRANCH  23  26
BRANCH  25  29
HETATM   29  O1  UNL     1      21.719   5.886  49.361  1.00  0.00    -0.354 OA
HETATM   30  C12 UNL     1      21.542   6.360  50.713  1.00  0.00     0.210 C 
ENDBRANCH  25  29
ENDBRANCH  18  20
ENDBRANCH   3  18
BRANCH   1  31
HETATM   31  S1  UNL     1      22.666   1.109  53.042  1.00  0.00    -0.161 SA
HETATM   32  C2  UNL     1      21.154   1.450  52.084  1.00  0.00     0.023 A 
HETATM   33  C1  UNL     1      21.606   0.280  51.526  1.00  0.00     0.106 A 
ENDBRANCH   1  31
TORSDOF 5
ENDMDL
MODEL 8
REMARK VINA RESULT:      -8.4      1.842      8.426
REMARK  5 active torsions:
REMARK  status: ('A' for Active; 'I' for Inactive)
REMARK    1  A    between atoms: S1_3  and  C3_4 
REMARK    2  A    between atoms: C5_6  and  N1_7 
REMARK    3  A    between atoms: N1_7  and  C6_8 
REMARK    4  A    between atoms: C9_11  and  N2_12 
REMARK    5  A    between atoms: C11_14  and  O1_15 
ROOT
HETATM    1  C3  UNL     1      25.151   3.074  50.995  1.00  0.00     0.003 C 
HETATM    2  C4  UNL     1      24.053   2.459  51.388  1.00  0.00     0.040 C 
HETATM    3  C5  UNL     1      22.592   2.307  51.469  1.00  0.00     0.232 C 
HETATM    4  N3  UNL     1      21.956   2.955  50.319  1.00  0.00    -0.249 NA
HETATM    5  C13 UNL     1      22.234   3.935  49.573  1.00  0.00     0.248 C 
HETATM    6  O2  UNL     1      23.055   4.959  49.219  1.00  0.00    -0.342 OA
HETATM    7  C14 UNL     1      24.218   5.462  49.911  1.00  0.00     0.121 C 
HETATM    8  C15 UNL     1      24.900   6.458  48.998  1.00  0.00     0.098 A 
HETATM    9  C16 UNL     1      24.154   7.413  48.727  1.00  0.00     0.008 A 
HETATM   10  C17 UNL     1      25.341   7.782  47.977  1.00  0.00     0.036 A 
HETATM   11  C18 UNL     1      26.607   7.474  47.610  1.00  0.00     0.069 C 
HETATM   12  N4  UNL     1      26.974   6.242  48.195  1.00  0.00    -0.337 N 
HETATM   13  C19 UNL     1      27.347   4.998  48.787  1.00  0.00     0.245 C 
HETATM   14  O3  UNL     1      28.459   4.624  48.502  1.00  0.00    -0.268 OA
HETATM   15  C20 UNL     1      26.390   4.263  49.682  1.00  0.00     0.085 C 
HETATM   16  C21 UNL     1      25.139   4.293  50.236  1.00  0.00    -0.014 C 
HETATM   17  H21 UNL     1      27.878   6.387  47.610  1.00  0.00     0.168 HD
ENDROOT
BRANCH   3  18
HETATM   18  N1  UNL     1      22.185   0.944  51.603  1.00  0.00    -0.362 N 
HETATM   19  H6  UNL     1      22.967   0.320  51.224  1.00  0.00     0.162 HD
BRANCH  18  20
HETATM   20  C6  UNL     1      21.041   0.303  52.115  1.00  0.00     0.063 A 
HETATM   21  C7  UNL     1      19.728   0.425  51.673  1.00  0.00     0.034 A 
HETATM   22  C8  UNL     1      18.692  -0.216  52.271  1.00  0.00     0.031 A 
HETATM   23  C9  UNL     1      18.918  -1.022  53.349  1.00  0.00     0.028 A 
HETATM   24  C10 UNL     1      20.180  -1.157  53.799  1.00  0.00     0.068 A 
HETATM   25  C11 UNL     1      21.265  -0.535  53.241  1.00  0.00     0.096 A 
BRANCH  23  26
HETATM   26  N2  UNL     1      17.805  -1.663  53.905  1.00  0.00    -0.399 N 
HETATM   27  H9  UNL     1      17.584  -0.980  54.687  1.00  0.00     0.156 HD
HETATM   28  H10 UNL     1      17.250  -2.516  53.743  1.00  0.00     0.156 HD
ENDBRANCH  23  26
BRANCH  25  29
HETATM   29  O1  UNL     1      22.572  -0.742  53.795  1.00  0.00    -0.354 OA
HETATM   30  C12 UNL     1      22.664  -1.263  55.138  1.00  0.00     0.210 C 
ENDBRANCH  25  29
ENDBRANCH  18  20
ENDBRANCH   3  18
BRANCH   1  31
HETATM   31  S1  UNL     1      26.769   2.435  51.445  1.00  0.00    -0.161 SA
HETATM   32  C2  UNL     1      26.472   1.369  52.892  1.00  0.00     0.023 A 
HETATM   33  C1  UNL     1      26.379   0.486  51.844  1.00  0.00     0.106 A 
ENDBRANCH   1  31
TORSDOF 5
ENDMDL
MODEL 9
REMARK VINA RESULT:      -8.3      2.720      9.177
REMARK  5 active torsions:
REMARK  status: ('A' for Active; 'I' for Inactive)
REMARK    1  A    between atoms: S1_3  and  C3_4 
REMARK    2  A    between atoms: C5_6  and  N1_7 
REMARK    3  A    between atoms: N1_7  and  C6_8 
REMARK    4  A    between atoms: C9_11  and  N2_12 
REMARK    5  A    between atoms: C11_14  and  O1_15 
ROOT
HETATM    1  C3  UNL     1      24.681   6.386  49.767  1.00  0.00     0.003 C 
HETATM    2  C4  UNL     1      24.027   5.256  49.947  1.00  0.00     0.040 C 
HETATM    3  C5  UNL     1      23.922   3.789  49.963  1.00  0.00     0.232 C 
HETATM    4  N3  UNL     1      25.242   3.194  50.190  1.00  0.00    -0.249 NA
HETATM    5  C13 UNL     1      26.432   3.526  49.932  1.00  0.00     0.248 C 
HETATM    6  O2  UNL     1      27.332   4.398  49.405  1.00  0.00    -0.342 OA
HETATM    7  C14 UNL     1      27.083   5.579  48.613  1.00  0.00     0.121 C 
HETATM    8  C15 UNL     1      28.396   6.316  48.463  1.00  0.00     0.098 A 
HETATM    9  C16 UNL     1      29.246   5.621  47.885  1.00  0.00     0.008 A 
HETATM   10  C17 UNL     1      30.012   6.830  48.126  1.00  0.00     0.036 A 
HETATM   11  C18 UNL     1      30.047   8.082  48.639  1.00  0.00     0.069 C 
HETATM   12  N4  UNL     1      28.793   8.383  49.214  1.00  0.00    -0.337 N 
HETATM   13  C19 UNL     1      27.525   8.690  49.794  1.00  0.00     0.245 C 
HETATM   14  O3  UNL     1      27.460   9.785  50.300  1.00  0.00    -0.268 OA
HETATM   15  C20 UNL     1      26.403   7.692  49.747  1.00  0.00     0.085 C 
HETATM   16  C21 UNL     1      26.047   6.439  49.325  1.00  0.00    -0.014 C 
HETATM   17  H21 UNL     1      29.299   9.298  49.510  1.00  0.00     0.168 HD
ENDROOT
BRANCH   3  18
HETATM   18  N1  UNL     1      22.956   3.314  50.904  1.00  0.00    -0.362 N 
HETATM   19  H6  UNL     1      22.315   4.129  51.169  1.00  0.00     0.162 HD
BRANCH  18  20
HETATM   20  C6  UNL     1      22.691   2.066  51.500  1.00  0.00     0.063 A 
HETATM   21  C7  UNL     1      21.821   1.078  51.052  1.00  0.00     0.034 A 
HETATM   22  C8  UNL     1      21.615  -0.078  51.733  1.00  0.00     0.031 A 
HETATM   23  C9  UNL     1      22.275  -0.308  52.905  1.00  0.00     0.028 A 
HETATM   24  C10 UNL     1      23.123   0.634  53.362  1.00  0.00     0.068 A 
HETATM   25  C11 UNL     1      23.370   1.819  52.724  1.00  0.00     0.096 A 
BRANCH  23  26
HETATM   26  N2  UNL     1      22.025  -1.527  53.545  1.00  0.00    -0.399 N 
HETATM   27  H9  UNL     1      20.985  -1.615  53.351  1.00  0.00     0.156 HD
HETATM   28  H10 UNL     1      22.550  -2.237  54.076  1.00  0.00     0.156 HD
ENDBRANCH  23  26
BRANCH  25  29
HETATM   29  O1  UNL     1      24.291   2.761  53.294  1.00  0.00    -0.354 OA
HETATM   30  C12 UNL     1      25.607   2.289  53.652  1.00  0.00     0.210 C 
ENDBRANCH  25  29
ENDBRANCH  18  20
ENDBRANCH   3  18
BRANCH   1  31
HETATM   31  S1  UNL     1      23.866   7.968  50.017  1.00  0.00    -0.161 SA
HETATM   32  C2  UNL     1      23.204   8.422  48.381  1.00  0.00     0.023 A 
HETATM   33  C1  UNL     1      22.152   7.752  48.955  1.00  0.00     0.106 A 
ENDBRANCH   1  31
TORSDOF 5
ENDMDL
