MODEL 1
REMARK VINA RESULT:      -8.2      0.000      0.000
REMARK  6 active torsions:
REMARK  status: ('A' for Active; 'I' for Inactive)
REMARK    1  A    between atoms: C5_5  and  N1_6 
REMARK    2  A    between atoms: C14_17  and  C15_18 
REMARK    3  A    between atoms: C15_18  and  C16_20 
REMARK    4  A    between atoms: C16_20  and  C17_21 
REMARK    5  A    between atoms: C17_21  and  C18_22 
REMARK    6  A    between atoms: C18_22  and  N3_23 
ROOT
HETATM    1  C1  UNL     1      22.978   2.724  51.296  1.00  0.00     0.050 C 
HETATM    2  C2  UNL     1      23.177   2.063  52.638  1.00  0.00    -0.035 C 
HETATM    3  C3  UNL     1      24.299   2.421  53.248  1.00  0.00    -0.020 C 
HETATM    4  C4  UNL     1      25.244   1.511  53.321  1.00  0.00     0.012 C 
HETATM    5  C5  UNL     1      25.305   0.018  53.387  1.00  0.00     0.125 C 
HETATM    6  C11 UNL     1      24.505  -0.539  54.544  1.00  0.00     0.148 C 
HETATM    7  N2  UNL     1      23.157  -0.916  54.160  1.00  0.00    -0.390 N 
HETATM    8  C12 UNL     1      22.192  -0.032  53.604  1.00  0.00     0.015 C 
HETATM    9  C13 UNL     1      20.807  -0.590  53.735  1.00  0.00     0.069 C 
HETATM   10  C14 UNL     1      22.080   1.154  52.985  1.00  0.00     0.038 C 
HETATM   11  H13 UNL     1      22.777  -1.879  54.263  1.00  0.00     0.159 HD
ENDROOT
BRANCH  10  12
HETATM   12  C15 UNL     1      20.803   1.666  52.583  1.00  0.00     0.162 C 
HETATM   13  O1  UNL     1      20.336   2.701  53.103  1.00  0.00    -0.292 OA
BRANCH  12  14
HETATM   14  C16 UNL     1      19.558   1.713  51.837  1.00  0.00     0.085 C 
BRANCH  14  15
HETATM   15  C17 UNL     1      19.701   0.884  50.559  1.00  0.00     0.027 C 
BRANCH  15  16
HETATM   16  C18 UNL     1      19.219   1.727  49.370  1.00  0.00     0.117 C 
BRANCH  16  17
HETATM   17  N3  UNL     1      20.344   2.226  48.640  1.00  0.00    -0.408 N 
HETATM   18  C19 UNL     1      20.047   3.013  47.493  1.00  0.00     0.143 C 
HETATM   19  C20 UNL     1      21.257   3.857  47.106  1.00  0.00     0.187 C 
HETATM   20  O2  UNL     1      22.412   3.378  47.704  1.00  0.00    -0.388 OA
HETATM   21  C21 UNL     1      22.512   1.988  47.649  1.00  0.00     0.187 C 
HETATM   22  C22 UNL     1      21.438   1.322  48.482  1.00  0.00     0.143 C 
ENDBRANCH  16  17
ENDBRANCH  15  16
ENDBRANCH  14  15
ENDBRANCH  12  14
ENDBRANCH  10  12
BRANCH   5  23
HETATM   23  N1  UNL     1      26.690  -0.354  53.503  1.00  0.00    -0.377 N 
HETATM   24  C6  UNL     1      27.478   0.483  54.343  1.00  0.00     0.090 A 
HETATM   25  C7  UNL     1      28.773   0.210  54.509  1.00  0.00     0.059 A 
HETATM   26  C8  UNL     1      29.349  -0.932  53.830  1.00  0.00     0.115 A 
HETATM   27  F1  UNL     1      30.668  -1.284  53.945  1.00  0.00    -0.206 F 
HETATM   28  C9  UNL     1      28.634  -1.718  53.047  1.00  0.00     0.035 A 
HETATM   29  C10 UNL     1      27.204  -1.511  52.795  1.00  0.00     0.153 A 
ENDBRANCH   5  23
TORSDOF 6
ENDMDL
MODEL 2
REMARK VINA RESULT:      -8.2      1.940      2.555
REMARK  6 active torsions:
REMARK  status: ('A' for Active; 'I' for Inactive)
REMARK    1  A    between atoms: C5_5  and  N1_6 
REMARK    2  A    between atoms: C14_17  and  C15_18 
REMARK    3  A    between atoms: C15_18  and  C16_20 
REMARK    4  A    between atoms: C16_20  and  C17_21 
REMARK    5  A    between atoms: C17_21  and  C18_22 
REMARK    6  A    between atoms: C18_22  and  N3_23 
ROOT
HETATM    1  C1  UNL     1      23.048   1.718  50.593  1.00  0.00     0.050 C 
HETATM    2  C2  UNL     1      23.283   1.421  52.053  1.00  0.00    -0.035 C 
HETATM    3  C3  UNL     1      24.411   1.932  52.528  1.00  0.00    -0.020 C 
HETATM    4  C4  UNL     1      25.371   1.079  52.807  1.00  0.00     0.012 C 
HETATM    5  C5  UNL     1      25.456  -0.348  53.247  1.00  0.00     0.125 C 
HETATM    6  C11 UNL     1      24.686  -0.602  54.525  1.00  0.00     0.148 C 
HETATM    7  N2  UNL     1      23.337  -1.077  54.279  1.00  0.00    -0.390 N 
HETATM    8  C12 UNL     1      22.349  -0.372  53.539  1.00  0.00     0.015 C 
HETATM    9  C13 UNL     1      20.975  -0.893  53.837  1.00  0.00     0.069 C 
HETATM   10  C14 UNL     1      22.207   0.618  52.643  1.00  0.00     0.038 C 
HETATM   11  H13 UNL     1      22.974  -1.986  54.631  1.00  0.00     0.159 HD
ENDROOT
BRANCH  10  12
HETATM   12  C15 UNL     1      20.915   0.999  52.154  1.00  0.00     0.162 C 
HETATM   13  O1  UNL     1      20.337   0.323  51.278  1.00  0.00    -0.292 OA
BRANCH  12  14
HETATM   14  C16 UNL     1      19.711   1.805  52.049  1.00  0.00     0.085 C 
BRANCH  14  15
HETATM   15  C17 UNL     1      20.058   3.272  52.315  1.00  0.00     0.027 C 
BRANCH  15  16
HETATM   16  C18 UNL     1      20.110   4.016  50.973  1.00  0.00     0.117 C 
BRANCH  16  17
HETATM   17  N3  UNL     1      21.228   4.910  50.955  1.00  0.00    -0.408 N 
HETATM   18  C19 UNL     1      22.069   4.882  52.102  1.00  0.00     0.143 C 
HETATM   19  C20 UNL     1      23.430   5.483  51.772  1.00  0.00     0.187 C 
HETATM   20  O2  UNL     1      23.379   6.225  50.601  1.00  0.00    -0.388 OA
HETATM   21  C21 UNL     1      22.246   7.035  50.527  1.00  0.00     0.187 C 
HETATM   22  C22 UNL     1      20.981   6.211  50.422  1.00  0.00     0.143 C 
ENDBRANCH  16  17
ENDBRANCH  15  16
ENDBRANCH  14  15
ENDBRANCH  12  14
ENDBRANCH  10  12
BRANCH   5  23
HETATM   23  N1  UNL     1      26.848  -0.665  53.423  1.00  0.00    -0.377 N 
HETATM   24  C6  UNL     1      27.579   0.237  54.247  1.00  0.00     0.090 A 
HETATM   25  C7  UNL     1      28.878   0.018  54.464  1.00  0.00     0.059 A 
HETATM   26  C8  UNL     1      29.513  -1.132  53.857  1.00  0.00     0.115 A 
HETATM   27  F1  UNL     1      30.839  -1.432  54.028  1.00  0.00    -0.206 F 
HETATM   28  C9  UNL     1      28.851  -1.979  53.090  1.00  0.00     0.035 A 
HETATM   29  C10 UNL     1      27.424  -1.834  52.786  1.00  0.00     0.153 A 
ENDBRANCH   5  23
TORSDOF 6
ENDMDL
MODEL 3
REMARK VINA RESULT:      -8.1      2.240      3.573
REMARK  6 active torsions:
REMARK  status: ('A' for Active; 'I' for Inactive)
REMARK    1  A    between atoms: C5_5  and  N1_6 
REMARK    2  A    between atoms: C14_17  and  C15_18 
REMARK    3  A    between atoms: C15_18  and  C16_20 
REMARK    4  A    between atoms: C16_20  and  C17_21 
REMARK    5  A    between atoms: C17_21  and  C18_22 
REMARK    6  A    between atoms: C18_22  and  N3_23 
ROOT
HETATM    1  C1  UNL     1      22.546   1.299  51.052  1.00  0.00     0.050 C 
HETATM    2  C2  UNL     1      22.893   1.060  52.500  1.00  0.00    -0.035 C 
HETATM    3  C3  UNL     1      23.963   1.729  52.911  1.00  0.00    -0.020 C 
HETATM    4  C4  UNL     1      25.043   1.020  53.148  1.00  0.00     0.012 C 
HETATM    5  C5  UNL     1      25.347  -0.374  53.595  1.00  0.00     0.125 C 
HETATM    6  C11 UNL     1      24.685  -0.711  54.914  1.00  0.00     0.148 C 
HETATM    7  N2  UNL     1      23.403  -1.371  54.743  1.00  0.00    -0.390 N 
HETATM    8  C12 UNL     1      22.291  -0.820  54.049  1.00  0.00     0.015 C 
HETATM    9  C13 UNL     1      21.019  -1.519  54.423  1.00  0.00     0.069 C 
HETATM   10  C14 UNL     1      21.969   0.127  53.153  1.00  0.00     0.038 C 
HETATM   11  H13 UNL     1      23.187  -2.315  55.121  1.00  0.00     0.159 HD
ENDROOT
BRANCH  10  12
HETATM   12  C15 UNL     1      20.614   0.319  52.729  1.00  0.00     0.162 C 
HETATM   13  O1  UNL     1      20.002   1.374  52.998  1.00  0.00    -0.292 OA
BRANCH  12  14
HETATM   14  C16 UNL     1      19.354  -0.018  52.089  1.00  0.00     0.085 C 
BRANCH  14  15
HETATM   15  C17 UNL     1      18.891   1.160  51.228  1.00  0.00     0.027 C 
BRANCH  15  16
HETATM   16  C18 UNL     1      17.382   1.024  50.981  1.00  0.00     0.117 C 
BRANCH  16  17
HETATM   17  N3  UNL     1      16.687   2.105  51.613  1.00  0.00    -0.408 N 
HETATM   18  C19 UNL     1      15.274   1.974  51.702  1.00  0.00     0.143 C 
HETATM   19  C20 UNL     1      14.726   2.903  52.779  1.00  0.00     0.187 C 
HETATM   20  O2  UNL     1      15.651   3.879  53.116  1.00  0.00    -0.388 OA
HETATM   21  C21 UNL     1      16.279   4.433  52.002  1.00  0.00     0.187 C 
HETATM   22  C22 UNL     1      17.151   3.418  51.295  1.00  0.00     0.143 C 
ENDBRANCH  16  17
ENDBRANCH  15  16
ENDBRANCH  14  15
ENDBRANCH  12  14
ENDBRANCH  10  12
BRANCH   5  23
HETATM   23  N1  UNL     1      26.777  -0.494  53.701  1.00  0.00    -0.377 N 
HETATM   24  C6  UNL     1      27.350  -1.587  52.992  1.00  0.00     0.090 A 
HETATM   25  C7  UNL     1      28.671  -1.773  53.035  1.00  0.00     0.059 A 
HETATM   26  C8  UNL     1      29.490  -0.859  53.802  1.00  0.00     0.115 A 
HETATM   27  F1  UNL     1      30.852  -0.976  53.899  1.00  0.00    -0.206 F 
HETATM   28  C9  UNL     1      28.976   0.160  54.466  1.00  0.00     0.035 A 
HETATM   29  C10 UNL     1      27.539   0.457  54.486  1.00  0.00     0.153 A 
ENDBRANCH   5  23
TORSDOF 6
ENDMDL
MODEL 4
REMARK VINA RESULT:      -7.9      7.020      9.322
REMARK  6 active torsions:
REMARK  status: ('A' for Active; 'I' for Inactive)
REMARK    1  A    between atoms: C5_5  and  N1_6 
REMARK    2  A    between atoms: C14_17  and  C15_18 
REMARK    3  A    between atoms: C15_18  and  C16_20 
REMARK    4  A    between atoms: C16_20  and  C17_21 
REMARK    5  A    between atoms: C17_21  and  C18_22 
REMARK    6  A    between atoms: C18_22  and  N3_23 
ROOT
HETATM    1  C1  UNL     1      27.277   4.357  49.023  1.00  0.00     0.050 C 
HETATM    2  C2  UNL     1      26.503   5.647  48.910  1.00  0.00    -0.035 C 
HETATM    3  C3  UNL     1      26.950   6.456  47.960  1.00  0.00    -0.020 C 
HETATM    4  C4  UNL     1      27.563   7.548  48.359  1.00  0.00     0.012 C 
HETATM    5  C5  UNL     1      27.496   8.454  49.546  1.00  0.00     0.125 C 
HETATM    6  C11 UNL     1      26.104   9.003  49.772  1.00  0.00     0.148 C 
HETATM    7  N2  UNL     1      25.337   8.211  50.716  1.00  0.00    -0.390 N 
HETATM    8  C12 UNL     1      25.029   6.832  50.559  1.00  0.00     0.015 C 
HETATM    9  C13 UNL     1      23.884   6.429  51.439  1.00  0.00     0.069 C 
HETATM   10  C14 UNL     1      25.412   5.734  49.887  1.00  0.00     0.038 C 
HETATM   11  H13 UNL     1      24.941   8.592  51.599  1.00  0.00     0.159 HD
ENDROOT
BRANCH  10  12
HETATM   12  C15 UNL     1      24.751   4.477  50.078  1.00  0.00     0.162 C 
HETATM   13  O1  UNL     1      24.140   3.926  49.138  1.00  0.00    -0.292 OA
BRANCH  12  14
HETATM   14  C16 UNL     1      24.304   3.299  50.801  1.00  0.00     0.085 C 
BRANCH  14  15
HETATM   15  C17 UNL     1      25.517   2.568  51.379  1.00  0.00     0.027 C 
BRANCH  15  16
HETATM   16  C18 UNL     1      25.256   2.282  52.865  1.00  0.00     0.117 C 
BRANCH  16  17
HETATM   17  N3  UNL     1      26.467   1.852  53.497  1.00  0.00    -0.408 N 
HETATM   18  C19 UNL     1      27.675   2.181  52.823  1.00  0.00     0.143 C 
HETATM   19  C20 UNL     1      28.853   2.113  53.789  1.00  0.00     0.187 C 
HETATM   20  O2  UNL     1      28.520   1.404  54.933  1.00  0.00    -0.388 OA
HETATM   21  C21 UNL     1      27.805   0.239  54.656  1.00  0.00     0.187 C 
HETATM   22  C22 UNL     1      26.439   0.551  54.083  1.00  0.00     0.143 C 
ENDBRANCH  16  17
ENDBRANCH  15  16
ENDBRANCH  14  15
ENDBRANCH  12  14
ENDBRANCH  10  12
BRANCH   5  23
HETATM   23  N1  UNL     1      28.433   9.524  49.329  1.00  0.00    -0.377 N 
HETATM   24  C6  UNL     1      29.806   9.158  49.413  1.00  0.00     0.090 A 
HETATM   25  C7  UNL     1      30.743  10.089  49.225  1.00  0.00     0.059 A 
HETATM   26  C8  UNL     1      30.343  11.449  48.938  1.00  0.00     0.115 A 
HETATM   27  F1  UNL     1      31.238  12.465  48.731  1.00  0.00    -0.206 F 
HETATM   28  C9  UNL     1      29.074  11.807  48.857  1.00  0.00     0.035 A 
HETATM   29  C10 UNL     1      27.965  10.867  49.047  1.00  0.00     0.153 A 
ENDBRANCH   5  23
TORSDOF 6
ENDMDL
MODEL 5
REMARK VINA RESULT:      -7.5      5.425      7.997
REMARK  6 active torsions:
REMARK  status: ('A' for Active; 'I' for Inactive)
REMARK    1  A    between atoms: C5_5  and  N1_6 
REMARK    2  A    between atoms: C14_17  and  C15_18 
REMARK    3  A    between atoms: C15_18  and  C16_20 
REMARK    4  A    between atoms: C16_20  and  C17_21 
REMARK    5  A    between atoms: C17_21  and  C18_22 
REMARK    6  A    between atoms: C18_22  and  N3_23 
ROOT
HETATM    1  C1  UNL     1      26.405   2.552  51.153  1.00  0.00     0.050 C 
HETATM    2  C2  UNL     1      25.499   3.522  50.437  1.00  0.00    -0.035 C 
HETATM    3  C3  UNL     1      25.967   3.923  49.262  1.00  0.00    -0.020 C 
HETATM    4  C4  UNL     1      26.379   5.168  49.188  1.00  0.00     0.012 C 
HETATM    5  C5  UNL     1      26.039   6.462  49.855  1.00  0.00     0.125 C 
HETATM    6  C11 UNL     1      24.571   6.808  49.722  1.00  0.00     0.148 C 
HETATM    7  N2  UNL     1      23.788   6.366  50.861  1.00  0.00    -0.390 N 
HETATM    8  C12 UNL     1      23.679   5.018  51.300  1.00  0.00     0.015 C 
HETATM    9  C13 UNL     1      22.484   4.832  52.186  1.00  0.00     0.069 C 
HETATM   10  C14 UNL     1      24.284   3.823  51.201  1.00  0.00     0.038 C 
HETATM   11  H13 UNL     1      23.231   7.009  51.461  1.00  0.00     0.159 HD
ENDROOT
BRANCH  10  12
HETATM   12  C15 UNL     1      23.765   2.669  51.873  1.00  0.00     0.162 C 
HETATM   13  O1  UNL     1      23.196   1.759  51.236  1.00  0.00    -0.292 OA
BRANCH  12  14
HETATM   14  C16 UNL     1      23.461   1.804  52.999  1.00  0.00     0.085 C 
BRANCH  14  15
HETATM   15  C17 UNL     1      23.786   0.355  52.628  1.00  0.00     0.027 C 
BRANCH  15  16
HETATM   16  C18 UNL     1      24.388  -0.344  53.856  1.00  0.00     0.117 C 
BRANCH  16  17
HETATM   17  N3  UNL     1      25.816  -0.240  53.822  1.00  0.00    -0.408 N 
HETATM   18  C19 UNL     1      26.503  -1.290  53.151  1.00  0.00     0.143 C 
HETATM   19  C20 UNL     1      27.908  -0.838  52.768  1.00  0.00     0.187 C 
HETATM   20  O2  UNL     1      28.281   0.292  53.479  1.00  0.00    -0.388 OA
HETATM   21  C21 UNL     1      27.940   0.215  54.830  1.00  0.00     0.187 C 
HETATM   22  C22 UNL     1      26.439   0.216  55.023  1.00  0.00     0.143 C 
ENDBRANCH  16  17
ENDBRANCH  15  16
ENDBRANCH  14  15
ENDBRANCH  12  14
ENDBRANCH  10  12
BRANCH   5  23
HETATM   23  N1  UNL     1      26.856   7.486  49.259  1.00  0.00    -0.377 N 
HETATM   24  C6  UNL     1      26.774   8.766  49.874  1.00  0.00     0.090 A 
HETATM   25  C7  UNL     1      27.500   9.774  49.386  1.00  0.00     0.059 A 
HETATM   26  C8  UNL     1      28.354   9.541  48.241  1.00  0.00     0.115 A 
HETATM   27  F1  UNL     1      29.132  10.518  47.677  1.00  0.00    -0.206 F 
HETATM   28  C9  UNL     1      28.442   8.361  47.657  1.00  0.00     0.035 A 
HETATM   29  C10 UNL     1      27.690   7.186  48.111  1.00  0.00     0.153 A 
ENDBRANCH   5  23
TORSDOF 6
ENDMDL
MODEL 6
REMARK VINA RESULT:      -7.4      2.517      3.182
REMARK  6 active torsions:
REMARK  status: ('A' for Active; 'I' for Inactive)
REMARK    1  A    between atoms: C5_5  and  N1_6 
REMARK    2  A    between atoms: C14_17  and  C15_18 
REMARK    3  A    between atoms: C15_18  and  C16_20 
REMARK    4  A    between atoms: C16_20  and  C17_21 
REMARK    5  A    between atoms: C17_21  and  C18_22 
REMARK    6  A    between atoms: C18_22  and  N3_23 
ROOT
HETATM    1  C1  UNL     1      24.000   2.854  49.622  1.00  0.00     0.050 C 
HETATM    2  C2  UNL     1      23.927   2.432  51.069  1.00  0.00    -0.035 C 
HETATM    3  C3  UNL     1      24.971   2.817  51.791  1.00  0.00    -0.020 C 
HETATM    4  C4  UNL     1      25.802   1.873  52.171  1.00  0.00     0.012 C 
HETATM    5  C5  UNL     1      25.711   0.416  52.492  1.00  0.00     0.125 C 
HETATM    6  C11 UNL     1      24.693   0.129  53.574  1.00  0.00     0.148 C 
HETATM    7  N2  UNL     1      23.390  -0.220  53.037  1.00  0.00    -0.390 N 
HETATM    8  C12 UNL     1      22.612   0.613  52.188  1.00  0.00     0.015 C 
HETATM    9  C13 UNL     1      21.176   0.180  52.174  1.00  0.00     0.069 C 
HETATM   10  C14 UNL     1      22.709   1.674  51.371  1.00  0.00     0.038 C 
HETATM   11  H13 UNL     1      22.910  -1.122  53.232  1.00  0.00     0.159 HD
ENDROOT
BRANCH  10  12
HETATM   12  C15 UNL     1      21.563   2.190  50.682  1.00  0.00     0.162 C 
HETATM   13  O1  UNL     1      21.245   1.757  49.555  1.00  0.00    -0.292 OA
BRANCH  12  14
HETATM   14  C16 UNL     1      20.392   3.025  50.477  1.00  0.00     0.085 C 
BRANCH  14  15
HETATM   15  C17 UNL     1      20.835   4.417  50.023  1.00  0.00     0.027 C 
BRANCH  15  16
HETATM   16  C18 UNL     1      21.431   5.161  51.227  1.00  0.00     0.117 C 
BRANCH  16  17
HETATM   17  N3  UNL     1      22.355   6.156  50.775  1.00  0.00    -0.408 N 
HETATM   18  C19 UNL     1      22.405   6.371  49.370  1.00  0.00     0.143 C 
HETATM   19  C20 UNL     1      23.029   7.729  49.067  1.00  0.00     0.187 C 
HETATM   20  O2  UNL     1      23.714   8.221  50.167  1.00  0.00    -0.388 OA
HETATM   21  C21 UNL     1      24.487   7.248  50.800  1.00  0.00     0.187 C 
HETATM   22  C22 UNL     1      23.623   6.179  51.432  1.00  0.00     0.143 C 
ENDBRANCH  16  17
ENDBRANCH  15  16
ENDBRANCH  14  15
ENDBRANCH  12  14
ENDBRANCH  10  12
BRANCH   5  23
HETATM   23  N1  UNL     1      27.020  -0.021  52.900  1.00  0.00    -0.377 N 
HETATM   24  C6  UNL     1      27.271  -1.414  52.750  1.00  0.00     0.090 A 
HETATM   25  C7  UNL     1      28.461  -1.906  53.104  1.00  0.00     0.059 A 
HETATM   26  C8  UNL     1      29.468  -1.011  53.631  1.00  0.00     0.115 A 
HETATM   27  F1  UNL     1      30.714  -1.431  54.017  1.00  0.00    -0.206 F 
HETATM   28  C9  UNL     1      29.253   0.284  53.777  1.00  0.00     0.035 A 
HETATM   29  C10 UNL     1      27.985   0.928  53.421  1.00  0.00     0.153 A 
ENDBRANCH   5  23
TORSDOF 6
ENDMDL
MODEL 7
REMARK VINA RESULT:      -7.2      6.664      8.447
REMARK  6 active torsions:
REMARK  status: ('A' for Active; 'I' for Inactive)
REMARK    1  A    between atoms: C5_5  and  N1_6 
REMARK    2  A    between atoms: C14_17  and  C15_18 
REMARK    3  A    between atoms: C15_18  and  C16_20 
REMARK    4  A    between atoms: C16_20  and  C17_21 
REMARK    5  A    between atoms: C17_21  and  C18_22 
REMARK    6  A    between atoms: C18_22  and  N3_23 
ROOT
HETATM    1  C1  UNL     1      23.725   7.148  49.705  1.00  0.00     0.050 C 
HETATM    2  C2  UNL     1      24.492   6.001  49.096  1.00  0.00    -0.035 C 
HETATM    3  C3  UNL     1      23.832   4.850  49.110  1.00  0.00    -0.020 C 
HETATM    4  C4  UNL     1      24.274   3.931  49.939  1.00  0.00     0.012 C 
HETATM    5  C5  UNL     1      25.593   3.551  50.531  1.00  0.00     0.125 C 
HETATM    6  C11 UNL     1      26.640   3.278  49.473  1.00  0.00     0.148 C 
HETATM    7  N2  UNL     1      27.453   4.444  49.178  1.00  0.00    -0.390 N 
HETATM    8  C12 UNL     1      26.950   5.687  48.705  1.00  0.00     0.015 C 
HETATM    9  C13 UNL     1      28.039   6.510  48.085  1.00  0.00     0.069 C 
HETATM   10  C14 UNL     1      25.818   6.403  48.616  1.00  0.00     0.038 C 
HETATM   11  H13 UNL     1      28.487   4.467  49.288  1.00  0.00     0.159 HD
ENDROOT
BRANCH  10  12
HETATM   12  C15 UNL     1      25.805   7.702  48.010  1.00  0.00     0.162 C 
HETATM   13  O1  UNL     1      25.456   7.850  46.821  1.00  0.00    -0.292 OA
BRANCH  12  14
HETATM   14  C16 UNL     1      25.976   9.142  47.936  1.00  0.00     0.085 C 
BRANCH  14  15
HETATM   15  C17 UNL     1      26.749   9.626  49.165  1.00  0.00     0.027 C 
BRANCH  15  16
HETATM   16  C18 UNL     1      27.785  10.667  48.716  1.00  0.00     0.117 C 
BRANCH  16  17
HETATM   17  N3  UNL     1      29.017  10.017  48.387  1.00  0.00    -0.408 N 
HETATM   18  C19 UNL     1      29.912   9.790  49.468  1.00  0.00     0.143 C 
HETATM   19  C20 UNL     1      30.917   8.703  49.101  1.00  0.00     0.187 C 
HETATM   20  O2  UNL     1      30.948   8.494  47.731  1.00  0.00    -0.388 OA
HETATM   21  C21 UNL     1      30.944   9.684  47.004  1.00  0.00     0.187 C 
HETATM   22  C22 UNL     1      29.637  10.429  47.169  1.00  0.00     0.143 C 
ENDBRANCH  16  17
ENDBRANCH  15  16
ENDBRANCH  14  15
ENDBRANCH  12  14
ENDBRANCH  10  12
BRANCH   5  23
HETATM   23  N1  UNL     1      25.382   2.385  51.348  1.00  0.00    -0.377 N 
HETATM   24  C6  UNL     1      26.524   1.556  51.532  1.00  0.00     0.090 A 
HETATM   25  C7  UNL     1      26.418   0.453  52.276  1.00  0.00     0.059 A 
HETATM   26  C8  UNL     1      25.144   0.126  52.880  1.00  0.00     0.115 A 
HETATM   27  F1  UNL     1      24.948  -0.984  53.658  1.00  0.00    -0.206 F 
HETATM   28  C9  UNL     1      24.075   0.883  52.720  1.00  0.00     0.035 A 
HETATM   29  C10 UNL     1      24.079   2.115  51.924  1.00  0.00     0.153 A 
ENDBRANCH   5  23
TORSDOF 6
ENDMDL
MODEL 8
REMARK VINA RESULT:      -7.2      3.978      8.011
REMARK  6 active torsions:
REMARK  status: ('A' for Active; 'I' for Inactive)
REMARK    1  A    between atoms: C5_5  and  N1_6 
REMARK    2  A    between atoms: C14_17  and  C15_18 
REMARK    3  A    between atoms: C15_18  and  C16_20 
REMARK    4  A    between atoms: C16_20  and  C17_21 
REMARK    5  A    between atoms: C17_21  and  C18_22 
REMARK    6  A    between atoms: C18_22  and  N3_23 
ROOT
HETATM    1  C1  UNL     1      22.483   3.239  48.547  1.00  0.00     0.050 C 
HETATM    2  C2  UNL     1      22.464   2.148  49.589  1.00  0.00    -0.035 C 
HETATM    3  C3  UNL     1      21.849   1.042  49.193  1.00  0.00    -0.020 C 
HETATM    4  C4  UNL     1      20.689   0.784  49.754  1.00  0.00     0.012 C 
HETATM    5  C5  UNL     1      20.039   1.058  51.073  1.00  0.00     0.125 C 
HETATM    6  C11 UNL     1      20.859   0.540  52.235  1.00  0.00     0.148 C 
HETATM    7  N2  UNL     1      21.731   1.554  52.799  1.00  0.00    -0.390 N 
HETATM    8  C12 UNL     1      22.743   2.247  52.080  1.00  0.00     0.015 C 
HETATM    9  C13 UNL     1      23.736   2.875  53.012  1.00  0.00     0.069 C 
HETATM   10  C14 UNL     1      23.134   2.548  50.831  1.00  0.00     0.038 C 
HETATM   11  H13 UNL     1      21.689   1.863  53.791  1.00  0.00     0.159 HD
ENDROOT
BRANCH  10  12
HETATM   12  C15 UNL     1      24.309   3.332  50.587  1.00  0.00     0.162 C 
HETATM   13  O1  UNL     1      24.247   4.578  50.537  1.00  0.00    -0.292 OA
BRANCH  12  14
HETATM   14  C16 UNL     1      25.715   3.585  50.329  1.00  0.00     0.085 C 
BRANCH  14  15
HETATM   15  C17 UNL     1      26.515   2.304  50.577  1.00  0.00     0.027 C 
BRANCH  15  16
HETATM   16  C18 UNL     1      27.252   2.437  51.917  1.00  0.00     0.117 C 
BRANCH  16  17
HETATM   17  N3  UNL     1      27.097   1.234  52.679  1.00  0.00    -0.408 N 
HETATM   18  C19 UNL     1      26.336   0.201  52.066  1.00  0.00     0.143 C 
HETATM   19  C20 UNL     1      26.643  -1.140  52.725  1.00  0.00     0.187 C 
HETATM   20  O2  UNL     1      27.263  -0.964  53.952  1.00  0.00    -0.388 OA
HETATM   21  C21 UNL     1      26.674   0.045  54.714  1.00  0.00     0.187 C 
HETATM   22  C22 UNL     1      26.865   1.404  54.077  1.00  0.00     0.143 C 
ENDBRANCH  16  17
ENDBRANCH  15  16
ENDBRANCH  14  15
ENDBRANCH  12  14
ENDBRANCH  10  12
BRANCH   5  23
HETATM   23  N1  UNL     1      18.740   0.439  51.053  1.00  0.00    -0.377 N 
HETATM   24  C6  UNL     1      18.394  -0.286  52.228  1.00  0.00     0.090 A 
HETATM   25  C7  UNL     1      17.206  -0.891  52.296  1.00  0.00     0.059 A 
HETATM   26  C8  UNL     1      16.298  -0.797  51.173  1.00  0.00     0.115 A 
HETATM   27  F1  UNL     1      15.061  -1.386  51.159  1.00  0.00    -0.206 F 
HETATM   28  C9  UNL     1      16.603  -0.129  50.075  1.00  0.00     0.035 A 
HETATM   29  C10 UNL     1      17.878   0.573  49.895  1.00  0.00     0.153 A 
ENDBRANCH   5  23
TORSDOF 6
ENDMDL
MODEL 9
REMARK VINA RESULT:      -7.1      4.358      6.201
REMARK  6 active torsions:
REMARK  status: ('A' for Active; 'I' for Inactive)
REMARK    1  A    between atoms: C5_5  and  N1_6 
REMARK    2  A    between atoms: C14_17  and  C15_18 
REMARK    3  A    between atoms: C15_18  and  C16_20 
REMARK    4  A    between atoms: C16_20  and  C17_21 
REMARK    5  A    between atoms: C17_21  and  C18_22 
REMARK    6  A    between atoms: C18_22  and  N3_23 
ROOT
HETATM    1  C1  UNL     1      18.690   0.954  50.524  1.00  0.00     0.050 C 
HETATM    2  C2  UNL     1      19.055   0.711  51.967  1.00  0.00    -0.035 C 
HETATM    3  C3  UNL     1      19.904   1.603  52.461  1.00  0.00    -0.020 C 
HETATM    4  C4  UNL     1      21.126   1.182  52.697  1.00  0.00     0.012 C 
HETATM    5  C5  UNL     1      21.772  -0.114  53.068  1.00  0.00     0.125 C 
HETATM    6  C11 UNL     1      21.191  -0.702  54.336  1.00  0.00     0.148 C 
HETATM    7  N2  UNL     1      20.129  -1.657  54.073  1.00  0.00    -0.390 N 
HETATM    8  C12 UNL     1      18.928  -1.365  53.371  1.00  0.00     0.015 C 
HETATM    9  C13 UNL     1      17.874  -2.393  53.650  1.00  0.00     0.069 C 
HETATM   10  C14 UNL     1      18.391  -0.473  52.523  1.00  0.00     0.038 C 
HETATM   11  H13 UNL     1      20.158  -2.650  54.383  1.00  0.00     0.159 HD
ENDROOT
BRANCH  10  12
HETATM   12  C15 UNL     1      17.042  -0.607  52.057  1.00  0.00     0.162 C 
HETATM   13  O1  UNL     1      16.802  -0.932  50.876  1.00  0.00    -0.292 OA
BRANCH  12  14
HETATM   14  C16 UNL     1      15.593  -0.592  52.143  1.00  0.00     0.085 C 
BRANCH  14  15
HETATM   15  C17 UNL     1      15.119   0.825  52.472  1.00  0.00     0.027 C 
BRANCH  15  16
HETATM   16  C18 UNL     1      13.741   0.739  53.145  1.00  0.00     0.117 C 
BRANCH  16  17
HETATM   17  N3  UNL     1      13.319   2.043  53.559  1.00  0.00    -0.408 N 
HETATM   18  C19 UNL     1      11.916   2.232  53.695  1.00  0.00     0.143 C 
HETATM   19  C20 UNL     1      11.632   3.446  54.573  1.00  0.00     0.187 C 
HETATM   20  O2  UNL     1      12.755   4.250  54.694  1.00  0.00    -0.388 OA
HETATM   21  C21 UNL     1      13.418   4.434  53.480  1.00  0.00     0.187 C 
HETATM   22  C22 UNL     1      14.022   3.141  52.977  1.00  0.00     0.143 C 
ENDBRANCH  16  17
ENDBRANCH  15  16
ENDBRANCH  14  15
ENDBRANCH  12  14
ENDBRANCH  10  12
BRANCH   5  23
HETATM   23  N1  UNL     1      23.181   0.132  53.224  1.00  0.00    -0.377 N 
HETATM   24  C6  UNL     1      23.851  -0.723  54.143  1.00  0.00     0.090 A 
HETATM   25  C7  UNL     1      25.160  -0.566  54.348  1.00  0.00     0.059 A 
HETATM   26  C8  UNL     1      25.869   0.473  53.631  1.00  0.00     0.115 A 
HETATM   27  F1  UNL     1      27.211   0.703  53.780  1.00  0.00    -0.206 F 
HETATM   28  C9  UNL     1      25.264   1.276  52.775  1.00  0.00     0.035 A 
HETATM   29  C10 UNL     1      23.831   1.190  52.475  1.00  0.00     0.153 A 
ENDBRANCH   5  23
TORSDOF 6
ENDMDL
