MODEL 1
REMARK VINA RESULT:      -9.0      0.000      0.000
REMARK  1 active torsions:
REMARK  status: ('A' for Active; 'I' for Inactive)
REMARK    1  A    between atoms: N1_7  and  C6_8 
ROOT
HETATM    1  C6  UNL     1      26.227   1.587  52.300  1.00  0.00     0.164 A 
HETATM    2  N2  UNL     1      26.455   2.415  51.241  1.00  0.00    -0.222 NA
HETATM    3  C7  UNL     1      25.399   2.897  50.519  1.00  0.00     0.238 A 
HETATM    4  N3  UNL     1      24.096   2.596  50.796  1.00  0.00    -0.215 NA
HETATM    5  C8  UNL     1      23.855   1.768  51.857  1.00  0.00     0.202 A 
HETATM    6  C9  UNL     1      24.912   1.271  52.599  1.00  0.00     0.129 A 
HETATM    7  N4  UNL     1      24.875   0.433  53.747  1.00  0.00    -0.379 N 
HETATM    8  C10 UNL     1      23.939  -0.607  54.085  1.00  0.00     0.161 C 
HETATM    9  C11 UNL     1      22.578  -0.355  53.624  1.00  0.00    -0.007 A 
HETATM   10  C12 UNL     1      21.805  -1.322  54.278  1.00  0.00     0.011 A 
HETATM   11  C13 UNL     1      20.421  -1.415  54.096  1.00  0.00     0.001 A 
HETATM   12  C14 UNL     1      19.779  -0.534  53.251  1.00  0.00     0.003 A 
HETATM   13  C15 UNL     1      20.522   0.420  52.603  1.00  0.00     0.038 A 
HETATM   14  C16 UNL     1      21.884   0.498  52.792  1.00  0.00     0.086 A 
HETATM   15  O1  UNL     1      22.493   1.512  52.068  1.00  0.00    -0.289 OA
HETATM   16  H7  UNL     1      25.690   0.698  54.388  1.00  0.00     0.160 HD
ENDROOT
BRANCH   1  17
HETATM   17  N1  UNL     1      27.375   1.088  52.980  1.00  0.00    -0.305 N 
HETATM   18  C1  UNL     1      28.277   1.794  53.870  1.00  0.00     0.300 A 
HETATM   19  F1  UNL     1      28.892   2.857  53.246  1.00  0.00    -0.222 F 
HETATM   20  C2  UNL     1      29.333   0.840  54.296  1.00  0.00     0.032 A 
HETATM   21  C3  UNL     1      29.547  -0.434  54.018  1.00  0.00     0.002 A 
HETATM   22  C4  UNL     1      28.569  -1.039  53.122  1.00  0.00     0.017 A 
HETATM   23  C5  UNL     1      27.559  -0.303  52.648  1.00  0.00     0.096 A 
ENDBRANCH   1  17
TORSDOF 1
ENDMDL
MODEL 2
REMARK VINA RESULT:      -8.9      1.767      4.331
REMARK  1 active torsions:
REMARK  status: ('A' for Active; 'I' for Inactive)
REMARK    1  A    between atoms: N1_7  and  C6_8 
ROOT
HETATM    1  C6  UNL     1      25.783   0.049  53.163  1.00  0.00     0.164 A 
HETATM    2  N2  UNL     1      24.821  -0.612  53.869  1.00  0.00    -0.222 NA
HETATM    3  C7  UNL     1      23.502  -0.383  53.594  1.00  0.00     0.238 A 
HETATM    4  N3  UNL     1      23.072   0.486  52.633  1.00  0.00    -0.215 NA
HETATM    5  C8  UNL     1      24.027   1.153  51.917  1.00  0.00     0.202 A 
HETATM    6  C9  UNL     1      25.367   0.934  52.181  1.00  0.00     0.129 A 
HETATM    7  N4  UNL     1      26.502   1.494  51.536  1.00  0.00    -0.379 N 
HETATM    8  C10 UNL     1      26.666   2.799  50.952  1.00  0.00     0.161 C 
HETATM    9  C11 UNL     1      25.452   3.337  50.349  1.00  0.00    -0.007 A 
HETATM   10  C12 UNL     1      25.889   4.451  49.621  1.00  0.00     0.011 A 
HETATM   11  C13 UNL     1      25.006   5.252  48.889  1.00  0.00     0.001 A 
HETATM   12  C14 UNL     1      23.660   4.951  48.868  1.00  0.00     0.003 A 
HETATM   13  C15 UNL     1      23.216   3.863  49.575  1.00  0.00     0.038 A 
HETATM   14  C16 UNL     1      24.097   3.084  50.293  1.00  0.00     0.086 A 
HETATM   15  O1  UNL     1      23.496   2.023  50.954  1.00  0.00    -0.289 OA
HETATM   16  H7  UNL     1      27.284   0.762  51.528  1.00  0.00     0.160 HD
ENDROOT
BRANCH   1  17
HETATM   17  N1  UNL     1      27.135  -0.204  53.532  1.00  0.00    -0.305 N 
HETATM   18  C1  UNL     1      27.983   0.554  54.432  1.00  0.00     0.300 A 
HETATM   19  F1  UNL     1      28.158   1.853  54.007  1.00  0.00    -0.222 F 
HETATM   20  C2  UNL     1      29.315  -0.103  54.460  1.00  0.00     0.032 A 
HETATM   21  C3  UNL     1      29.794  -1.174  53.851  1.00  0.00     0.002 A 
HETATM   22  C4  UNL     1      28.845  -1.859  52.980  1.00  0.00     0.017 A 
HETATM   23  C5  UNL     1      27.604  -1.384  52.848  1.00  0.00     0.096 A 
ENDBRANCH   1  17
TORSDOF 1
ENDMDL
MODEL 3
REMARK VINA RESULT:      -8.5      2.407      4.174
REMARK  1 active torsions:
REMARK  status: ('A' for Active; 'I' for Inactive)
REMARK    1  A    between atoms: N1_7  and  C6_8 
ROOT
HETATM    1  C6  UNL     1      24.829  -0.177  53.665  1.00  0.00     0.164 A 
HETATM    2  N2  UNL     1      24.124  -1.063  54.424  1.00  0.00    -0.222 NA
HETATM    3  C7  UNL     1      22.771  -0.916  54.555  1.00  0.00     0.238 A 
HETATM    4  N3  UNL     1      22.060   0.086  53.959  1.00  0.00    -0.215 NA
HETATM    5  C8  UNL     1      22.756   0.980  53.194  1.00  0.00     0.202 A 
HETATM    6  C9  UNL     1      24.126   0.846  53.050  1.00  0.00     0.129 A 
HETATM    7  N4  UNL     1      25.019   1.639  52.280  1.00  0.00    -0.379 N 
HETATM    8  C10 UNL     1      24.964   3.047  51.985  1.00  0.00     0.161 C 
HETATM    9  C11 UNL     1      23.610   3.574  51.852  1.00  0.00    -0.007 A 
HETATM   10  C12 UNL     1      23.787   4.853  51.309  1.00  0.00     0.011 A 
HETATM   11  C13 UNL     1      22.706   5.696  51.029  1.00  0.00     0.001 A 
HETATM   12  C14 UNL     1      21.419   5.272  51.286  1.00  0.00     0.003 A 
HETATM   13  C15 UNL     1      21.229   4.022  51.816  1.00  0.00     0.038 A 
HETATM   14  C16 UNL     1      22.303   3.204  52.089  1.00  0.00     0.086 A 
HETATM   15  O1  UNL     1      21.948   1.973  52.622  1.00  0.00    -0.289 OA
HETATM   16  H7  UNL     1      25.799   1.008  51.906  1.00  0.00     0.160 HD
ENDROOT
BRANCH   1  17
HETATM   17  N1  UNL     1      26.240  -0.364  53.608  1.00  0.00    -0.305 N 
HETATM   18  C1  UNL     1      27.021  -1.050  52.596  1.00  0.00     0.300 A 
HETATM   19  F1  UNL     1      26.663  -2.375  52.478  1.00  0.00    -0.222 F 
HETATM   20  C2  UNL     1      28.446  -0.995  53.009  1.00  0.00     0.032 A 
HETATM   21  C3  UNL     1      29.051  -0.460  54.056  1.00  0.00     0.002 A 
HETATM   22  C4  UNL     1      28.164   0.211  54.998  1.00  0.00     0.017 A 
HETATM   23  C5  UNL     1      26.849   0.243  54.765  1.00  0.00     0.096 A 
ENDBRANCH   1  17
TORSDOF 1
ENDMDL
MODEL 4
REMARK VINA RESULT:      -8.4      2.365      4.210
REMARK  1 active torsions:
REMARK  status: ('A' for Active; 'I' for Inactive)
REMARK    1  A    between atoms: N1_7  and  C6_8 
ROOT
HETATM    1  C6  UNL     1      23.924  -0.322  53.717  1.00  0.00     0.164 A 
HETATM    2  N2  UNL     1      24.393  -0.839  54.889  1.00  0.00    -0.222 NA
HETATM    3  C7  UNL     1      23.552  -1.547  55.701  1.00  0.00     0.238 A 
HETATM    4  N3  UNL     1      22.239  -1.778  55.409  1.00  0.00    -0.215 NA
HETATM    5  C8  UNL     1      21.757  -1.266  54.237  1.00  0.00     0.202 A 
HETATM    6  C9  UNL     1      22.594  -0.547  53.402  1.00  0.00     0.129 A 
HETATM    7  N4  UNL     1      22.302   0.033  52.137  1.00  0.00    -0.379 N 
HETATM    8  C10 UNL     1      21.070   0.605  51.661  1.00  0.00     0.161 C 
HETATM    9  C11 UNL     1      19.872  -0.041  52.185  1.00  0.00    -0.007 A 
HETATM   10  C12 UNL     1      18.830   0.472  51.404  1.00  0.00     0.011 A 
HETATM   11  C13 UNL     1      17.498   0.092  51.600  1.00  0.00     0.001 A 
HETATM   12  C14 UNL     1      17.182  -0.817  52.588  1.00  0.00     0.003 A 
HETATM   13  C15 UNL     1      18.191  -1.330  53.361  1.00  0.00     0.038 A 
HETATM   14  C16 UNL     1      19.498  -0.945  53.157  1.00  0.00     0.086 A 
HETATM   15  O1  UNL     1      20.401  -1.550  54.019  1.00  0.00    -0.289 OA
HETATM   16  H7  UNL     1      23.181  -0.020  51.528  1.00  0.00     0.160 HD
ENDROOT
BRANCH   1  17
HETATM   17  N1  UNL     1      24.843   0.442  52.942  1.00  0.00    -0.305 N 
HETATM   18  C1  UNL     1      25.970  -0.025  52.157  1.00  0.00     0.300 A 
HETATM   19  F1  UNL     1      26.899  -0.685  52.931  1.00  0.00    -0.222 F 
HETATM   20  C2  UNL     1      26.631   1.164  51.561  1.00  0.00     0.032 A 
HETATM   21  C3  UNL     1      26.366   2.458  51.627  1.00  0.00     0.002 A 
HETATM   22  C4  UNL     1      25.203   2.804  52.436  1.00  0.00     0.017 A 
HETATM   23  C5  UNL     1      24.505   1.840  53.043  1.00  0.00     0.096 A 
ENDBRANCH   1  17
TORSDOF 1
ENDMDL
MODEL 5
REMARK VINA RESULT:      -8.2      2.872      6.264
REMARK  1 active torsions:
REMARK  status: ('A' for Active; 'I' for Inactive)
REMARK    1  A    between atoms: N1_7  and  C6_8 
ROOT
HETATM    1  C6  UNL     1      23.500   2.488  50.838  1.00  0.00     0.164 A 
HETATM    2  N2  UNL     1      23.548   3.559  49.995  1.00  0.00    -0.222 NA
HETATM    3  C7  UNL     1      24.740   4.188  49.768  1.00  0.00     0.238 A 
HETATM    4  N3  UNL     1      25.917   3.806  50.346  1.00  0.00    -0.215 NA
HETATM    5  C8  UNL     1      25.881   2.732  51.192  1.00  0.00     0.202 A 
HETATM    6  C9  UNL     1      24.684   2.082  51.432  1.00  0.00     0.129 A 
HETATM    7  N4  UNL     1      24.440   0.939  52.241  1.00  0.00    -0.379 N 
HETATM    8  C10 UNL     1      25.092   0.530  53.458  1.00  0.00     0.161 C 
HETATM    9  C11 UNL     1      26.508   0.875  53.520  1.00  0.00    -0.007 A 
HETATM   10  C12 UNL     1      26.991   0.164  54.625  1.00  0.00     0.011 A 
HETATM   11  C13 UNL     1      28.331   0.232  55.023  1.00  0.00     0.001 A 
HETATM   12  C14 UNL     1      29.218   1.017  54.318  1.00  0.00     0.003 A 
HETATM   13  C15 UNL     1      28.761   1.719  53.233  1.00  0.00     0.038 A 
HETATM   14  C16 UNL     1      27.439   1.644  52.853  1.00  0.00     0.086 A 
HETATM   15  O1  UNL     1      27.131   2.411  51.739  1.00  0.00    -0.289 OA
HETATM   16  H7  UNL     1      23.654   0.367  51.794  1.00  0.00     0.160 HD
ENDROOT
BRANCH   1  17
HETATM   17  N1  UNL     1      22.218   1.907  51.062  1.00  0.00    -0.305 N 
HETATM   18  C1  UNL     1      21.650   0.714  50.465  1.00  0.00     0.300 A 
HETATM   19  F1  UNL     1      21.560   0.814  49.093  1.00  0.00    -0.222 F 
HETATM   20  C2  UNL     1      20.275   0.548  51.003  1.00  0.00     0.032 A 
HETATM   21  C3  UNL     1      19.566   1.254  51.867  1.00  0.00     0.002 A 
HETATM   22  C4  UNL     1      20.246   2.425  52.407  1.00  0.00     0.017 A 
HETATM   23  C5  UNL     1      21.490   2.710  52.013  1.00  0.00     0.096 A 
ENDBRANCH   1  17
TORSDOF 1
ENDMDL
MODEL 6
REMARK VINA RESULT:      -7.9      3.460      5.322
REMARK  1 active torsions:
REMARK  status: ('A' for Active; 'I' for Inactive)
REMARK    1  A    between atoms: N1_7  and  C6_8 
ROOT
HETATM    1  C6  UNL     1      21.904   4.477  50.852  1.00  0.00     0.164 A 
HETATM    2  N2  UNL     1      20.735   5.035  50.425  1.00  0.00    -0.222 NA
HETATM    3  C7  UNL     1      19.544   4.551  50.890  1.00  0.00     0.238 A 
HETATM    4  N3  UNL     1      19.445   3.518  51.778  1.00  0.00    -0.215 NA
HETATM    5  C8  UNL     1      20.610   2.952  52.214  1.00  0.00     0.202 A 
HETATM    6  C9  UNL     1      21.825   3.429  51.755  1.00  0.00     0.129 A 
HETATM    7  N4  UNL     1      23.135   3.007  52.107  1.00  0.00    -0.379 N 
HETATM    8  C10 UNL     1      23.603   1.692  52.463  1.00  0.00     0.161 C 
HETATM    9  C11 UNL     1      22.625   0.887  53.184  1.00  0.00    -0.007 A 
HETATM   10  C12 UNL     1      23.357  -0.208  53.659  1.00  0.00     0.011 A 
HETATM   11  C13 UNL     1      22.765  -1.227  54.412  1.00  0.00     0.001 A 
HETATM   12  C14 UNL     1      21.419  -1.169  54.708  1.00  0.00     0.003 A 
HETATM   13  C15 UNL     1      20.688  -0.103  54.251  1.00  0.00     0.038 A 
HETATM   14  C16 UNL     1      21.284   0.893  53.510  1.00  0.00     0.086 A 
HETATM   15  O1  UNL     1      20.414   1.900  53.121  1.00  0.00    -0.289 OA
HETATM   16  H7  UNL     1      23.785   3.857  52.083  1.00  0.00     0.160 HD
ENDROOT
BRANCH   1  17
HETATM   17  N1  UNL     1      23.105   5.001  50.294  1.00  0.00    -0.305 N 
HETATM   18  C1  UNL     1      23.823   4.555  49.115  1.00  0.00     0.300 A 
HETATM   19  F1  UNL     1      24.239   3.247  49.227  1.00  0.00    -0.222 F 
HETATM   20  C2  UNL     1      25.030   5.409  48.970  1.00  0.00     0.032 A 
HETATM   21  C3  UNL     1      25.497   6.420  49.683  1.00  0.00     0.002 A 
HETATM   22  C4  UNL     1      24.684   6.783  50.837  1.00  0.00     0.017 A 
HETATM   23  C5  UNL     1      23.566   6.102  51.102  1.00  0.00     0.096 A 
ENDBRANCH   1  17
TORSDOF 1
ENDMDL
MODEL 7
REMARK VINA RESULT:      -7.9      2.872      6.863
REMARK  1 active torsions:
REMARK  status: ('A' for Active; 'I' for Inactive)
REMARK    1  A    between atoms: N1_7  and  C6_8 
ROOT
HETATM    1  C6  UNL     1      21.476   0.232  52.844  1.00  0.00     0.164 A 
HETATM    2  N2  UNL     1      20.739  -0.732  53.467  1.00  0.00    -0.222 NA
HETATM    3  C7  UNL     1      21.330  -1.537  54.401  1.00  0.00     0.238 A 
HETATM    4  N3  UNL     1      22.643  -1.438  54.760  1.00  0.00    -0.215 NA
HETATM    5  C8  UNL     1      23.392  -0.475  54.142  1.00  0.00     0.202 A 
HETATM    6  C9  UNL     1      22.811   0.350  53.196  1.00  0.00     0.129 A 
HETATM    7  N4  UNL     1      23.398   1.423  52.471  1.00  0.00    -0.379 N 
HETATM    8  C10 UNL     1      24.752   1.572  52.006  1.00  0.00     0.161 C 
HETATM    9  C11 UNL     1      25.753   0.974  52.881  1.00  0.00    -0.007 A 
HETATM   10  C12 UNL     1      26.974   1.461  52.400  1.00  0.00     0.011 A 
HETATM   11  C13 UNL     1      28.196   1.111  52.983  1.00  0.00     0.001 A 
HETATM   12  C14 UNL     1      28.220   0.260  54.069  1.00  0.00     0.003 A 
HETATM   13  C15 UNL     1      27.032  -0.226  54.554  1.00  0.00     0.038 A 
HETATM   14  C16 UNL     1      25.837   0.128  53.968  1.00  0.00     0.086 A 
HETATM   15  O1  UNL     1      24.727  -0.445  54.571  1.00  0.00    -0.289 OA
HETATM   16  H7  UNL     1      22.652   2.173  52.309  1.00  0.00     0.160 HD
ENDROOT
BRANCH   1  17
HETATM   17  N1  UNL     1      20.808   1.005  51.851  1.00  0.00    -0.305 N 
HETATM   18  C1  UNL     1      20.693   0.744  50.429  1.00  0.00     0.300 A 
HETATM   19  F1  UNL     1      21.924   0.692  49.812  1.00  0.00    -0.222 F 
HETATM   20  C2  UNL     1      19.925   1.863  49.824  1.00  0.00     0.032 A 
HETATM   21  C3  UNL     1      19.377   2.949  50.340  1.00  0.00     0.002 A 
HETATM   22  C4  UNL     1      19.550   3.097  51.781  1.00  0.00     0.017 A 
HETATM   23  C5  UNL     1      20.225   2.171  52.467  1.00  0.00     0.096 A 
ENDBRANCH   1  17
TORSDOF 1
ENDMDL
MODEL 8
REMARK VINA RESULT:      -7.8      8.450     10.486
REMARK  1 active torsions:
REMARK  status: ('A' for Active; 'I' for Inactive)
REMARK    1  A    between atoms: N1_7  and  C6_8 
ROOT
HETATM    1  C6  UNL     1      33.260   6.797  47.391  1.00  0.00     0.164 A 
HETATM    2  N2  UNL     1      33.983   7.929  47.155  1.00  0.00    -0.222 NA
HETATM    3  C7  UNL     1      33.416   9.153  47.376  1.00  0.00     0.238 A 
HETATM    4  N3  UNL     1      32.139   9.321  47.829  1.00  0.00    -0.215 NA
HETATM    5  C8  UNL     1      31.404   8.193  48.070  1.00  0.00     0.202 A 
HETATM    6  C9  UNL     1      31.962   6.946  47.852  1.00  0.00     0.129 A 
HETATM    7  N4  UNL     1      31.387   5.665  48.071  1.00  0.00    -0.379 N 
HETATM    8  C10 UNL     1      30.014   5.251  47.944  1.00  0.00     0.161 C 
HETATM    9  C11 UNL     1      29.046   6.283  48.296  1.00  0.00    -0.007 A 
HETATM   10  C12 UNL     1      27.823   5.604  48.367  1.00  0.00     0.011 A 
HETATM   11  C13 UNL     1      26.628   6.259  48.684  1.00  0.00     0.001 A 
HETATM   12  C14 UNL     1      26.633   7.614  48.938  1.00  0.00     0.003 A 
HETATM   13  C15 UNL     1      27.822   8.294  48.872  1.00  0.00     0.038 A 
HETATM   14  C16 UNL     1      28.991   7.637  48.558  1.00  0.00     0.086 A 
HETATM   15  O1  UNL     1      30.107   8.460  48.530  1.00  0.00    -0.289 OA
HETATM   16  H7  UNL     1      32.161   4.992  48.376  1.00  0.00     0.160 HD
ENDROOT
BRANCH   1  17
HETATM   17  N1  UNL     1      33.898   5.557  47.097  1.00  0.00    -0.305 N 
HETATM   18  C1  UNL     1      34.434   4.576  48.022  1.00  0.00     0.300 A 
HETATM   19  F1  UNL     1      35.430   5.103  48.815  1.00  0.00    -0.222 F 
HETATM   20  C2  UNL     1      35.022   3.473  47.220  1.00  0.00     0.032 A 
HETATM   21  C3  UNL     1      35.114   3.269  45.917  1.00  0.00     0.002 A 
HETATM   22  C4  UNL     1      34.531   4.318  45.090  1.00  0.00     0.017 A 
HETATM   23  C5  UNL     1      33.966   5.382  45.668  1.00  0.00     0.096 A 
ENDBRANCH   1  17
TORSDOF 1
ENDMDL
MODEL 9
REMARK VINA RESULT:      -7.8      3.278      6.203
REMARK  1 active torsions:
REMARK  status: ('A' for Active; 'I' for Inactive)
REMARK    1  A    between atoms: N1_7  and  C6_8 
ROOT
HETATM    1  C6  UNL     1      22.934   4.936  50.934  1.00  0.00     0.164 A 
HETATM    2  N2  UNL     1      21.582   5.057  51.073  1.00  0.00    -0.222 NA
HETATM    3  C7  UNL     1      20.886   4.108  51.769  1.00  0.00     0.238 A 
HETATM    4  N3  UNL     1      21.469   3.019  52.349  1.00  0.00    -0.215 NA
HETATM    5  C8  UNL     1      22.824   2.888  52.218  1.00  0.00     0.202 A 
HETATM    6  C9  UNL     1      23.545   3.839  51.518  1.00  0.00     0.129 A 
HETATM    7  N4  UNL     1      24.948   3.905  51.298  1.00  0.00    -0.379 N 
HETATM    8  C10 UNL     1      25.895   2.833  51.136  1.00  0.00     0.161 C 
HETATM    9  C11 UNL     1      25.583   1.640  51.914  1.00  0.00    -0.007 A 
HETATM   10  C12 UNL     1      26.740   0.856  51.828  1.00  0.00     0.011 A 
HETATM   11  C13 UNL     1      26.839  -0.392  52.454  1.00  0.00     0.001 A 
HETATM   12  C14 UNL     1      25.776  -0.881  53.183  1.00  0.00     0.003 A 
HETATM   13  C15 UNL     1      24.636  -0.125  53.278  1.00  0.00     0.038 A 
HETATM   14  C16 UNL     1      24.552   1.101  52.656  1.00  0.00     0.086 A 
HETATM   15  O1  UNL     1      23.337   1.743  52.844  1.00  0.00    -0.289 OA
HETATM   16  H7  UNL     1      25.240   4.935  51.275  1.00  0.00     0.160 HD
ENDROOT
BRANCH   1  17
HETATM   17  N1  UNL     1      23.589   5.936  50.160  1.00  0.00    -0.305 N 
HETATM   18  C1  UNL     1      24.025   5.868  48.778  1.00  0.00     0.300 A 
HETATM   19  F1  UNL     1      24.942   4.860  48.575  1.00  0.00    -0.222 F 
HETATM   20  C2  UNL     1      24.681   7.159  48.446  1.00  0.00     0.032 A 
HETATM   21  C3  UNL     1      24.899   8.255  49.152  1.00  0.00     0.002 A 
HETATM   22  C4  UNL     1      24.407   8.209  50.524  1.00  0.00     0.017 A 
HETATM   23  C5  UNL     1      23.796   7.109  50.973  1.00  0.00     0.096 A 
ENDBRANCH   1  17
TORSDOF 1
ENDMDL
