MODEL 1
REMARK VINA RESULT:      -8.9      0.000      0.000
REMARK  5 active torsions:
REMARK  status: ('A' for Active; 'I' for Inactive)
REMARK    1  A    between atoms: C2_2  and  O1_3 
REMARK    2  A    between atoms: O1_3  and  C3_4 
REMARK       I    between atoms: C3_4  and  N1_6 
REMARK    3  A    between atoms: N1_6  and  C4_7 
REMARK    4  A    between atoms: C11_16  and  N4_17 
REMARK    5  A    between atoms: N4_17  and  C12_18 
ROOT
HETATM    1  C4  UNL     1      25.002   0.960  53.396  1.00  0.00     0.037 A 
HETATM    2  C5  UNL     1      24.049  -0.062  53.475  1.00  0.00     0.030 A 
HETATM    3  C6  UNL     1      22.735   0.194  53.153  1.00  0.00     0.016 A 
HETATM    4  C7  UNL     1      22.360   1.461  52.752  1.00  0.00     0.000 A 
HETATM    5  C8  UNL     1      21.040   1.703  52.433  1.00  0.00     0.073 A 
HETATM    6  C9  UNL     1      20.015   0.705  52.491  1.00  0.00     0.102 C 
HETATM    7  N2  UNL     1      19.191  -0.087  52.552  1.00  0.00    -0.191 NA
HETATM    8  C10 UNL     1      20.722   2.984  52.040  1.00  0.00     0.142 A 
HETATM    9  N3  UNL     1      21.650   3.931  51.975  1.00  0.00    -0.241 NA
HETATM   10  C11 UNL     1      22.952   3.790  52.265  1.00  0.00     0.135 A 
HETATM   11  C18 UNL     1      23.257   2.504  52.657  1.00  0.00     0.024 A 
HETATM   12  C19 UNL     1      24.561   2.201  52.989  1.00  0.00     0.045 A 
ENDROOT
BRANCH  10  13
HETATM   13  N4  UNL     1      23.862   4.851  52.168  1.00  0.00    -0.366 N 
HETATM   14  H10 UNL     1      24.450   5.188  52.948  1.00  0.00     0.161 HD
BRANCH  13  15
HETATM   15  C12 UNL     1      23.959   5.493  50.886  1.00  0.00     0.111 A 
HETATM   16  C13 UNL     1      25.169   5.120  50.111  1.00  0.00     0.017 A 
HETATM   17  C14 UNL     1      26.201   5.786  49.570  1.00  0.00     0.009 A 
HETATM   18 BR1  UNL     1      27.672   5.064  48.595  1.00  0.00    -0.051 Br
HETATM   19  C15 UNL     1      26.165   7.247  49.783  1.00  0.00     0.015 A 
HETATM   20  C16 UNL     1      25.128   7.662  50.472  1.00  0.00    -0.023 A 
HETATM   21  C17 UNL     1      23.955   6.987  51.100  1.00  0.00     0.056 A 
ENDBRANCH  13  15
ENDBRANCH  10  13
BRANCH   1  22
HETATM   22  N1  UNL     1      26.358   0.688  53.731  1.00  0.00    -0.303 N 
HETATM   23  C3  UNL     1      26.802  -0.007  54.881  1.00  0.00     0.365 C 
HETATM   24  O2  UNL     1      26.057  -0.481  55.763  1.00  0.00    -0.238 OA
HETATM   25  H6  UNL     1      26.962   1.089  52.989  1.00  0.00     0.171 HD
BRANCH  23  26
HETATM   26  O1  UNL     1      28.167  -0.123  54.949  1.00  0.00    -0.304 OA
BRANCH  26  27
HETATM   27  C2  UNL     1      29.048   0.236  53.904  1.00  0.00     0.176 C 
HETATM   28  C1  UNL     1      29.734  -1.053  53.461  1.00  0.00     0.034 C 
ENDBRANCH  26  27
ENDBRANCH  23  26
ENDBRANCH   1  22
TORSDOF 5
ENDMDL
MODEL 2
REMARK VINA RESULT:      -8.8      2.022      2.322
REMARK  5 active torsions:
REMARK  status: ('A' for Active; 'I' for Inactive)
REMARK    1  A    between atoms: C2_2  and  O1_3 
REMARK    2  A    between atoms: O1_3  and  C3_4 
REMARK       I    between atoms: C3_4  and  N1_6 
REMARK    3  A    between atoms: N1_6  and  C4_7 
REMARK    4  A    between atoms: C11_16  and  N4_17 
REMARK    5  A    between atoms: N4_17  and  C12_18 
ROOT
HETATM    1  C4  UNL     1      24.224  -0.509  53.864  1.00  0.00     0.037 A 
HETATM    2  C5  UNL     1      23.133  -1.095  54.517  1.00  0.00     0.030 A 
HETATM    3  C6  UNL     1      21.855  -0.881  54.049  1.00  0.00     0.016 A 
HETATM    4  C7  UNL     1      21.654  -0.089  52.937  1.00  0.00     0.000 A 
HETATM    5  C8  UNL     1      20.368   0.116  52.480  1.00  0.00     0.073 A 
HETATM    6  C9  UNL     1      19.207  -0.452  53.098  1.00  0.00     0.102 C 
HETATM    7  N2  UNL     1      18.278  -0.892  53.600  1.00  0.00    -0.191 NA
HETATM    8  C10 UNL     1      20.225   0.915  51.367  1.00  0.00     0.142 A 
HETATM    9  N3  UNL     1      21.281   1.454  50.771  1.00  0.00    -0.241 NA
HETATM   10  C11 UNL     1      22.562   1.312  51.142  1.00  0.00     0.135 A 
HETATM   11  C18 UNL     1      22.691   0.511  52.257  1.00  0.00     0.024 A 
HETATM   12  C19 UNL     1      23.952   0.270  52.760  1.00  0.00     0.045 A 
ENDROOT
BRANCH  10  13
HETATM   13  N4  UNL     1      23.616   1.924  50.449  1.00  0.00    -0.366 N 
HETATM   14  H10 UNL     1      24.247   1.432  49.795  1.00  0.00     0.161 HD
BRANCH  13  15
HETATM   15  C12 UNL     1      23.807   3.328  50.688  1.00  0.00     0.111 A 
HETATM   16  C13 UNL     1      23.260   4.204  49.622  1.00  0.00     0.017 A 
HETATM   17  C14 UNL     1      23.761   5.145  48.806  1.00  0.00     0.009 A 
HETATM   18 BR1  UNL     1      22.832   6.157  47.485  1.00  0.00    -0.051 Br
HETATM   19  C15 UNL     1      25.208   5.390  48.972  1.00  0.00     0.015 A 
HETATM   20  C16 UNL     1      25.775   4.646  49.893  1.00  0.00    -0.023 A 
HETATM   21  C17 UNL     1      25.287   3.590  50.827  1.00  0.00     0.056 A 
ENDBRANCH  13  15
ENDBRANCH  10  13
BRANCH   1  22
HETATM   22  N1  UNL     1      25.542  -0.734  54.353  1.00  0.00    -0.303 N 
HETATM   23  C3  UNL     1      26.480   0.271  54.692  1.00  0.00     0.365 C 
HETATM   24  O2  UNL     1      26.274   1.499  54.608  1.00  0.00    -0.238 OA
HETATM   25  H6  UNL     1      25.694  -1.758  54.416  1.00  0.00     0.171 HD
BRANCH  23  26
HETATM   26  O1  UNL     1      27.675  -0.234  55.136  1.00  0.00    -0.304 OA
BRANCH  26  27
HETATM   27  C2  UNL     1      28.934   0.105  54.590  1.00  0.00     0.176 C 
HETATM   28  C1  UNL     1      29.306  -1.026  53.637  1.00  0.00     0.034 C 
ENDBRANCH  26  27
ENDBRANCH  23  26
ENDBRANCH   1  22
TORSDOF 5
ENDMDL
MODEL 3
REMARK VINA RESULT:      -8.6      1.671      2.193
REMARK  5 active torsions:
REMARK  status: ('A' for Active; 'I' for Inactive)
REMARK    1  A    between atoms: C2_2  and  O1_3 
REMARK    2  A    between atoms: O1_3  and  C3_4 
REMARK       I    between atoms: C3_4  and  N1_6 
REMARK    3  A    between atoms: N1_6  and  C4_7 
REMARK    4  A    between atoms: C11_16  and  N4_17 
REMARK    5  A    between atoms: N4_17  and  C12_18 
ROOT
HETATM    1  C4  UNL     1      24.763   1.415  52.409  1.00  0.00     0.037 A 
HETATM    2  C5  UNL     1      23.453   1.039  52.726  1.00  0.00     0.030 A 
HETATM    3  C6  UNL     1      22.406   1.891  52.451  1.00  0.00     0.016 A 
HETATM    4  C7  UNL     1      22.652   3.115  51.863  1.00  0.00     0.000 A 
HETATM    5  C8  UNL     1      21.593   3.958  51.594  1.00  0.00     0.073 A 
HETATM    6  C9  UNL     1      20.229   3.636  51.891  1.00  0.00     0.102 C 
HETATM    7  N2  UNL     1      19.141   3.388  52.142  1.00  0.00    -0.191 NA
HETATM    8  C10 UNL     1      21.895   5.166  51.007  1.00  0.00     0.142 A 
HETATM    9  N3  UNL     1      23.150   5.493  50.718  1.00  0.00    -0.241 NA
HETATM   10  C11 UNL     1      24.238   4.742  50.943  1.00  0.00     0.135 A 
HETATM   11  C18 UNL     1      23.922   3.535  51.530  1.00  0.00     0.024 A 
HETATM   12  C19 UNL     1      24.938   2.651  51.823  1.00  0.00     0.045 A 
ENDROOT
BRANCH  10  13
HETATM   13  N4  UNL     1      25.529   5.171  50.604  1.00  0.00    -0.366 N 
HETATM   14  H10 UNL     1      26.242   5.473  51.289  1.00  0.00     0.161 HD
BRANCH  13  15
HETATM   15  C12 UNL     1      25.851   5.182  49.204  1.00  0.00     0.111 A 
HETATM   16  C13 UNL     1      27.305   5.098  48.914  1.00  0.00     0.017 A 
HETATM   17  C14 UNL     1      28.193   5.854  48.252  1.00  0.00     0.009 A 
HETATM   18 BR1  UNL     1      30.056   5.525  48.014  1.00  0.00    -0.051 Br
HETATM   19  C15 UNL     1      27.628   7.084  47.660  1.00  0.00     0.015 A 
HETATM   20  C16 UNL     1      26.344   7.242  47.879  1.00  0.00    -0.023 A 
HETATM   21  C17 UNL     1      25.303   6.452  48.600  1.00  0.00     0.056 A 
ENDBRANCH  13  15
ENDBRANCH  10  13
BRANCH   1  22
HETATM   22  N1  UNL     1      25.841   0.531  52.696  1.00  0.00    -0.303 N 
HETATM   23  C3  UNL     1      26.730   0.640  53.792  1.00  0.00     0.365 C 
HETATM   24  O2  UNL     1      26.686   1.533  54.662  1.00  0.00    -0.238 OA
HETATM   25  H6  UNL     1      25.861  -0.204  51.964  1.00  0.00     0.171 HD
BRANCH  23  26
HETATM   26  O1  UNL     1      27.676  -0.353  53.821  1.00  0.00    -0.304 OA
BRANCH  26  27
HETATM   27  C2  UNL     1      28.893  -0.271  54.533  1.00  0.00     0.176 C 
HETATM   28  C1  UNL     1      29.996  -0.149  53.485  1.00  0.00     0.034 C 
ENDBRANCH  26  27
ENDBRANCH  23  26
ENDBRANCH   1  22
TORSDOF 5
ENDMDL
MODEL 4
REMARK VINA RESULT:      -8.4      2.812      5.591
REMARK  5 active torsions:
REMARK  status: ('A' for Active; 'I' for Inactive)
REMARK    1  A    between atoms: C2_2  and  O1_3 
REMARK    2  A    between atoms: O1_3  and  C3_4 
REMARK       I    between atoms: C3_4  and  N1_6 
REMARK    3  A    between atoms: N1_6  and  C4_7 
REMARK    4  A    between atoms: C11_16  and  N4_17 
REMARK    5  A    between atoms: N4_17  and  C12_18 
ROOT
HETATM    1  C4  UNL     1      22.899   0.645  52.887  1.00  0.00     0.037 A 
HETATM    2  C5  UNL     1      23.510  -0.528  53.346  1.00  0.00     0.030 A 
HETATM    3  C6  UNL     1      24.880  -0.660  53.286  1.00  0.00     0.016 A 
HETATM    4  C7  UNL     1      25.648   0.365  52.772  1.00  0.00     0.000 A 
HETATM    5  C8  UNL     1      27.018   0.218  52.718  1.00  0.00     0.073 A 
HETATM    6  C9  UNL     1      27.708  -0.953  53.169  1.00  0.00     0.102 C 
HETATM    7  N2  UNL     1      28.259  -1.895  53.515  1.00  0.00    -0.191 NA
HETATM    8  C10 UNL     1      27.735   1.271  52.196  1.00  0.00     0.142 A 
HETATM    9  N3  UNL     1      27.125   2.371  51.770  1.00  0.00    -0.241 NA
HETATM   10  C11 UNL     1      25.804   2.603  51.783  1.00  0.00     0.135 A 
HETATM   11  C18 UNL     1      25.098   1.541  52.307  1.00  0.00     0.024 A 
HETATM   12  C19 UNL     1      23.725   1.629  52.387  1.00  0.00     0.045 A 
ENDROOT
BRANCH  10  13
HETATM   13  N4  UNL     1      25.248   3.799  51.309  1.00  0.00    -0.366 N 
HETATM   14  H10 UNL     1      24.832   4.528  51.912  1.00  0.00     0.161 HD
BRANCH  13  15
HETATM   15  C12 UNL     1      25.270   3.993  49.885  1.00  0.00     0.111 A 
HETATM   16  C13 UNL     1      26.515   4.624  49.379  1.00  0.00     0.017 A 
HETATM   17  C14 UNL     1      26.810   5.728  48.677  1.00  0.00     0.009 A 
HETATM   18 BR1  UNL     1      28.533   6.340  48.135  1.00  0.00    -0.051 Br
HETATM   19  C15 UNL     1      25.639   6.549  48.306  1.00  0.00     0.015 A 
HETATM   20  C16 UNL     1      24.493   6.065  48.726  1.00  0.00    -0.023 A 
HETATM   21  C17 UNL     1      24.093   4.857  49.505  1.00  0.00     0.056 A 
ENDBRANCH  13  15
ENDBRANCH  10  13
BRANCH   1  22
HETATM   22  N1  UNL     1      21.484   0.775  52.951  1.00  0.00    -0.303 N 
HETATM   23  C3  UNL     1      20.581   0.520  51.891  1.00  0.00     0.365 C 
HETATM   24  O2  UNL     1      20.909   0.142  50.748  1.00  0.00    -0.238 OA
HETATM   25  H6  UNL     1      21.230   1.090  53.907  1.00  0.00     0.171 HD
BRANCH  23  26
HETATM   26  O1  UNL     1      19.270   0.729  52.236  1.00  0.00    -0.304 OA
BRANCH  26  27
HETATM   27  C2  UNL     1      18.199  -0.097  51.828  1.00  0.00     0.176 C 
HETATM   28  C1  UNL     1      17.992  -1.113  52.948  1.00  0.00     0.034 C 
ENDBRANCH  26  27
ENDBRANCH  23  26
ENDBRANCH   1  22
TORSDOF 5
ENDMDL
MODEL 5
REMARK VINA RESULT:      -8.2      2.818      5.731
REMARK  5 active torsions:
REMARK  status: ('A' for Active; 'I' for Inactive)
REMARK    1  A    between atoms: C2_2  and  O1_3 
REMARK    2  A    between atoms: O1_3  and  C3_4 
REMARK       I    between atoms: C3_4  and  N1_6 
REMARK    3  A    between atoms: N1_6  and  C4_7 
REMARK    4  A    between atoms: C11_16  and  N4_17 
REMARK    5  A    between atoms: N4_17  and  C12_18 
ROOT
HETATM    1  C4  UNL     1      26.116   1.494  51.662  1.00  0.00     0.037 A 
HETATM    2  C5  UNL     1      26.785   2.623  51.173  1.00  0.00     0.030 A 
HETATM    3  C6  UNL     1      26.094   3.576  50.457  1.00  0.00     0.016 A 
HETATM    4  C7  UNL     1      24.744   3.416  50.223  1.00  0.00     0.000 A 
HETATM    5  C8  UNL     1      24.066   4.378  49.504  1.00  0.00     0.073 A 
HETATM    6  C9  UNL     1      24.687   5.556  48.975  1.00  0.00     0.102 C 
HETATM    7  N2  UNL     1      25.184   6.489  48.538  1.00  0.00    -0.191 NA
HETATM    8  C10 UNL     1      22.720   4.169  49.300  1.00  0.00     0.142 A 
HETATM    9  N3  UNL     1      22.116   3.088  49.778  1.00  0.00    -0.241 NA
HETATM   10  C11 UNL     1      22.690   2.102  50.485  1.00  0.00     0.135 A 
HETATM   11  C18 UNL     1      24.036   2.325  50.681  1.00  0.00     0.024 A 
HETATM   12  C19 UNL     1      24.767   1.397  51.393  1.00  0.00     0.045 A 
ENDROOT
BRANCH  10  13
HETATM   13  N4  UNL     1      21.969   0.994  50.950  1.00  0.00    -0.366 N 
HETATM   14  H10 UNL     1      21.811   0.130  50.404  1.00  0.00     0.161 HD
BRANCH  13  15
HETATM   15  C12 UNL     1      21.426   1.097  52.276  1.00  0.00     0.111 A 
HETATM   16  C13 UNL     1      22.210   0.375  53.310  1.00  0.00     0.017 A 
HETATM   17  C14 UNL     1      21.953  -0.595  54.201  1.00  0.00     0.009 A 
HETATM   18 BR1  UNL     1      23.158  -1.375  55.455  1.00  0.00    -0.051 Br
HETATM   19  C15 UNL     1      20.566  -1.102  54.170  1.00  0.00     0.015 A 
HETATM   20  C16 UNL     1      19.804  -0.521  53.272  1.00  0.00    -0.023 A 
HETATM   21  C17 UNL     1      20.019   0.551  52.257  1.00  0.00     0.056 A 
ENDBRANCH  13  15
ENDBRANCH  10  13
BRANCH   1  22
HETATM   22  N1  UNL     1      26.834   0.513  52.400  1.00  0.00    -0.303 N 
HETATM   23  C3  UNL     1      27.114   0.563  53.787  1.00  0.00     0.365 C 
HETATM   24  O2  UNL     1      26.763   1.482  54.555  1.00  0.00    -0.238 OA
HETATM   25  H6  UNL     1      27.118  -0.242  51.747  1.00  0.00     0.171 HD
BRANCH  23  26
HETATM   26  O1  UNL     1      27.826  -0.521  54.234  1.00  0.00    -0.304 OA
BRANCH  26  27
HETATM   27  C2  UNL     1      28.756  -1.240  53.449  1.00  0.00     0.176 C 
HETATM   28  C1  UNL     1      30.082  -0.494  53.565  1.00  0.00     0.034 C 
ENDBRANCH  26  27
ENDBRANCH  23  26
ENDBRANCH   1  22
TORSDOF 5
ENDMDL
MODEL 6
REMARK VINA RESULT:      -8.2      3.593      7.344
REMARK  5 active torsions:
REMARK  status: ('A' for Active; 'I' for Inactive)
REMARK    1  A    between atoms: C2_2  and  O1_3 
REMARK    2  A    between atoms: O1_3  and  C3_4 
REMARK       I    between atoms: C3_4  and  N1_6 
REMARK    3  A    between atoms: N1_6  and  C4_7 
REMARK    4  A    between atoms: C11_16  and  N4_17 
REMARK    5  A    between atoms: N4_17  and  C12_18 
ROOT
HETATM    1  C4  UNL     1      24.905   2.905  50.947  1.00  0.00     0.037 A 
HETATM    2  C5  UNL     1      26.277   2.632  50.908  1.00  0.00     0.030 A 
HETATM    3  C6  UNL     1      26.800   1.613  51.674  1.00  0.00     0.016 A 
HETATM    4  C7  UNL     1      25.967   0.863  52.480  1.00  0.00     0.000 A 
HETATM    5  C8  UNL     1      26.505  -0.153  53.242  1.00  0.00     0.073 A 
HETATM    6  C9  UNL     1      27.898  -0.486  53.250  1.00  0.00     0.102 C 
HETATM    7  N2  UNL     1      29.013  -0.743  53.269  1.00  0.00    -0.191 NA
HETATM    8  C10 UNL     1      25.630  -0.870  54.028  1.00  0.00     0.142 A 
HETATM    9  N3  UNL     1      24.333  -0.586  54.042  1.00  0.00    -0.241 NA
HETATM   10  C11 UNL     1      23.722   0.379  53.338  1.00  0.00     0.135 A 
HETATM   11  C18 UNL     1      24.610   1.088  52.557  1.00  0.00     0.024 A 
HETATM   12  C19 UNL     1      24.131   2.117  51.773  1.00  0.00     0.045 A 
ENDROOT
BRANCH  10  13
HETATM   13  N4  UNL     1      22.342   0.607  53.418  1.00  0.00    -0.366 N 
HETATM   14  H10 UNL     1      21.910   1.402  53.917  1.00  0.00     0.161 HD
BRANCH  13  15
HETATM   15  C12 UNL     1      21.499  -0.347  52.752  1.00  0.00     0.111 A 
HETATM   16  C13 UNL     1      20.643   0.237  51.688  1.00  0.00     0.017 A 
HETATM   17  C14 UNL     1      19.325   0.293  51.445  1.00  0.00     0.009 A 
HETATM   18 BR1  UNL     1      18.446   1.124  49.971  1.00  0.00    -0.051 Br
HETATM   19  C15 UNL     1      18.485  -0.369  52.464  1.00  0.00     0.015 A 
HETATM   20  C16 UNL     1      19.166  -0.906  53.450  1.00  0.00    -0.023 A 
HETATM   21  C17 UNL     1      20.616  -1.004  53.785  1.00  0.00     0.056 A 
ENDBRANCH  13  15
ENDBRANCH  10  13
BRANCH   1  22
HETATM   22  N1  UNL     1      24.372   3.959  50.154  1.00  0.00    -0.303 N 
HETATM   23  C3  UNL     1      23.865   5.187  50.643  1.00  0.00     0.365 C 
HETATM   24  O2  UNL     1      23.820   5.513  51.846  1.00  0.00    -0.238 OA
HETATM   25  H6  UNL     1      24.418   3.670  49.158  1.00  0.00     0.171 HD
BRANCH  23  26
HETATM   26  O1  UNL     1      23.413   6.018  49.650  1.00  0.00    -0.304 OA
BRANCH  26  27
HETATM   27  C2  UNL     1      23.853   5.966  48.308  1.00  0.00     0.176 C 
HETATM   28  C1  UNL     1      25.027   6.935  48.204  1.00  0.00     0.034 C 
ENDBRANCH  26  27
ENDBRANCH  23  26
ENDBRANCH   1  22
TORSDOF 5
ENDMDL
MODEL 7
REMARK VINA RESULT:      -8.0      4.461      7.506
REMARK  5 active torsions:
REMARK  status: ('A' for Active; 'I' for Inactive)
REMARK    1  A    between atoms: C2_2  and  O1_3 
REMARK    2  A    between atoms: O1_3  and  C3_4 
REMARK       I    between atoms: C3_4  and  N1_6 
REMARK    3  A    between atoms: N1_6  and  C4_7 
REMARK    4  A    between atoms: C11_16  and  N4_17 
REMARK    5  A    between atoms: N4_17  and  C12_18 
ROOT
HETATM    1  C4  UNL     1      28.547   5.565  48.188  1.00  0.00     0.037 A 
HETATM    2  C5  UNL     1      28.046   6.814  47.804  1.00  0.00     0.030 A 
HETATM    3  C6  UNL     1      26.743   7.153  48.095  1.00  0.00     0.016 A 
HETATM    4  C7  UNL     1      25.934   6.259  48.766  1.00  0.00     0.000 A 
HETATM    5  C8  UNL     1      24.631   6.613  49.050  1.00  0.00     0.073 A 
HETATM    6  C9  UNL     1      24.055   7.873  48.687  1.00  0.00     0.102 C 
HETATM    7  N2  UNL     1      23.588   8.873  48.383  1.00  0.00    -0.191 NA
HETATM    8  C10 UNL     1      23.868   5.684  49.721  1.00  0.00     0.142 A 
HETATM    9  N3  UNL     1      24.373   4.508  50.072  1.00  0.00    -0.241 NA
HETATM   10  C11 UNL     1      25.622   4.077  49.840  1.00  0.00     0.135 A 
HETATM   11  C18 UNL     1      26.375   5.017  49.168  1.00  0.00     0.024 A 
HETATM   12  C19 UNL     1      27.685   4.720  48.855  1.00  0.00     0.045 A 
ENDROOT
BRANCH  10  13
HETATM   13  N4  UNL     1      26.069   2.814  50.249  1.00  0.00    -0.366 N 
HETATM   14  H10 UNL     1      26.471   2.104  49.614  1.00  0.00     0.161 HD
BRANCH  13  15
HETATM   15  C12 UNL     1      25.945   2.516  51.649  1.00  0.00     0.111 A 
HETATM   16  C13 UNL     1      27.198   2.028  52.279  1.00  0.00     0.017 A 
HETATM   17  C14 UNL     1      27.565   0.925  52.948  1.00  0.00     0.009 A 
HETATM   18 BR1  UNL     1      29.279   0.520  53.678  1.00  0.00    -0.051 Br
HETATM   19  C15 UNL     1      26.492  -0.077  53.112  1.00  0.00     0.015 A 
HETATM   20  C16 UNL     1      25.348   0.272  52.572  1.00  0.00    -0.023 A 
HETATM   21  C17 UNL     1      24.871   1.469  51.819  1.00  0.00     0.056 A 
ENDBRANCH  13  15
ENDBRANCH  10  13
BRANCH   1  22
HETATM   22  N1  UNL     1      29.894   5.220  47.884  1.00  0.00    -0.303 N 
HETATM   23  C3  UNL     1      31.047   5.808  48.457  1.00  0.00     0.365 C 
HETATM   24  O2  UNL     1      31.037   6.715  49.313  1.00  0.00    -0.238 OA
HETATM   25  H6  UNL     1      29.883   4.465  47.172  1.00  0.00     0.171 HD
BRANCH  23  26
HETATM   26  O1  UNL     1      32.218   5.280  47.976  1.00  0.00    -0.304 OA
BRANCH  26  27
HETATM   27  C2  UNL     1      32.390   3.924  47.618  1.00  0.00     0.176 C 
HETATM   28  C1  UNL     1      32.811   3.917  46.152  1.00  0.00     0.034 C 
ENDBRANCH  26  27
ENDBRANCH  23  26
ENDBRANCH   1  22
TORSDOF 5
ENDMDL
MODEL 8
REMARK VINA RESULT:      -7.9      1.885      2.244
REMARK  5 active torsions:
REMARK  status: ('A' for Active; 'I' for Inactive)
REMARK    1  A    between atoms: C2_2  and  O1_3 
REMARK    2  A    between atoms: O1_3  and  C3_4 
REMARK       I    between atoms: C3_4  and  N1_6 
REMARK    3  A    between atoms: N1_6  and  C4_7 
REMARK    4  A    between atoms: C11_16  and  N4_17 
REMARK    5  A    between atoms: N4_17  and  C12_18 
ROOT
HETATM    1  C4  UNL     1      24.533   1.277  53.266  1.00  0.00     0.037 A 
HETATM    2  C5  UNL     1      23.823   0.082  53.429  1.00  0.00     0.030 A 
HETATM    3  C6  UNL     1      22.456   0.063  53.252  1.00  0.00     0.016 A 
HETATM    4  C7  UNL     1      21.791   1.224  52.914  1.00  0.00     0.000 A 
HETATM    5  C8  UNL     1      20.423   1.190  52.741  1.00  0.00     0.073 A 
HETATM    6  C9  UNL     1      19.634   0.003  52.892  1.00  0.00     0.102 C 
HETATM    7  N2  UNL     1      19.001  -0.940  53.027  1.00  0.00    -0.191 NA
HETATM    8  C10 UNL     1      19.809   2.376  52.406  1.00  0.00     0.142 A 
HETATM    9  N3  UNL     1      20.513   3.493  52.258  1.00  0.00    -0.241 NA
HETATM   10  C11 UNL     1      21.839   3.622  52.406  1.00  0.00     0.135 A 
HETATM   11  C18 UNL     1      22.440   2.428  52.742  1.00  0.00     0.024 A 
HETATM   12  C19 UNL     1      23.807   2.399  52.929  1.00  0.00     0.045 A 
ENDROOT
BRANCH  10  13
HETATM   13  N4  UNL     1      22.498   4.847  52.230  1.00  0.00    -0.366 N 
HETATM   14  H10 UNL     1      22.680   5.525  52.988  1.00  0.00     0.161 HD
BRANCH  13  15
HETATM   15  C12 UNL     1      22.936   5.150  50.896  1.00  0.00     0.111 A 
HETATM   16  C13 UNL     1      22.527   4.146  49.880  1.00  0.00     0.017 A 
HETATM   17  C14 UNL     1      23.167   3.363  48.998  1.00  0.00     0.009 A 
HETATM   18 BR1  UNL     1      22.401   2.124  47.769  1.00  0.00    -0.051 Br
HETATM   19  C15 UNL     1      24.639   3.497  49.016  1.00  0.00     0.015 A 
HETATM   20  C16 UNL     1      25.086   4.361  49.897  1.00  0.00    -0.023 A 
HETATM   21  C17 UNL     1      24.441   5.256  50.902  1.00  0.00     0.056 A 
ENDBRANCH  13  15
ENDBRANCH  10  13
BRANCH   1  22
HETATM   22  N1  UNL     1      25.944   1.291  53.450  1.00  0.00    -0.303 N 
HETATM   23  C3  UNL     1      26.885   0.564  52.681  1.00  0.00     0.365 C 
HETATM   24  O2  UNL     1      26.600  -0.191  51.729  1.00  0.00    -0.238 OA
HETATM   25  H6  UNL     1      26.161   1.922  54.244  1.00  0.00     0.171 HD
BRANCH  23  26
HETATM   26  O1  UNL     1      28.181   0.766  53.082  1.00  0.00    -0.304 OA
BRANCH  26  27
HETATM   27  C2  UNL     1      28.794   0.091  54.162  1.00  0.00     0.176 C 
HETATM   28  C1  UNL     1      29.905  -0.763  53.558  1.00  0.00     0.034 C 
ENDBRANCH  26  27
ENDBRANCH  23  26
ENDBRANCH   1  22
TORSDOF 5
ENDMDL
MODEL 9
REMARK VINA RESULT:      -7.9      2.993      5.755
REMARK  5 active torsions:
REMARK  status: ('A' for Active; 'I' for Inactive)
REMARK    1  A    between atoms: C2_2  and  O1_3 
REMARK    2  A    between atoms: O1_3  and  C3_4 
REMARK       I    between atoms: C3_4  and  N1_6 
REMARK    3  A    between atoms: N1_6  and  C4_7 
REMARK    4  A    between atoms: C11_16  and  N4_17 
REMARK    5  A    between atoms: N4_17  and  C12_18 
ROOT
HETATM    1  C4  UNL     1      22.745   0.331  52.435  1.00  0.00     0.037 A 
HETATM    2  C5  UNL     1      23.409  -0.425  53.409  1.00  0.00     0.030 A 
HETATM    3  C6  UNL     1      24.745  -0.201  53.661  1.00  0.00     0.016 A 
HETATM    4  C7  UNL     1      25.425   0.768  52.953  1.00  0.00     0.000 A 
HETATM    5  C8  UNL     1      26.763   0.980  53.217  1.00  0.00     0.073 A 
HETATM    6  C9  UNL     1      27.503   0.245  54.198  1.00  0.00     0.102 C 
HETATM    7  N2  UNL     1      28.100  -0.352  54.971  1.00  0.00    -0.191 NA
HETATM    8  C10 UNL     1      27.393   1.959  52.481  1.00  0.00     0.142 A 
HETATM    9  N3  UNL     1      26.734   2.658  51.565  1.00  0.00    -0.241 NA
HETATM   10  C11 UNL     1      25.439   2.523  51.241  1.00  0.00     0.135 A 
HETATM   11  C18 UNL     1      24.821   1.540  51.984  1.00  0.00     0.024 A 
HETATM   12  C19 UNL     1      23.484   1.282  51.765  1.00  0.00     0.045 A 
ENDROOT
BRANCH  10  13
HETATM   13  N4  UNL     1      24.826   3.309  50.255  1.00  0.00    -0.366 N 
HETATM   14  H10 UNL     1      24.250   2.932  49.484  1.00  0.00     0.161 HD
BRANCH  13  15
HETATM   15  C12 UNL     1      25.033   4.727  50.350  1.00  0.00     0.111 A 
HETATM   16  C13 UNL     1      23.797   5.504  50.619  1.00  0.00     0.017 A 
HETATM   17  C14 UNL     1      23.141   6.501  50.006  1.00  0.00     0.009 A 
HETATM   18 BR1  UNL     1      21.530   7.354  50.563  1.00  0.00    -0.051 Br
HETATM   19  C15 UNL     1      23.765   6.960  48.748  1.00  0.00     0.015 A 
HETATM   20  C16 UNL     1      24.863   6.316  48.430  1.00  0.00    -0.023 A 
HETATM   21  C17 UNL     1      25.641   5.207  49.055  1.00  0.00     0.056 A 
ENDBRANCH  13  15
ENDBRANCH  10  13
BRANCH   1  22
HETATM   22  N1  UNL     1      21.365   0.095  52.178  1.00  0.00    -0.303 N 
HETATM   23  C3  UNL     1      20.296   0.936  52.569  1.00  0.00     0.365 C 
HETATM   24  O2  UNL     1      20.422   2.008  53.195  1.00  0.00    -0.238 OA
HETATM   25  H6  UNL     1      21.280  -0.799  51.658  1.00  0.00     0.171 HD
BRANCH  23  26
HETATM   26  O1  UNL     1      19.067   0.460  52.188  1.00  0.00    -0.304 OA
BRANCH  26  27
HETATM   27  C2  UNL     1      18.122   1.203  51.444  1.00  0.00     0.176 C 
HETATM   28  C1  UNL     1      18.514   1.049  49.978  1.00  0.00     0.034 C 
ENDBRANCH  26  27
ENDBRANCH  23  26
ENDBRANCH   1  22
TORSDOF 5
ENDMDL
