MODEL 1
REMARK VINA RESULT:      -9.4      0.000      0.000
REMARK  4 active torsions:
REMARK  status: ('A' for Active; 'I' for Inactive)
REMARK    1  A    between atoms: N1_1  and  C1_2 
REMARK    2  A    between atoms: N3_11  and  C9_12 
REMARK    3  A    between atoms: C14_18  and  C15_19 
REMARK    4  A    between atoms: N6_22  and  C17_23 
ROOT
HETATM    1  C9  UNL     1      22.428   4.556  49.091  1.00  0.00     0.145 C 
HETATM    2  C10 UNL     1      22.182   4.635  47.570  1.00  0.00     0.116 C 
HETATM    3  N4  UNL     1      21.884   3.416  47.149  1.00  0.00    -0.267 NA
HETATM    4  C11 UNL     1      21.898   2.494  48.263  1.00  0.00     0.044 A 
HETATM    5  C12 UNL     1      21.419   1.414  48.857  1.00  0.00     0.028 A 
HETATM    6  C13 UNL     1      22.191   1.327  50.080  1.00  0.00     0.011 A 
HETATM    7  C14 UNL     1      23.096   2.326  50.202  1.00  0.00    -0.033 A 
HETATM    8  C23 UNL     1      23.021   3.174  49.079  1.00  0.00     0.100 A 
ENDROOT
BRANCH   1   9
HETATM    9  N3  UNL     1      23.398   5.526  49.475  1.00  0.00    -0.336 N 
HETATM   10  C1  UNL     1      23.300   6.424  50.564  1.00  0.00     0.082 A 
HETATM   11  C2  UNL     1      24.205   7.325  50.910  1.00  0.00     0.074 A 
HETATM   12  C3  UNL     1      25.425   7.428  50.117  1.00  0.00     0.071 A 
HETATM   13  N2  UNL     1      26.386   8.249  50.332  1.00  0.00    -0.259 NA
HETATM   14  C7  UNL     1      25.582   6.529  48.984  1.00  0.00     0.009 A 
HETATM   15  C4  UNL     1      27.547   8.268  49.489  1.00  0.00     0.129 C 
HETATM   16  C5  UNL     1      27.587   7.584  48.392  1.00  0.00    -0.006 C 
HETATM   17  C6  UNL     1      26.783   6.594  48.164  1.00  0.00     0.029 C 
HETATM   18  C8  UNL     1      24.609   5.670  48.736  1.00  0.00     0.107 A 
BRANCH  10  19
HETATM   19  N1  UNL     1      22.163   6.402  51.383  1.00  0.00    -0.288 NA
HETATM   20  H1  UNL     1      22.031   6.069  52.372  1.00  0.00     0.125 HD
HETATM   21  H2  UNL     1      21.879   6.119  52.339  1.00  0.00     0.125 HD
ENDBRANCH  10  19
ENDBRANCH   1   9
BRANCH   7  22
HETATM   22  C15 UNL     1      23.877   2.233  51.439  1.00  0.00     0.007 A 
HETATM   23  C16 UNL     1      23.960   3.202  52.417  1.00  0.00     0.152 A 
HETATM   24  N5  UNL     1      24.760   2.769  53.431  1.00  0.00    -0.184 NA
HETATM   25  N6  UNL     1      25.203   1.566  53.163  1.00  0.00    -0.276 N 
HETATM   26  C22 UNL     1      24.677   1.246  51.975  1.00  0.00     0.126 A 
BRANCH  25  27
HETATM   27  C17 UNL     1      26.079   0.749  53.978  1.00  0.00     0.113 C 
HETATM   28  C18 UNL     1      26.086  -0.677  53.486  1.00  0.00     0.057 C 
HETATM   29  C19 UNL     1      27.466  -1.101  53.025  1.00  0.00     0.271 C 
HETATM   30  N7  UNL     1      28.487  -0.862  53.995  1.00  0.00     0.083 N 
HETATM   31  C20 UNL     1      28.428   0.409  54.654  1.00  0.00     0.271 C 
HETATM   32  H17 UNL     1      28.652  -1.617  54.681  1.00  0.00     0.315 HD
HETATM   33  C21 UNL     1      27.484   1.302  53.868  1.00  0.00     0.057 C 
ENDBRANCH  25  27
ENDBRANCH   7  22
TORSDOF 4
ENDMDL
MODEL 2
REMARK VINA RESULT:      -9.2      2.594      6.841
REMARK  4 active torsions:
REMARK  status: ('A' for Active; 'I' for Inactive)
REMARK    1  A    between atoms: N1_1  and  C1_2 
REMARK    2  A    between atoms: N3_11  and  C9_12 
REMARK    3  A    between atoms: C14_18  and  C15_19 
REMARK    4  A    between atoms: N6_22  and  C17_23 
ROOT
HETATM    1  C9  UNL     1      22.548  -0.929  53.223  1.00  0.00     0.145 C 
HETATM    2  C10 UNL     1      21.686  -1.705  54.239  1.00  0.00     0.116 C 
HETATM    3  N4  UNL     1      20.427  -1.338  54.060  1.00  0.00    -0.267 NA
HETATM    4  C11 UNL     1      20.346  -0.369  52.989  1.00  0.00     0.044 A 
HETATM    5  C12 UNL     1      19.684   0.156  51.972  1.00  0.00     0.028 A 
HETATM    6  C13 UNL     1      20.566   1.203  51.495  1.00  0.00     0.011 A 
HETATM    7  C14 UNL     1      21.711   1.291  52.210  1.00  0.00    -0.033 A 
HETATM    8  C23 UNL     1      21.709   0.319  53.231  1.00  0.00     0.100 A 
ENDROOT
BRANCH   1   9
HETATM    9  N3  UNL     1      23.839  -0.682  53.772  1.00  0.00    -0.336 N 
HETATM   10  C1  UNL     1      24.276  -1.024  55.074  1.00  0.00     0.082 A 
HETATM   11  C2  UNL     1      25.477  -0.785  55.577  1.00  0.00     0.074 A 
HETATM   12  C3  UNL     1      26.461  -0.110  54.739  1.00  0.00     0.071 A 
HETATM   13  N2  UNL     1      27.659   0.185  55.089  1.00  0.00    -0.259 NA
HETATM   14  C7  UNL     1      26.069   0.265  53.390  1.00  0.00     0.009 A 
HETATM   15  C4  UNL     1      28.551   0.852  54.185  1.00  0.00     0.129 C 
HETATM   16  C5  UNL     1      28.128   1.328  53.059  1.00  0.00    -0.006 C 
HETATM   17  C6  UNL     1      27.018   0.940  52.516  1.00  0.00     0.029 C 
HETATM   18  C8  UNL     1      24.841  -0.026  52.998  1.00  0.00     0.107 A 
BRANCH  10  19
HETATM   19  N1  UNL     1      23.399  -1.674  55.953  1.00  0.00    -0.288 NA
HETATM   20  H1  UNL     1      23.109  -1.442  56.937  1.00  0.00     0.125 HD
HETATM   21  H2  UNL     1      23.021  -1.578  56.914  1.00  0.00     0.125 HD
ENDBRANCH  10  19
ENDBRANCH   1   9
BRANCH   7  22
HETATM   22  C15 UNL     1      22.598   2.353  51.727  1.00  0.00     0.007 A 
HETATM   23  C16 UNL     1      22.879   3.533  52.383  1.00  0.00     0.152 A 
HETATM   24  N5  UNL     1      23.755   4.274  51.650  1.00  0.00    -0.184 NA
HETATM   25  N6  UNL     1      24.060   3.636  50.548  1.00  0.00    -0.276 N 
HETATM   26  C22 UNL     1      23.371   2.491  50.593  1.00  0.00     0.126 A 
BRANCH  25  27
HETATM   27  C17 UNL     1      24.957   4.074  49.497  1.00  0.00     0.113 C 
HETATM   28  C18 UNL     1      24.751   5.537  49.198  1.00  0.00     0.057 C 
HETATM   29  C19 UNL     1      26.002   6.346  49.481  1.00  0.00     0.271 C 
HETATM   30  N7  UNL     1      27.170   5.825  48.843  1.00  0.00     0.083 N 
HETATM   31  C20 UNL     1      27.332   4.404  48.916  1.00  0.00     0.271 C 
HETATM   32  H17 UNL     1      27.355   6.161  47.883  1.00  0.00     0.315 HD
HETATM   33  C21 UNL     1      26.380   3.876  49.975  1.00  0.00     0.057 C 
ENDBRANCH  25  27
ENDBRANCH   7  22
TORSDOF 4
ENDMDL
MODEL 3
REMARK VINA RESULT:      -9.0      2.561      8.080
REMARK  4 active torsions:
REMARK  status: ('A' for Active; 'I' for Inactive)
REMARK    1  A    between atoms: N1_1  and  C1_2 
REMARK    2  A    between atoms: N3_11  and  C9_12 
REMARK    3  A    between atoms: C14_18  and  C15_19 
REMARK    4  A    between atoms: N6_22  and  C17_23 
ROOT
HETATM    1  C9  UNL     1      25.077  -0.310  53.859  1.00  0.00     0.145 C 
HETATM    2  C10 UNL     1      25.719  -1.689  53.601  1.00  0.00     0.116 C 
HETATM    3  N4  UNL     1      26.894  -1.483  53.029  1.00  0.00    -0.267 NA
HETATM    4  C11 UNL     1      27.123  -0.064  52.873  1.00  0.00     0.044 A 
HETATM    5  C12 UNL     1      27.958   0.961  52.844  1.00  0.00     0.028 A 
HETATM    6  C13 UNL     1      27.093   2.098  52.595  1.00  0.00     0.011 A 
HETATM    7  C14 UNL     1      25.790   1.752  52.482  1.00  0.00    -0.033 A 
HETATM    8  C23 UNL     1      25.654   0.358  52.641  1.00  0.00     0.100 A 
ENDROOT
BRANCH   1   9
HETATM    9  N3  UNL     1      23.660  -0.411  53.765  1.00  0.00    -0.336 N 
HETATM   10  C1  UNL     1      22.796  -1.008  54.715  1.00  0.00     0.082 A 
HETATM   11  C2  UNL     1      21.480  -1.100  54.615  1.00  0.00     0.074 A 
HETATM   12  C3  UNL     1      20.830  -0.548  53.433  1.00  0.00     0.071 A 
HETATM   13  N2  UNL     1      19.569  -0.564  53.201  1.00  0.00    -0.259 NA
HETATM   14  C7  UNL     1      21.667   0.079  52.422  1.00  0.00     0.009 A 
HETATM   15  C4  UNL     1      19.029   0.010  52.001  1.00  0.00     0.129 C 
HETATM   16  C5  UNL     1      19.803   0.404  51.043  1.00  0.00    -0.006 C 
HETATM   17  C6  UNL     1      21.063   0.645  51.224  1.00  0.00     0.029 C 
HETATM   18  C8  UNL     1      22.971   0.112  52.631  1.00  0.00     0.107 A 
BRANCH  10  19
HETATM   19  N1  UNL     1      23.329  -1.567  55.883  1.00  0.00    -0.288 NA
HETATM   20  H1  UNL     1      22.937  -1.639  56.856  1.00  0.00     0.125 HD
HETATM   21  H2  UNL     1      23.080  -1.713  56.879  1.00  0.00     0.125 HD
ENDBRANCH  10  19
ENDBRANCH   1   9
BRANCH   7  22
HETATM   22  C15 UNL     1      24.920   2.903  52.227  1.00  0.00     0.007 A 
HETATM   23  C16 UNL     1      24.025   3.454  53.122  1.00  0.00     0.152 A 
HETATM   24  N5  UNL     1      23.400   4.521  52.553  1.00  0.00    -0.184 NA
HETATM   25  N6  UNL     1      23.841   4.694  51.332  1.00  0.00    -0.276 N 
HETATM   26  C22 UNL     1      24.747   3.730  51.137  1.00  0.00     0.126 A 
BRANCH  25  27
HETATM   27  C17 UNL     1      23.436   5.715  50.387  1.00  0.00     0.113 C 
HETATM   28  C18 UNL     1      21.934   5.830  50.338  1.00  0.00     0.057 C 
HETATM   29  C19 UNL     1      21.463   7.203  50.776  1.00  0.00     0.271 C 
HETATM   30  N7  UNL     1      22.107   8.272  50.079  1.00  0.00     0.083 N 
HETATM   31  C20 UNL     1      23.523   8.135  49.912  1.00  0.00     0.271 C 
HETATM   32  H17 UNL     1      21.666   8.571  49.193  1.00  0.00     0.315 HD
HETATM   33  C21 UNL     1      24.004   7.041  50.849  1.00  0.00     0.057 C 
ENDBRANCH  25  27
ENDBRANCH   7  22
TORSDOF 4
ENDMDL
MODEL 4
REMARK VINA RESULT:      -8.9      3.514      7.770
REMARK  4 active torsions:
REMARK  status: ('A' for Active; 'I' for Inactive)
REMARK    1  A    between atoms: N1_1  and  C1_2 
REMARK    2  A    between atoms: N3_11  and  C9_12 
REMARK    3  A    between atoms: C14_18  and  C15_19 
REMARK    4  A    between atoms: N6_22  and  C17_23 
ROOT
HETATM    1  C9  UNL     1      21.035   0.566  53.475  1.00  0.00     0.145 C 
HETATM    2  C10 UNL     1      20.705  -0.789  54.135  1.00  0.00     0.116 C 
HETATM    3  N4  UNL     1      21.838  -1.461  54.259  1.00  0.00    -0.267 NA
HETATM    4  C11 UNL     1      22.936  -0.675  53.739  1.00  0.00     0.044 A 
HETATM    5  C12 UNL     1      24.208  -0.320  53.786  1.00  0.00     0.028 A 
HETATM    6  C13 UNL     1      24.333   0.645  52.712  1.00  0.00     0.011 A 
HETATM    7  C14 UNL     1      23.169   0.851  52.053  1.00  0.00    -0.033 A 
HETATM    8  C23 UNL     1      22.157   0.048  52.616  1.00  0.00     0.100 A 
ENDROOT
BRANCH   1   9
HETATM    9  N3  UNL     1      19.937   0.996  52.678  1.00  0.00    -0.336 N 
HETATM   10  C1  UNL     1      19.665   2.325  52.271  1.00  0.00     0.082 A 
HETATM   11  C2  UNL     1      18.638   2.715  51.533  1.00  0.00     0.074 A 
HETATM   12  C3  UNL     1      17.681   1.711  51.084  1.00  0.00     0.071 A 
HETATM   13  N2  UNL     1      16.643   1.940  50.367  1.00  0.00    -0.259 NA
HETATM   14  C7  UNL     1      17.908   0.328  51.472  1.00  0.00     0.009 A 
HETATM   15  C4  UNL     1      15.762   0.876  49.978  1.00  0.00     0.129 C 
HETATM   16  C5  UNL     1      15.888  -0.311  50.475  1.00  0.00    -0.006 C 
HETATM   17  C6  UNL     1      16.980  -0.710  51.046  1.00  0.00     0.029 C 
HETATM   18  C8  UNL     1      18.970   0.058  52.210  1.00  0.00     0.107 A 
BRANCH  10  19
HETATM   19  N1  UNL     1      20.528   3.359  52.655  1.00  0.00    -0.288 NA
HETATM   20  H1  UNL     1      20.646   3.855  53.575  1.00  0.00     0.125 HD
HETATM   21  H2  UNL     1      20.758   3.933  53.487  1.00  0.00     0.125 HD
ENDBRANCH  10  19
ENDBRANCH   1   9
BRANCH   7  22
HETATM   22  C15 UNL     1      23.300   1.825  50.965  1.00  0.00     0.007 A 
HETATM   23  C16 UNL     1      22.448   1.953  49.888  1.00  0.00     0.152 A 
HETATM   24  N5  UNL     1      22.866   2.971  49.086  1.00  0.00    -0.184 NA
HETATM   25  N6  UNL     1      23.948   3.514  49.586  1.00  0.00    -0.276 N 
HETATM   26  C22 UNL     1      24.207   2.831  50.707  1.00  0.00     0.126 A 
BRANCH  25  27
HETATM   27  C17 UNL     1      24.707   4.622  49.045  1.00  0.00     0.113 C 
HETATM   28  C18 UNL     1      24.238   5.928  49.636  1.00  0.00     0.057 C 
HETATM   29  C19 UNL     1      25.341   6.616  50.416  1.00  0.00     0.271 C 
HETATM   30  N7  UNL     1      26.552   6.767  49.672  1.00  0.00     0.083 N 
HETATM   31  C20 UNL     1      26.961   5.619  48.919  1.00  0.00     0.271 C 
HETATM   32  H17 UNL     1      26.633   7.623  49.098  1.00  0.00     0.315 HD
HETATM   33  C21 UNL     1      26.163   4.424  49.411  1.00  0.00     0.057 C 
ENDBRANCH  25  27
ENDBRANCH   7  22
TORSDOF 4
ENDMDL
MODEL 5
REMARK VINA RESULT:      -8.9      2.324      3.357
REMARK  4 active torsions:
REMARK  status: ('A' for Active; 'I' for Inactive)
REMARK    1  A    between atoms: N1_1  and  C1_2 
REMARK    2  A    between atoms: N3_11  and  C9_12 
REMARK    3  A    between atoms: C14_18  and  C15_19 
REMARK    4  A    between atoms: N6_22  and  C17_23 
ROOT
HETATM    1  C9  UNL     1      21.451   3.733  52.261  1.00  0.00     0.145 C 
HETATM    2  C10 UNL     1      19.943   3.658  51.944  1.00  0.00     0.116 C 
HETATM    3  N4  UNL     1      19.524   2.447  52.274  1.00  0.00    -0.267 NA
HETATM    4  C11 UNL     1      20.625   1.672  52.802  1.00  0.00     0.044 A 
HETATM    5  C12 UNL     1      21.074   0.744  53.630  1.00  0.00     0.028 A 
HETATM    6  C13 UNL     1      22.498   0.706  53.359  1.00  0.00     0.011 A 
HETATM    7  C14 UNL     1      22.874   1.585  52.402  1.00  0.00    -0.033 A 
HETATM    8  C23 UNL     1      21.747   2.293  51.939  1.00  0.00     0.100 A 
ENDROOT
BRANCH   1   9
HETATM    9  N3  UNL     1      22.097   4.607  51.341  1.00  0.00    -0.336 N 
HETATM   10  C1  UNL     1      23.170   5.484  51.628  1.00  0.00     0.082 A 
HETATM   11  C2  UNL     1      23.759   6.296  50.766  1.00  0.00     0.074 A 
HETATM   12  C3  UNL     1      23.285   6.313  49.387  1.00  0.00     0.071 A 
HETATM   13  N2  UNL     1      23.757   7.045  48.446  1.00  0.00    -0.259 NA
HETATM   14  C7  UNL     1      22.183   5.432  49.033  1.00  0.00     0.009 A 
HETATM   15  C4  UNL     1      23.216   6.985  47.119  1.00  0.00     0.129 C 
HETATM   16  C5  UNL     1      22.131   6.325  46.869  1.00  0.00    -0.006 C 
HETATM   17  C6  UNL     1      21.676   5.413  47.668  1.00  0.00     0.029 C 
HETATM   18  C8  UNL     1      21.674   4.664  49.980  1.00  0.00     0.107 A 
BRANCH  10  19
HETATM   19  N1  UNL     1      23.693   5.539  52.927  1.00  0.00    -0.288 NA
HETATM   20  H1  UNL     1      23.538   4.917  53.761  1.00  0.00     0.125 HD
HETATM   21  H2  UNL     1      23.642   5.024  53.826  1.00  0.00     0.125 HD
ENDBRANCH  10  19
ENDBRANCH   1   9
BRANCH   7  22
HETATM   22  C15 UNL     1      24.313   1.541  52.128  1.00  0.00     0.007 A 
HETATM   23  C16 UNL     1      24.991   2.340  51.231  1.00  0.00     0.152 A 
HETATM   24  N5  UNL     1      26.317   2.037  51.251  1.00  0.00    -0.184 NA
HETATM   25  N6  UNL     1      26.541   1.079  52.115  1.00  0.00    -0.276 N 
HETATM   26  C22 UNL     1      25.346   0.783  52.639  1.00  0.00     0.126 A 
BRANCH  25  27
HETATM   27  C17 UNL     1      27.812   0.466  52.442  1.00  0.00     0.113 C 
HETATM   28  C18 UNL     1      28.488   1.210  53.566  1.00  0.00     0.057 C 
HETATM   29  C19 UNL     1      28.677   0.328  54.785  1.00  0.00     0.271 C 
HETATM   30  N7  UNL     1      29.326  -0.911  54.493  1.00  0.00     0.083 N 
HETATM   31  C20 UNL     1      28.868  -1.587  53.315  1.00  0.00     0.271 C 
HETATM   32  H17 UNL     1      30.359  -0.906  54.526  1.00  0.00     0.315 HD
HETATM   33  C21 UNL     1      27.552  -0.956  52.894  1.00  0.00     0.057 C 
ENDBRANCH  25  27
ENDBRANCH   7  22
TORSDOF 4
ENDMDL
MODEL 6
REMARK VINA RESULT:      -8.8      3.285      8.259
REMARK  4 active torsions:
REMARK  status: ('A' for Active; 'I' for Inactive)
REMARK    1  A    between atoms: N1_1  and  C1_2 
REMARK    2  A    between atoms: N3_11  and  C9_12 
REMARK    3  A    between atoms: C14_18  and  C15_19 
REMARK    4  A    between atoms: N6_22  and  C17_23 
ROOT
HETATM    1  C9  UNL     1      24.600   0.025  53.591  1.00  0.00     0.145 C 
HETATM    2  C10 UNL     1      25.412  -1.242  53.254  1.00  0.00     0.116 C 
HETATM    3  N4  UNL     1      26.467  -0.867  52.549  1.00  0.00    -0.267 NA
HETATM    4  C11 UNL     1      26.455   0.569  52.373  1.00  0.00     0.044 A 
HETATM    5  C12 UNL     1      27.112   1.709  52.250  1.00  0.00     0.028 A 
HETATM    6  C13 UNL     1      26.060   2.696  52.108  1.00  0.00     0.011 A 
HETATM    7  C14 UNL     1      24.821   2.152  52.147  1.00  0.00    -0.033 A 
HETATM    8  C23 UNL     1      24.922   0.756  52.316  1.00  0.00     0.100 A 
ENDROOT
BRANCH   1   9
HETATM    9  N3  UNL     1      23.214  -0.293  53.663  1.00  0.00    -0.336 N 
HETATM   10  C1  UNL     1      22.576  -1.036  54.685  1.00  0.00     0.082 A 
HETATM   11  C2  UNL     1      21.287  -1.331  54.740  1.00  0.00     0.074 A 
HETATM   12  C3  UNL     1      20.418  -0.863  53.666  1.00  0.00     0.071 A 
HETATM   13  N2  UNL     1      19.155  -1.071  53.586  1.00  0.00    -0.259 NA
HETATM   14  C7  UNL     1      21.018  -0.094  52.587  1.00  0.00     0.009 A 
HETATM   15  C4  UNL     1      18.390  -0.565  52.482  1.00  0.00     0.129 C 
HETATM   16  C5  UNL     1      18.970  -0.036  51.454  1.00  0.00    -0.006 C 
HETATM   17  C6  UNL     1      20.191   0.395  51.494  1.00  0.00     0.029 C 
HETATM   18  C8  UNL     1      22.318   0.139  52.640  1.00  0.00     0.107 A 
BRANCH  10  19
HETATM   19  N1  UNL     1      23.329  -1.529  55.758  1.00  0.00    -0.288 NA
HETATM   20  H1  UNL     1      24.332  -1.368  56.030  1.00  0.00     0.125 HD
HETATM   21  H2  UNL     1      24.287  -1.469  56.150  1.00  0.00     0.125 HD
ENDBRANCH  10  19
ENDBRANCH   1   9
BRANCH   7  22
HETATM   22  C15 UNL     1      23.760   3.152  52.001  1.00  0.00     0.007 A 
HETATM   23  C16 UNL     1      23.661   4.335  52.704  1.00  0.00     0.152 A 
HETATM   24  N5  UNL     1      22.560   5.024  52.297  1.00  0.00    -0.184 NA
HETATM   25  N6  UNL     1      21.934   4.351  51.364  1.00  0.00    -0.276 N 
HETATM   26  C22 UNL     1      22.649   3.234  51.187  1.00  0.00     0.126 A 
BRANCH  25  27
HETATM   27  C17 UNL     1      20.723   4.731  50.667  1.00  0.00     0.113 C 
HETATM   28  C18 UNL     1      20.798   4.332  49.214  1.00  0.00     0.057 C 
HETATM   29  C19 UNL     1      19.719   3.330  48.853  1.00  0.00     0.271 C 
HETATM   30  N7  UNL     1      18.406   3.751  49.228  1.00  0.00     0.083 N 
HETATM   31  C20 UNL     1      18.291   4.329  50.534  1.00  0.00     0.271 C 
HETATM   32  H17 UNL     1      17.894   4.322  48.535  1.00  0.00     0.315 HD
HETATM   33  C21 UNL     1      19.559   4.002  51.305  1.00  0.00     0.057 C 
ENDBRANCH  25  27
ENDBRANCH   7  22
TORSDOF 4
ENDMDL
MODEL 7
REMARK VINA RESULT:      -8.7      2.069      7.063
REMARK  4 active torsions:
REMARK  status: ('A' for Active; 'I' for Inactive)
REMARK    1  A    between atoms: N1_1  and  C1_2 
REMARK    2  A    between atoms: N3_11  and  C9_12 
REMARK    3  A    between atoms: C14_18  and  C15_19 
REMARK    4  A    between atoms: N6_22  and  C17_23 
ROOT
HETATM    1  C9  UNL     1      24.018   0.826  52.141  1.00  0.00     0.145 C 
HETATM    2  C10 UNL     1      22.961   0.547  53.230  1.00  0.00     0.116 C 
HETATM    3  N4  UNL     1      21.867   1.218  52.907  1.00  0.00    -0.267 NA
HETATM    4  C11 UNL     1      22.079   1.940  51.672  1.00  0.00     0.044 A 
HETATM    5  C12 UNL     1      21.605   2.422  50.536  1.00  0.00     0.028 A 
HETATM    6  C13 UNL     1      22.758   3.056  49.928  1.00  0.00     0.011 A 
HETATM    7  C14 UNL     1      23.875   2.950  50.683  1.00  0.00    -0.033 A 
HETATM    8  C23 UNL     1      23.583   2.240  51.865  1.00  0.00     0.100 A 
ENDROOT
BRANCH   1   9
HETATM    9  N3  UNL     1      25.322   0.794  52.713  1.00  0.00    -0.336 N 
HETATM   10  C1  UNL     1      25.947   1.840  53.434  1.00  0.00     0.082 A 
HETATM   11  C2  UNL     1      27.162   1.801  53.957  1.00  0.00     0.074 A 
HETATM   12  C3  UNL     1      27.954   0.588  53.793  1.00  0.00     0.071 A 
HETATM   13  N2  UNL     1      29.141   0.407  54.244  1.00  0.00    -0.259 NA
HETATM   14  C7  UNL     1      27.363  -0.521  53.061  1.00  0.00     0.009 A 
HETATM   15  C4  UNL     1      29.835  -0.830  54.027  1.00  0.00     0.129 C 
HETATM   16  C5  UNL     1      29.360  -1.731  53.230  1.00  0.00    -0.006 C 
HETATM   17  C6  UNL     1      28.115  -1.753  52.872  1.00  0.00     0.029 C 
HETATM   18  C8  UNL     1      26.140  -0.367  52.584  1.00  0.00     0.107 A 
BRANCH  10  19
HETATM   19  N1  UNL     1      25.265   3.045  53.642  1.00  0.00    -0.288 NA
HETATM   20  H1  UNL     1      25.391   3.994  53.206  1.00  0.00     0.125 HD
HETATM   21  H2  UNL     1      25.267   4.027  53.307  1.00  0.00     0.125 HD
ENDBRANCH  10  19
ENDBRANCH   1   9
BRANCH   7  22
HETATM   22  C15 UNL     1      25.038   3.595  50.065  1.00  0.00     0.007 A 
HETATM   23  C16 UNL     1      26.322   3.091  50.038  1.00  0.00     0.152 A 
HETATM   24  N5  UNL     1      27.140   3.947  49.366  1.00  0.00    -0.184 NA
HETATM   25  N6  UNL     1      26.455   4.984  48.955  1.00  0.00    -0.276 N 
HETATM   26  C22 UNL     1      25.201   4.775  49.371  1.00  0.00     0.126 A 
BRANCH  25  27
HETATM   27  C17 UNL     1      26.946   6.122  48.204  1.00  0.00     0.113 C 
HETATM   28  C18 UNL     1      26.448   7.412  48.806  1.00  0.00     0.057 C 
HETATM   29  C19 UNL     1      27.591   8.278  49.296  1.00  0.00     0.271 C 
HETATM   30  N7  UNL     1      28.599   8.500  48.308  1.00  0.00     0.083 N 
HETATM   31  C20 UNL     1      28.987   7.347  47.551  1.00  0.00     0.271 C 
HETATM   32  H17 UNL     1      28.456   9.310  47.683  1.00  0.00     0.315 HD
HETATM   33  C21 UNL     1      28.459   6.116  48.267  1.00  0.00     0.057 C 
ENDBRANCH  25  27
ENDBRANCH   7  22
TORSDOF 4
ENDMDL
MODEL 8
REMARK VINA RESULT:      -8.6      5.108      7.925
REMARK  4 active torsions:
REMARK  status: ('A' for Active; 'I' for Inactive)
REMARK    1  A    between atoms: N1_1  and  C1_2 
REMARK    2  A    between atoms: N3_11  and  C9_12 
REMARK    3  A    between atoms: C14_18  and  C15_19 
REMARK    4  A    between atoms: N6_22  and  C17_23 
ROOT
HETATM    1  C9  UNL     1      27.326   8.469  49.608  1.00  0.00     0.145 C 
HETATM    2  C10 UNL     1      25.813   8.763  49.675  1.00  0.00     0.116 C 
HETATM    3  N4  UNL     1      25.174   7.649  49.354  1.00  0.00    -0.267 NA
HETATM    4  C11 UNL     1      26.128   6.599  49.072  1.00  0.00     0.044 A 
HETATM    5  C12 UNL     1      26.456   5.319  49.096  1.00  0.00     0.028 A 
HETATM    6  C13 UNL     1      27.787   5.297  48.521  1.00  0.00     0.011 A 
HETATM    7  C14 UNL     1      28.227   6.527  48.169  1.00  0.00    -0.033 A 
HETATM    8  C23 UNL     1      27.241   7.488  48.472  1.00  0.00     0.100 A 
ENDROOT
BRANCH   1   9
HETATM    9  N3  UNL     1      28.030   9.645  49.219  1.00  0.00    -0.336 N 
HETATM   10  C1  UNL     1      29.420   9.874  49.356  1.00  0.00     0.082 A 
HETATM   11  C2  UNL     1      30.064  10.972  48.995  1.00  0.00     0.074 A 
HETATM   12  C3  UNL     1      29.302  12.063  48.400  1.00  0.00     0.071 A 
HETATM   13  N2  UNL     1      29.788  13.182  48.003  1.00  0.00    -0.259 NA
HETATM   14  C7  UNL     1      27.868  11.885  48.234  1.00  0.00     0.009 A 
HETATM   15  C4  UNL     1      28.948  14.193  47.430  1.00  0.00     0.129 C 
HETATM   16  C5  UNL     1      27.659  14.082  47.451  1.00  0.00    -0.006 C 
HETATM   17  C6  UNL     1      27.065  12.947  47.644  1.00  0.00     0.029 C 
HETATM   18  C8  UNL     1      27.335  10.743  48.632  1.00  0.00     0.107 A 
BRANCH  10  19
HETATM   19  N1  UNL     1      30.235   8.883  49.918  1.00  0.00    -0.288 NA
HETATM   20  H1  UNL     1      30.161   8.362  50.829  1.00  0.00     0.125 HD
HETATM   21  H2  UNL     1      30.297   8.293  50.769  1.00  0.00     0.125 HD
ENDBRANCH  10  19
ENDBRANCH   1   9
BRANCH   7  22
HETATM   22  C15 UNL     1      29.571   6.500  47.585  1.00  0.00     0.007 A 
HETATM   23  C16 UNL     1      30.075   7.405  46.674  1.00  0.00     0.152 A 
HETATM   24  N5  UNL     1      31.360   7.083  46.363  1.00  0.00    -0.184 NA
HETATM   25  N6  UNL     1      31.721   6.012  47.026  1.00  0.00    -0.276 N 
HETATM   26  C22 UNL     1      30.655   5.664  47.754  1.00  0.00     0.126 A 
BRANCH  25  27
HETATM   27  C17 UNL     1      33.005   5.342  46.983  1.00  0.00     0.113 C 
HETATM   28  C18 UNL     1      34.072   6.195  47.622  1.00  0.00     0.057 C 
HETATM   29  C19 UNL     1      34.676   5.518  48.836  1.00  0.00     0.271 C 
HETATM   30  N7  UNL     1      35.134   4.189  48.575  1.00  0.00     0.083 N 
HETATM   31  C20 UNL     1      34.252   3.373  47.796  1.00  0.00     0.271 C 
HETATM   32  H17 UNL     1      36.105   4.100  48.232  1.00  0.00     0.315 HD
HETATM   33  C21 UNL     1      32.892   4.049  47.764  1.00  0.00     0.057 C 
ENDBRANCH  25  27
ENDBRANCH   7  22
TORSDOF 4
ENDMDL
MODEL 9
REMARK VINA RESULT:      -8.6      3.141      6.309
REMARK  4 active torsions:
REMARK  status: ('A' for Active; 'I' for Inactive)
REMARK    1  A    between atoms: N1_1  and  C1_2 
REMARK    2  A    between atoms: N3_11  and  C9_12 
REMARK    3  A    between atoms: C14_18  and  C15_19 
REMARK    4  A    between atoms: N6_22  and  C17_23 
ROOT
HETATM    1  C9  UNL     1      25.372   1.732  51.472  1.00  0.00     0.145 C 
HETATM    2  C10 UNL     1      26.696   2.523  51.485  1.00  0.00     0.116 C 
HETATM    3  N4  UNL     1      27.559   1.847  52.227  1.00  0.00    -0.267 NA
HETATM    4  C11 UNL     1      26.937   0.641  52.728  1.00  0.00     0.044 A 
HETATM    5  C12 UNL     1      27.033  -0.627  53.091  1.00  0.00     0.028 A 
HETATM    6  C13 UNL     1      25.682  -0.972  53.485  1.00  0.00     0.011 A 
HETATM    7  C14 UNL     1      24.818   0.061  53.358  1.00  0.00    -0.033 A 
HETATM    8  C23 UNL     1      25.501   1.194  52.871  1.00  0.00     0.100 A 
ENDROOT
BRANCH   1   9
HETATM    9  N3  UNL     1      24.272   2.631  51.369  1.00  0.00    -0.336 N 
HETATM   10  C1  UNL     1      23.886   3.597  52.329  1.00  0.00     0.082 A 
HETATM   11  C2  UNL     1      22.859   4.425  52.225  1.00  0.00     0.074 A 
HETATM   12  C3  UNL     1      22.031   4.362  51.027  1.00  0.00     0.071 A 
HETATM   13  N2  UNL     1      21.008   5.099  50.789  1.00  0.00    -0.259 NA
HETATM   14  C7  UNL     1      22.380   3.388  50.004  1.00  0.00     0.009 A 
HETATM   15  C4  UNL     1      20.259   4.956  49.573  1.00  0.00     0.129 C 
HETATM   16  C5  UNL     1      20.483   3.973  48.763  1.00  0.00    -0.006 C 
HETATM   17  C6  UNL     1      21.583   3.290  48.790  1.00  0.00     0.029 C 
HETATM   18  C8  UNL     1      23.429   2.614  50.219  1.00  0.00     0.107 A 
BRANCH  10  19
HETATM   19  N1  UNL     1      24.620   3.730  53.514  1.00  0.00    -0.288 NA
HETATM   20  H1  UNL     1      24.459   3.335  54.476  1.00  0.00     0.125 HD
HETATM   21  H2  UNL     1      24.596   3.418  54.503  1.00  0.00     0.125 HD
ENDBRANCH  10  19
ENDBRANCH   1   9
BRANCH   7  22
HETATM   22  C15 UNL     1      23.453  -0.291  53.761  1.00  0.00     0.007 A 
HETATM   23  C16 UNL     1      23.108  -1.163  54.772  1.00  0.00     0.152 A 
HETATM   24  N5  UNL     1      21.753  -1.236  54.878  1.00  0.00    -0.184 NA
HETATM   25  N6  UNL     1      21.196  -0.456  53.987  1.00  0.00    -0.276 N 
HETATM   26  C22 UNL     1      22.209   0.109  53.320  1.00  0.00     0.126 A 
BRANCH  25  27
HETATM   27  C17 UNL     1      19.780  -0.242  53.765  1.00  0.00     0.113 C 
HETATM   28  C18 UNL     1      19.555   0.599  52.535  1.00  0.00     0.057 C 
HETATM   29  C19 UNL     1      18.774  -0.155  51.477  1.00  0.00     0.271 C 
HETATM   30  N7  UNL     1      17.559  -0.726  51.968  1.00  0.00     0.083 N 
HETATM   31  C20 UNL     1      17.653  -1.379  53.240  1.00  0.00     0.271 C 
HETATM   32  H17 UNL     1      16.723  -0.120  51.934  1.00  0.00     0.315 HD
HETATM   33  C21 UNL     1      19.124  -1.591  53.552  1.00  0.00     0.057 C 
ENDBRANCH  25  27
ENDBRANCH   7  22
TORSDOF 4
ENDMDL
