MODEL 1
REMARK VINA RESULT:      -7.7      0.000      0.000
REMARK  4 active torsions:
REMARK  status: ('A' for Active; 'I' for Inactive)
REMARK    1  A    between atoms: N1_4  and  C4_5 
REMARK    2  A    between atoms: C6_8  and  N2_9 
REMARK    3  A    between atoms: C8_12  and  N3_13 
REMARK    4  A    between atoms: C10_15  and  O2_16 
ROOT
HETATM    1  C4  UNL     1      23.046   3.037  51.587  1.00  0.00     0.163 C 
HETATM    2  C5  UNL     1      22.621   2.288  50.329  1.00  0.00     0.074 C 
HETATM    3  O1  UNL     1      21.886   3.613  52.129  1.00  0.00    -0.338 OA
HETATM    4  C6  UNL     1      21.261   4.596  51.479  1.00  0.00     0.208 C 
HETATM    5  C7  UNL     1      22.135   5.821  51.290  1.00  0.00     0.086 C 
HETATM    6  C8  UNL     1      23.453   5.484  51.954  1.00  0.00     0.257 C 
HETATM    7  C10 UNL     1      23.985   4.146  51.378  1.00  0.00     0.209 C 
ENDROOT
BRANCH   1   8
HETATM    8  N1  UNL     1      23.338   1.998  52.537  1.00  0.00    -0.342 N 
HETATM    9  C3  UNL     1      24.681   1.758  53.130  1.00  0.00     0.165 C 
HETATM   10  C2  UNL     1      24.765   0.288  53.244  1.00  0.00    -0.037 C 
HETATM   11  C1  UNL     1      25.732  -0.571  53.074  1.00  0.00     0.021 C 
HETATM   12  C17 UNL     1      23.404  -0.069  53.630  1.00  0.00    -0.002 A 
HETATM   13  C12 UNL     1      22.578   0.964  53.199  1.00  0.00     0.043 A 
HETATM   14  C16 UNL     1      22.794  -1.144  54.293  1.00  0.00     0.014 A 
HETATM   15  C13 UNL     1      21.201   0.991  53.389  1.00  0.00     0.030 A 
HETATM   16  C14 UNL     1      20.634  -0.103  54.057  1.00  0.00     0.002 A 
HETATM   17  C15 UNL     1      21.412  -1.176  54.514  1.00  0.00     0.001 A 
ENDBRANCH   1   8
BRANCH   7  18
HETATM   18  O2  UNL     1      24.363   4.411  50.124  1.00  0.00    -0.384 OA
HETATM   19  C11 UNL     1      25.525   4.231  49.552  1.00  0.00     0.202 C 
ENDBRANCH   7  18
BRANCH   4  20
HETATM   20  N2  UNL     1      20.482   4.261  50.309  1.00  0.00    -0.237 NA
HETATM   21  I1  UNL     1      18.730   3.326  51.004  1.00  0.00     0.020 I 
HETATM   22  H9  UNL     1      20.163   5.171  49.891  1.00  0.00     0.136 HD
ENDBRANCH   4  20
BRANCH   6  23
HETATM   23  N3  UNL     1      24.431   6.527  51.824  1.00  0.00     0.086 N 
HETATM   24  C9  UNL     1      23.880   7.583  51.002  1.00  0.00     0.307 C 
HETATM   25  H13 UNL     1      25.282   6.156  51.384  1.00  0.00     0.316 HD
ENDBRANCH   6  23
TORSDOF 4
ENDMDL
MODEL 2
REMARK VINA RESULT:      -7.6      2.218      3.492
REMARK  4 active torsions:
REMARK  status: ('A' for Active; 'I' for Inactive)
REMARK    1  A    between atoms: N1_4  and  C4_5 
REMARK    2  A    between atoms: C6_8  and  N2_9 
REMARK    3  A    between atoms: C8_12  and  N3_13 
REMARK    4  A    between atoms: C10_15  and  O2_16 
ROOT
HETATM    1  C4  UNL     1      23.560   3.024  51.780  1.00  0.00     0.163 C 
HETATM    2  C5  UNL     1      23.558   4.258  52.675  1.00  0.00     0.074 C 
HETATM    3  O1  UNL     1      24.789   3.015  51.102  1.00  0.00    -0.338 OA
HETATM    4  C6  UNL     1      25.059   3.954  50.194  1.00  0.00     0.208 C 
HETATM    5  C7  UNL     1      24.084   3.944  49.032  1.00  0.00     0.086 C 
HETATM    6  C8  UNL     1      23.125   2.809  49.320  1.00  0.00     0.257 C 
HETATM    7  C10 UNL     1      22.526   2.996  50.738  1.00  0.00     0.209 C 
ENDROOT
BRANCH   1   8
HETATM    8  N1  UNL     1      23.711   1.923  52.693  1.00  0.00    -0.342 N 
HETATM    9  C3  UNL     1      25.005   1.504  53.293  1.00  0.00     0.165 C 
HETATM   10  C2  UNL     1      24.913   0.031  53.351  1.00  0.00    -0.037 C 
HETATM   11  C1  UNL     1      25.775  -0.930  53.160  1.00  0.00     0.021 C 
HETATM   12  C17 UNL     1      23.513  -0.176  53.705  1.00  0.00    -0.002 A 
HETATM   13  C12 UNL     1      22.823   0.963  53.304  1.00  0.00     0.043 A 
HETATM   14  C16 UNL     1      22.769  -1.195  54.318  1.00  0.00     0.014 A 
HETATM   15  C13 UNL     1      21.455   1.146  53.477  1.00  0.00     0.030 A 
HETATM   16  C14 UNL     1      20.752   0.102  54.094  1.00  0.00     0.002 A 
HETATM   17  C15 UNL     1      21.389  -1.071  54.519  1.00  0.00     0.001 A 
ENDBRANCH   1   8
BRANCH   7  18
HETATM   18  O2  UNL     1      21.701   4.043  50.652  1.00  0.00    -0.384 OA
HETATM   19  C11 UNL     1      20.469   4.167  51.073  1.00  0.00     0.202 C 
ENDBRANCH   7  18
BRANCH   4  20
HETATM   20  N2  UNL     1      25.386   5.284  50.657  1.00  0.00    -0.237 NA
HETATM   21  I1  UNL     1      26.160   6.321  48.998  1.00  0.00     0.020 I 
HETATM   22  H9  UNL     1      24.474   5.757  50.877  1.00  0.00     0.136 HD
ENDBRANCH   4  20
BRANCH   6  23
HETATM   23  N3  UNL     1      22.089   2.686  48.333  1.00  0.00     0.086 N 
HETATM   24  C9  UNL     1      21.516   1.360  48.420  1.00  0.00     0.307 C 
HETATM   25  H13 UNL     1      22.480   2.832  47.395  1.00  0.00     0.316 HD
ENDBRANCH   6  23
TORSDOF 4
ENDMDL
MODEL 3
REMARK VINA RESULT:      -7.2      2.680      4.057
REMARK  4 active torsions:
REMARK  status: ('A' for Active; 'I' for Inactive)
REMARK    1  A    between atoms: N1_4  and  C4_5 
REMARK    2  A    between atoms: C6_8  and  N2_9 
REMARK    3  A    between atoms: C8_12  and  N3_13 
REMARK    4  A    between atoms: C10_15  and  O2_16 
ROOT
HETATM    1  C4  UNL     1      24.153   2.449  51.846  1.00  0.00     0.163 C 
HETATM    2  C5  UNL     1      24.545   2.791  53.278  1.00  0.00     0.074 C 
HETATM    3  O1  UNL     1      25.243   1.774  51.275  1.00  0.00    -0.338 OA
HETATM    4  C6  UNL     1      26.386   2.422  51.048  1.00  0.00     0.208 C 
HETATM    5  C7  UNL     1      26.222   3.581  50.083  1.00  0.00     0.086 C 
HETATM    6  C8  UNL     1      24.760   3.573  49.688  1.00  0.00     0.257 C 
HETATM    7  C10 UNL     1      23.887   3.597  50.970  1.00  0.00     0.209 C 
ENDROOT
BRANCH   1   8
HETATM    8  N1  UNL     1      23.185   1.394  51.985  1.00  0.00    -0.342 N 
HETATM    9  C3  UNL     1      22.126   1.091  50.985  1.00  0.00     0.165 C 
HETATM   10  C2  UNL     1      20.964   0.690  51.805  1.00  0.00    -0.037 C 
HETATM   11  C1  UNL     1      19.680   0.894  51.700  1.00  0.00     0.021 C 
HETATM   12  C17 UNL     1      21.593  -0.067  52.882  1.00  0.00    -0.002 A 
HETATM   13  C12 UNL     1      22.911   0.370  52.965  1.00  0.00     0.043 A 
HETATM   14  C16 UNL     1      21.190  -1.065  53.780  1.00  0.00     0.014 A 
HETATM   15  C13 UNL     1      23.838  -0.123  53.876  1.00  0.00     0.030 A 
HETATM   16  C14 UNL     1      23.392  -1.120  54.755  1.00  0.00     0.002 A 
HETATM   17  C15 UNL     1      22.077  -1.602  54.721  1.00  0.00     0.001 A 
ENDBRANCH   1   8
BRANCH   7  18
HETATM   18  O2  UNL     1      24.030   4.820  51.488  1.00  0.00    -0.384 OA
HETATM   19  C11 UNL     1      23.122   5.725  51.745  1.00  0.00     0.202 C 
ENDBRANCH   7  18
BRANCH   4  20
HETATM   20  N2  UNL     1      27.237   2.731  52.175  1.00  0.00    -0.237 NA
HETATM   21  I1  UNL     1      27.728   0.894  53.075  1.00  0.00     0.020 I 
HETATM   22  H9  UNL     1      28.140   3.094  51.778  1.00  0.00     0.136 HD
ENDBRANCH   4  20
BRANCH   6  23
HETATM   23  N3  UNL     1      24.411   4.651  48.806  1.00  0.00     0.086 N 
HETATM   24  C9  UNL     1      23.097   4.397  48.256  1.00  0.00     0.307 C 
HETATM   25  H13 UNL     1      25.097   4.715  48.044  1.00  0.00     0.316 HD
ENDBRANCH   6  23
TORSDOF 4
ENDMDL
MODEL 4
REMARK VINA RESULT:      -7.2      2.066      3.267
REMARK  4 active torsions:
REMARK  status: ('A' for Active; 'I' for Inactive)
REMARK    1  A    between atoms: N1_4  and  C4_5 
REMARK    2  A    between atoms: C6_8  and  N2_9 
REMARK    3  A    between atoms: C8_12  and  N3_13 
REMARK    4  A    between atoms: C10_15  and  O2_16 
ROOT
HETATM    1  C4  UNL     1      22.668   2.399  50.695  1.00  0.00     0.163 C 
HETATM    2  C5  UNL     1      23.876   3.008  49.992  1.00  0.00     0.074 C 
HETATM    3  O1  UNL     1      22.216   1.343  49.888  1.00  0.00    -0.338 OA
HETATM    4  C6  UNL     1      21.679   1.597  48.694  1.00  0.00     0.208 C 
HETATM    5  C7  UNL     1      20.429   2.451  48.784  1.00  0.00     0.086 C 
HETATM    6  C8  UNL     1      20.218   2.704  50.262  1.00  0.00     0.257 C 
HETATM    7  C10 UNL     1      21.517   3.294  50.868  1.00  0.00     0.209 C 
ENDROOT
BRANCH   1   8
HETATM    8  N1  UNL     1      23.229   1.700  51.821  1.00  0.00    -0.342 N 
HETATM    9  C3  UNL     1      24.661   1.758  52.214  1.00  0.00     0.165 C 
HETATM   10  C2  UNL     1      24.956   0.392  52.696  1.00  0.00    -0.037 C 
HETATM   11  C1  UNL     1      25.995  -0.390  52.593  1.00  0.00     0.021 C 
HETATM   12  C17 UNL     1      23.723   0.039  53.391  1.00  0.00    -0.002 A 
HETATM   13  C12 UNL     1      22.715   0.831  52.853  1.00  0.00     0.043 A 
HETATM   14  C16 UNL     1      23.362  -0.856  54.408  1.00  0.00     0.014 A 
HETATM   15  C13 UNL     1      21.387   0.786  53.263  1.00  0.00     0.030 A 
HETATM   16  C14 UNL     1      21.072  -0.122  54.283  1.00  0.00     0.002 A 
HETATM   17  C15 UNL     1      22.042  -0.948  54.865  1.00  0.00     0.001 A 
ENDBRANCH   1   8
BRANCH   7  18
HETATM   18  O2  UNL     1      21.617   4.535  50.384  1.00  0.00    -0.384 OA
HETATM   19  C11 UNL     1      21.730   5.669  51.025  1.00  0.00     0.202 C 
ENDBRANCH   7  18
BRANCH   4  20
HETATM   20  N2  UNL     1      22.558   1.977  47.611  1.00  0.00    -0.237 NA
HETATM   21  I1  UNL     1      21.668   3.637  46.673  1.00  0.00     0.020 I 
HETATM   22  H9  UNL     1      23.435   2.347  48.054  1.00  0.00     0.136 HD
ENDBRANCH   4  20
BRANCH   6  23
HETATM   23  N3  UNL     1      19.091   3.552  50.530  1.00  0.00     0.086 N 
HETATM   24  C9  UNL     1      18.309   2.966  51.598  1.00  0.00     0.307 C 
HETATM   25  H13 UNL     1      18.511   3.641  49.687  1.00  0.00     0.316 HD
ENDBRANCH   6  23
TORSDOF 4
ENDMDL
MODEL 5
REMARK VINA RESULT:      -7.2      2.053      4.085
REMARK  4 active torsions:
REMARK  status: ('A' for Active; 'I' for Inactive)
REMARK    1  A    between atoms: N1_4  and  C4_5 
REMARK    2  A    between atoms: C6_8  and  N2_9 
REMARK    3  A    between atoms: C8_12  and  N3_13 
REMARK    4  A    between atoms: C10_15  and  O2_16 
ROOT
HETATM    1  C4  UNL     1      23.572   3.066  51.328  1.00  0.00     0.163 C 
HETATM    2  C5  UNL     1      23.742   3.962  52.549  1.00  0.00     0.074 C 
HETATM    3  O1  UNL     1      24.713   3.244  50.529  1.00  0.00    -0.338 OA
HETATM    4  C6  UNL     1      24.929   4.413  49.924  1.00  0.00     0.208 C 
HETATM    5  C7  UNL     1      23.828   4.780  48.948  1.00  0.00     0.086 C 
HETATM    6  C8  UNL     1      22.846   3.629  48.995  1.00  0.00     0.257 C 
HETATM    7  C10 UNL     1      22.425   3.379  50.466  1.00  0.00     0.209 C 
ENDROOT
BRANCH   1   8
HETATM    8  N1  UNL     1      23.765   1.734  51.836  1.00  0.00    -0.342 N 
HETATM    9  C3  UNL     1      22.675   0.737  52.008  1.00  0.00     0.165 C 
HETATM   10  C2  UNL     1      23.044   0.013  53.243  1.00  0.00    -0.037 C 
HETATM   11  C1  UNL     1      22.355  -0.467  54.240  1.00  0.00     0.021 C 
HETATM   12  C17 UNL     1      24.496  -0.076  53.125  1.00  0.00    -0.002 A 
HETATM   13  C12 UNL     1      24.897   0.957  52.283  1.00  0.00     0.043 A 
HETATM   14  C16 UNL     1      25.498  -0.913  53.635  1.00  0.00     0.014 A 
HETATM   15  C13 UNL     1      26.217   1.199  51.923  1.00  0.00     0.030 A 
HETATM   16  C14 UNL     1      27.185   0.336  52.455  1.00  0.00     0.002 A 
HETATM   17  C15 UNL     1      26.846  -0.721  53.310  1.00  0.00     0.001 A 
ENDBRANCH   1   8
BRANCH   7  18
HETATM   18  O2  UNL     1      21.657   4.417  50.809  1.00  0.00    -0.384 OA
HETATM   19  C11 UNL     1      20.435   4.427  51.276  1.00  0.00     0.202 C 
ENDBRANCH   7  18
BRANCH   4  20
HETATM   20  N2  UNL     1      25.381   5.528  50.724  1.00  0.00    -0.237 NA
HETATM   21  I1  UNL     1      24.228   7.189  50.142  1.00  0.00     0.020 I 
HETATM   22  H9  UNL     1      25.092   5.324  51.713  1.00  0.00     0.136 HD
ENDBRANCH   4  20
BRANCH   6  23
HETATM   23  N3  UNL     1      21.698   3.835  48.157  1.00  0.00     0.086 N 
HETATM   24  C9  UNL     1      21.107   2.551  47.850  1.00  0.00     0.307 C 
HETATM   25  H13 UNL     1      21.980   4.302  47.287  1.00  0.00     0.316 HD
ENDBRANCH   6  23
TORSDOF 4
ENDMDL
MODEL 6
REMARK VINA RESULT:      -7.1      1.894      3.094
REMARK  4 active torsions:
REMARK  status: ('A' for Active; 'I' for Inactive)
REMARK    1  A    between atoms: N1_4  and  C4_5 
REMARK    2  A    between atoms: C6_8  and  N2_9 
REMARK    3  A    between atoms: C8_12  and  N3_13 
REMARK    4  A    between atoms: C10_15  and  O2_16 
ROOT
HETATM    1  C4  UNL     1      21.898   1.514  51.523  1.00  0.00     0.163 C 
HETATM    2  C5  UNL     1      20.617   0.736  51.244  1.00  0.00     0.074 C 
HETATM    3  O1  UNL     1      21.595   2.456  52.519  1.00  0.00    -0.338 OA
HETATM    4  C6  UNL     1      20.769   3.469  52.251  1.00  0.00     0.208 C 
HETATM    5  C7  UNL     1      21.284   4.368  51.144  1.00  0.00     0.086 C 
HETATM    6  C8  UNL     1      22.619   3.783  50.736  1.00  0.00     0.257 C 
HETATM    7  C10 UNL     1      22.432   2.282  50.392  1.00  0.00     0.209 C 
ENDROOT
BRANCH   1   8
HETATM    8  N1  UNL     1      22.731   0.582  52.235  1.00  0.00    -0.342 N 
HETATM    9  C3  UNL     1      22.249  -0.701  52.813  1.00  0.00     0.165 C 
HETATM   10  C2  UNL     1      23.017  -0.839  54.068  1.00  0.00    -0.037 C 
HETATM   11  C1  UNL     1      22.720  -1.284  55.257  1.00  0.00     0.021 C 
HETATM   12  C17 UNL     1      24.328  -0.325  53.684  1.00  0.00    -0.002 A 
HETATM   13  C12 UNL     1      24.128   0.515  52.593  1.00  0.00     0.043 A 
HETATM   14  C16 UNL     1      25.644  -0.482  54.140  1.00  0.00     0.014 A 
HETATM   15  C13 UNL     1      25.148   1.195  51.937  1.00  0.00     0.030 A 
HETATM   16  C14 UNL     1      26.448   1.006  52.426  1.00  0.00     0.002 A 
HETATM   17  C15 UNL     1      26.715   0.175  53.522  1.00  0.00     0.001 A 
ENDBRANCH   1   8
BRANCH   7  18
HETATM   18  O2  UNL     1      21.751   2.251  49.244  1.00  0.00    -0.384 OA
HETATM   19  C11 UNL     1      22.057   1.674  48.111  1.00  0.00     0.202 C 
ENDBRANCH   7  18
BRANCH   4  20
HETATM   20  N2  UNL     1      19.353   3.194  52.155  1.00  0.00    -0.237 NA
HETATM   21  I1  UNL     1      18.671   4.166  50.418  1.00  0.00     0.020 I 
HETATM   22  H9  UNL     1      19.260   2.168  51.952  1.00  0.00     0.136 HD
ENDBRANCH   4  20
BRANCH   6  23
HETATM   23  N3  UNL     1      23.233   4.490  49.647  1.00  0.00     0.086 N 
HETATM   24  C9  UNL     1      22.498   5.714  49.414  1.00  0.00     0.307 C 
HETATM   25  H13 UNL     1      23.215   3.910  48.800  1.00  0.00     0.316 HD
ENDBRANCH   6  23
TORSDOF 4
ENDMDL
MODEL 7
REMARK VINA RESULT:      -6.9      1.871      2.349
REMARK  4 active torsions:
REMARK  status: ('A' for Active; 'I' for Inactive)
REMARK    1  A    between atoms: N1_4  and  C4_5 
REMARK    2  A    between atoms: C6_8  and  N2_9 
REMARK    3  A    between atoms: C8_12  and  N3_13 
REMARK    4  A    between atoms: C10_15  and  O2_16 
ROOT
HETATM    1  C4  UNL     1      21.616   1.983  51.139  1.00  0.00     0.163 C 
HETATM    2  C5  UNL     1      21.471   0.834  50.149  1.00  0.00     0.074 C 
HETATM    3  O1  UNL     1      20.440   2.013  51.905  1.00  0.00    -0.338 OA
HETATM    4  C6  UNL     1      19.280   2.348  51.336  1.00  0.00     0.208 C 
HETATM    5  C7  UNL     1      19.292   3.753  50.765  1.00  0.00     0.086 C 
HETATM    6  C8  UNL     1      20.667   4.304  51.077  1.00  0.00     0.257 C 
HETATM    7  C10 UNL     1      21.742   3.320  50.545  1.00  0.00     0.209 C 
ENDROOT
BRANCH   1   8
HETATM    8  N1  UNL     1      22.584   1.511  52.092  1.00  0.00    -0.342 N 
HETATM    9  C3  UNL     1      23.978   2.019  52.193  1.00  0.00     0.165 C 
HETATM   10  C2  UNL     1      24.772   0.821  52.536  1.00  0.00    -0.037 C 
HETATM   11  C1  UNL     1      25.956   0.400  52.188  1.00  0.00     0.021 C 
HETATM   12  C17 UNL     1      23.879   0.111  53.446  1.00  0.00    -0.002 A 
HETATM   13  C12 UNL     1      22.587   0.541  53.162  1.00  0.00     0.043 A 
HETATM   14  C16 UNL     1      24.029  -0.836  54.469  1.00  0.00     0.014 A 
HETATM   15  C13 UNL     1      21.453   0.092  53.828  1.00  0.00     0.030 A 
HETATM   16  C14 UNL     1      21.650  -0.854  54.844  1.00  0.00     0.002 A 
HETATM   17  C15 UNL     1      22.926  -1.328  55.177  1.00  0.00     0.001 A 
ENDBRANCH   1   8
BRANCH   7  18
HETATM   18  O2  UNL     1      21.698   3.414  49.213  1.00  0.00    -0.384 OA
HETATM   19  C11 UNL     1      22.674   3.596  48.361  1.00  0.00     0.202 C 
ENDBRANCH   7  18
BRANCH   4  20
HETATM   20  N2  UNL     1      18.632   1.384  50.476  1.00  0.00    -0.237 NA
HETATM   21  I1  UNL     1      17.911  -0.146  51.727  1.00  0.00     0.020 I 
HETATM   22  H9  UNL     1      17.774   1.854  50.092  1.00  0.00     0.136 HD
ENDBRANCH   4  20
BRANCH   6  23
HETATM   23  N3  UNL     1      20.874   5.626  50.555  1.00  0.00     0.086 N 
HETATM   24  C9  UNL     1      22.055   6.191  51.170  1.00  0.00     0.307 C 
HETATM   25  H13 UNL     1      20.060   6.215  50.765  1.00  0.00     0.316 HD
ENDBRANCH   6  23
TORSDOF 4
ENDMDL
MODEL 8
REMARK VINA RESULT:      -6.6      2.605      4.142
REMARK  4 active torsions:
REMARK  status: ('A' for Active; 'I' for Inactive)
REMARK    1  A    between atoms: N1_4  and  C4_5 
REMARK    2  A    between atoms: C6_8  and  N2_9 
REMARK    3  A    between atoms: C8_12  and  N3_13 
REMARK    4  A    between atoms: C10_15  and  O2_16 
ROOT
HETATM    1  C4  UNL     1      22.440   2.634  51.102  1.00  0.00     0.163 C 
HETATM    2  C5  UNL     1      22.756   3.316  52.428  1.00  0.00     0.074 C 
HETATM    3  O1  UNL     1      23.634   2.051  50.649  1.00  0.00    -0.338 OA
HETATM    4  C6  UNL     1      24.653   2.824  50.269  1.00  0.00     0.208 C 
HETATM    5  C7  UNL     1      24.303   3.722  49.099  1.00  0.00     0.086 C 
HETATM    6  C8  UNL     1      22.867   3.390  48.750  1.00  0.00     0.257 C 
HETATM    7  C10 UNL     1      21.992   3.523  50.023  1.00  0.00     0.209 C 
ENDROOT
BRANCH   1   8
HETATM    8  N1  UNL     1      21.664   1.480  51.472  1.00  0.00    -0.342 N 
HETATM    9  C3  UNL     1      20.534   0.940  50.671  1.00  0.00     0.165 C 
HETATM   10  C2  UNL     1      19.565   0.476  51.687  1.00  0.00    -0.037 C 
HETATM   11  C1  UNL     1      18.263   0.496  51.759  1.00  0.00     0.021 C 
HETATM   12  C17 UNL     1      20.440  -0.077  52.716  1.00  0.00    -0.002 A 
HETATM   13  C12 UNL     1      21.679   0.536  52.564  1.00  0.00     0.043 A 
HETATM   14  C16 UNL     1      20.313  -1.022  53.744  1.00  0.00     0.014 A 
HETATM   15  C13 UNL     1      22.784   0.266  53.363  1.00  0.00     0.030 A 
HETATM   16  C14 UNL     1      22.612  -0.686  54.378  1.00  0.00     0.002 A 
HETATM   17  C15 UNL     1      21.389  -1.337  54.583  1.00  0.00     0.001 A 
ENDBRANCH   1   8
BRANCH   7  18
HETATM   18  O2  UNL     1      21.921   4.830  50.285  1.00  0.00    -0.384 OA
HETATM   19  C11 UNL     1      20.869   5.579  50.497  1.00  0.00     0.202 C 
ENDBRANCH   7  18
BRANCH   4  20
HETATM   20  N2  UNL     1      25.429   3.490  51.291  1.00  0.00    -0.237 NA
HETATM   21  I1  UNL     1      26.576   2.001  52.237  1.00  0.00     0.020 I 
HETATM   22  H9  UNL     1      26.124   4.098  50.790  1.00  0.00     0.136 HD
ENDBRANCH   4  20
BRANCH   6  23
HETATM   23  N3  UNL     1      22.349   4.196  47.680  1.00  0.00     0.086 N 
HETATM   24  C9  UNL     1      21.351   3.433  46.963  1.00  0.00     0.307 C 
HETATM   25  H13 UNL     1      23.108   4.459  47.041  1.00  0.00     0.316 HD
ENDBRANCH   6  23
TORSDOF 4
ENDMDL
MODEL 9
REMARK VINA RESULT:      -6.6      5.954      8.494
REMARK  4 active torsions:
REMARK  status: ('A' for Active; 'I' for Inactive)
REMARK    1  A    between atoms: N1_4  and  C4_5 
REMARK    2  A    between atoms: C6_8  and  N2_9 
REMARK    3  A    between atoms: C8_12  and  N3_13 
REMARK    4  A    between atoms: C10_15  and  O2_16 
ROOT
HETATM    1  C4  UNL     1      27.359   8.267  47.981  1.00  0.00     0.163 C 
HETATM    2  C5  UNL     1      26.702   9.516  47.406  1.00  0.00     0.074 C 
HETATM    3  O1  UNL     1      27.611   8.526  49.337  1.00  0.00    -0.338 OA
HETATM    4  C6  UNL     1      28.518   9.440  49.686  1.00  0.00     0.208 C 
HETATM    5  C7  UNL     1      29.910   9.104  49.189  1.00  0.00     0.086 C 
HETATM    6  C8  UNL     1      29.772   7.783  48.463  1.00  0.00     0.257 C 
HETATM    7  C10 UNL     1      28.656   7.905  47.393  1.00  0.00     0.209 C 
ENDROOT
BRANCH   1   8
HETATM    8  N1  UNL     1      26.292   7.305  48.051  1.00  0.00    -0.342 N 
HETATM    9  C3  UNL     1      24.933   7.518  47.487  1.00  0.00     0.165 C 
HETATM   10  C2  UNL     1      24.035   6.858  48.457  1.00  0.00    -0.037 C 
HETATM   11  C1  UNL     1      22.854   7.149  48.927  1.00  0.00     0.021 C 
HETATM   12  C17 UNL     1      24.806   5.679  48.836  1.00  0.00    -0.002 A 
HETATM   13  C12 UNL     1      26.142   5.972  48.584  1.00  0.00     0.043 A 
HETATM   14  C16 UNL     1      24.514   4.411  49.358  1.00  0.00     0.014 A 
HETATM   15  C13 UNL     1      27.190   5.087  48.815  1.00  0.00     0.030 A 
HETATM   16  C14 UNL     1      26.852   3.830  49.335  1.00  0.00     0.002 A 
HETATM   17  C15 UNL     1      25.525   3.476  49.613  1.00  0.00     0.001 A 
ENDBRANCH   1   8
BRANCH   7  18
HETATM   18  O2  UNL     1      29.147   8.699  46.439  1.00  0.00    -0.384 OA
HETATM   19  C11 UNL     1      29.272   8.477  45.156  1.00  0.00     0.202 C 
ENDBRANCH   7  18
BRANCH   4  20
HETATM   20  N2  UNL     1      28.178  10.838  49.538  1.00  0.00    -0.237 NA
HETATM   21  I1  UNL     1      29.842  11.767  48.647  1.00  0.00     0.020 I 
HETATM   22  H9  UNL     1      27.416  10.885  48.816  1.00  0.00     0.136 HD
ENDBRANCH   4  20
BRANCH   6  23
HETATM   23  N3  UNL     1      31.003   7.334  47.875  1.00  0.00     0.086 N 
HETATM   24  C9  UNL     1      30.975   5.890  47.781  1.00  0.00     0.307 C 
HETATM   25  H13 UNL     1      31.796   7.627  48.458  1.00  0.00     0.316 HD
ENDBRANCH   6  23
TORSDOF 4
ENDMDL
