MODEL 1
REMARK VINA RESULT:      -9.0      0.000      0.000
REMARK  6 active torsions:
REMARK  status: ('A' for Active; 'I' for Inactive)
REMARK    1  A    between atoms: C2_2  and  N4_18 
REMARK    2  A    between atoms: C3_3  and  C4_4 
REMARK    3  A    between atoms: C7_9  and  N3_10 
REMARK    4  A    between atoms: N3_10  and  C8_11 
REMARK    5  A    between atoms: N4_18  and  C14_19 
REMARK    6  A    between atoms: C14_19  and  C15_20 
ROOT
HETATM    1  C4  UNL     1      26.271   2.444  53.376  1.00  0.00     0.037 C 
HETATM    2  C5  UNL     1      26.990   1.442  53.774  1.00  0.00     0.104 A 
HETATM    3  N1  UNL     1      28.247   1.511  54.481  1.00  0.00    -0.238 NA
HETATM    4  C6  UNL     1      28.631   0.310  54.687  1.00  0.00     0.236 A 
HETATM    5  N2  UNL     1      27.699  -0.648  54.153  1.00  0.00    -0.222 NA
HETATM    6  C7  UNL     1      26.717   0.021  53.606  1.00  0.00     0.158 A 
ENDROOT
BRANCH   1   7
HETATM    7  C3  UNL     1      25.016   2.513  52.673  1.00  0.00     0.026 C 
HETATM    8  C2  UNL     1      25.007   3.085  51.480  1.00  0.00     0.001 C 
HETATM    9  C1  UNL     1      24.014   3.374  50.437  1.00  0.00     0.068 C 
BRANCH   8  10
HETATM   10  N4  UNL     1      26.215   3.625  50.900  1.00  0.00    -0.389 N 
HETATM   11  H12 UNL     1      26.775   4.177  51.591  1.00  0.00     0.159 HD
BRANCH  10  12
HETATM   12  C14 UNL     1      26.674   3.467  49.531  1.00  0.00     0.158 C 
BRANCH  12  13
HETATM   13  C15 UNL     1      27.063   4.767  48.936  1.00  0.00    -0.041 A 
HETATM   14  C16 UNL     1      28.334   5.069  48.490  1.00  0.00     0.010 A 
HETATM   15  C17 UNL     1      28.640   6.305  47.940  1.00  0.00     0.019 A 
HETATM   16  C18 UNL     1      27.661   7.282  47.825  1.00  0.00     0.011 A 
HETATM   17 BR1  UNL     1      27.955   9.020  47.088  1.00  0.00    -0.051 Br
HETATM   18  C19 UNL     1      26.354   7.042  48.256  1.00  0.00     0.019 A 
HETATM   19  C20 UNL     1      26.147   5.772  48.792  1.00  0.00     0.010 A 
ENDBRANCH  12  13
ENDBRANCH  10  12
ENDBRANCH   8  10
ENDBRANCH   1   7
BRANCH   6  20
HETATM   20  N3  UNL     1      25.613  -0.590  52.969  1.00  0.00    -0.339 N 
HETATM   21  H7  UNL     1      25.841  -0.947  52.019  1.00  0.00     0.167 HD
BRANCH  20  22
HETATM   22  C8  UNL     1      24.334  -0.705  53.563  1.00  0.00     0.035 A 
HETATM   23  C9  UNL     1      24.262  -1.161  54.864  1.00  0.00     0.029 A 
HETATM   24  C10 UNL     1      23.092  -1.327  55.570  1.00  0.00     0.004 A 
HETATM   25  C11 UNL     1      21.931  -1.005  54.904  1.00  0.00     0.024 A 
HETATM   26  C12 UNL     1      21.915  -0.536  53.587  1.00  0.00     0.036 A 
HETATM   27 CL1  UNL     1      20.456  -0.121  52.722  1.00  0.00    -0.084 Cl
HETATM   28  C13 UNL     1      23.137  -0.405  52.967  1.00  0.00     0.053 A 
ENDBRANCH  20  22
ENDBRANCH   6  20
TORSDOF 6
ENDMDL
MODEL 2
REMARK VINA RESULT:      -8.5      2.041      3.754
REMARK  6 active torsions:
REMARK  status: ('A' for Active; 'I' for Inactive)
REMARK    1  A    between atoms: C2_2  and  N4_18 
REMARK    2  A    between atoms: C3_3  and  C4_4 
REMARK    3  A    between atoms: C7_9  and  N3_10 
REMARK    4  A    between atoms: N3_10  and  C8_11 
REMARK    5  A    between atoms: N4_18  and  C14_19 
REMARK    6  A    between atoms: C14_19  and  C15_20 
ROOT
HETATM    1  C4  UNL     1      24.212   3.454  52.918  1.00  0.00     0.037 C 
HETATM    2  C5  UNL     1      23.099   3.665  52.290  1.00  0.00     0.104 A 
HETATM    3  N1  UNL     1      22.448   4.940  52.098  1.00  0.00    -0.238 NA
HETATM    4  C6  UNL     1      21.378   4.721  51.434  1.00  0.00     0.236 A 
HETATM    5  N2  UNL     1      21.215   3.324  51.128  1.00  0.00    -0.222 NA
HETATM    6  C7  UNL     1      22.238   2.688  51.637  1.00  0.00     0.158 A 
ENDROOT
BRANCH   1   7
HETATM    7  C3  UNL     1      24.961   2.251  53.177  1.00  0.00     0.026 C 
HETATM    8  C2  UNL     1      26.079   2.061  52.497  1.00  0.00     0.001 C 
HETATM    9  C1  UNL     1      27.128   1.035  52.422  1.00  0.00     0.068 C 
BRANCH   8  10
HETATM   10  N4  UNL     1      26.537   3.026  51.525  1.00  0.00    -0.389 N 
HETATM   11  H12 UNL     1      26.977   3.864  51.974  1.00  0.00     0.159 HD
BRANCH  10  12
HETATM   12  C14 UNL     1      26.440   2.926  50.078  1.00  0.00     0.158 C 
BRANCH  12  13
HETATM   13  C15 UNL     1      26.446   4.262  49.440  1.00  0.00    -0.041 A 
HETATM   14  C16 UNL     1      25.350   5.099  49.375  1.00  0.00     0.010 A 
HETATM   15  C17 UNL     1      25.415   6.342  48.765  1.00  0.00     0.019 A 
HETATM   16  C18 UNL     1      26.602   6.781  48.194  1.00  0.00     0.011 A 
HETATM   17 BR1  UNL     1      26.820   8.468  47.324  1.00  0.00    -0.051 Br
HETATM   18  C19 UNL     1      27.749   5.984  48.223  1.00  0.00     0.019 A 
HETATM   19  C20 UNL     1      27.583   4.756  48.860  1.00  0.00     0.010 A 
ENDBRANCH  12  13
ENDBRANCH  10  12
ENDBRANCH   8  10
ENDBRANCH   1   7
BRANCH   6  20
HETATM   20  N3  UNL     1      22.416   1.289  51.542  1.00  0.00    -0.339 N 
HETATM   21  H7  UNL     1      23.019   1.011  50.741  1.00  0.00     0.167 HD
BRANCH  20  22
HETATM   22  C8  UNL     1      21.835   0.366  52.443  1.00  0.00     0.035 A 
HETATM   23  C9  UNL     1      22.666  -0.278  53.338  1.00  0.00     0.029 A 
HETATM   24  C10 UNL     1      22.246  -1.201  54.269  1.00  0.00     0.004 A 
HETATM   25  C11 UNL     1      20.898  -1.477  54.283  1.00  0.00     0.024 A 
HETATM   26  C12 UNL     1      19.988  -0.871  53.412  1.00  0.00     0.036 A 
HETATM   27 CL1  UNL     1      18.273  -1.206  53.411  1.00  0.00    -0.084 Cl
HETATM   28  C13 UNL     1      20.506   0.038  52.518  1.00  0.00     0.053 A 
ENDBRANCH  20  22
ENDBRANCH   6  20
TORSDOF 6
ENDMDL
MODEL 3
REMARK VINA RESULT:      -8.5      1.343      1.624
REMARK  6 active torsions:
REMARK  status: ('A' for Active; 'I' for Inactive)
REMARK    1  A    between atoms: C2_2  and  N4_18 
REMARK    2  A    between atoms: C3_3  and  C4_4 
REMARK    3  A    between atoms: C7_9  and  N3_10 
REMARK    4  A    between atoms: N3_10  and  C8_11 
REMARK    5  A    between atoms: N4_18  and  C14_19 
REMARK    6  A    between atoms: C14_19  and  C15_20 
ROOT
HETATM    1  C4  UNL     1      26.736   2.700  51.469  1.00  0.00     0.037 C 
HETATM    2  C5  UNL     1      27.283   2.029  52.434  1.00  0.00     0.104 A 
HETATM    3  N1  UNL     1      28.436   2.422  53.209  1.00  0.00    -0.238 NA
HETATM    4  C6  UNL     1      28.657   1.491  54.056  1.00  0.00     0.236 A 
HETATM    5  N2  UNL     1      27.705   0.418  53.931  1.00  0.00    -0.222 NA
HETATM    6  C7  UNL     1      26.882   0.733  52.965  1.00  0.00     0.158 A 
ENDROOT
BRANCH   1   7
HETATM    7  C3  UNL     1      25.600   2.427  50.627  1.00  0.00     0.026 C 
HETATM    8  C2  UNL     1      24.977   3.456  50.078  1.00  0.00     0.001 C 
HETATM    9  C1  UNL     1      23.826   3.663  49.190  1.00  0.00     0.068 C 
BRANCH   8  10
HETATM   10  N4  UNL     1      25.419   4.811  50.314  1.00  0.00    -0.389 N 
HETATM   11  H12 UNL     1      25.734   4.960  51.301  1.00  0.00     0.159 HD
BRANCH  10  12
HETATM   12  C14 UNL     1      25.456   5.900  49.352  1.00  0.00     0.158 C 
BRANCH  12  13
HETATM   13  C15 UNL     1      26.814   6.077  48.786  1.00  0.00    -0.041 A 
HETATM   14  C16 UNL     1      27.745   5.065  48.664  1.00  0.00     0.010 A 
HETATM   15  C17 UNL     1      29.001   5.291  48.124  1.00  0.00     0.019 A 
HETATM   16  C18 UNL     1      29.360   6.559  47.688  1.00  0.00     0.011 A 
HETATM   17 BR1  UNL     1      31.057   6.997  46.929  1.00  0.00    -0.051 Br
HETATM   18  C19 UNL     1      28.466   7.628  47.782  1.00  0.00     0.019 A 
HETATM   19  C20 UNL     1      27.230   7.300  48.336  1.00  0.00     0.010 A 
ENDBRANCH  12  13
ENDBRANCH  10  12
ENDBRANCH   8  10
ENDBRANCH   1   7
BRANCH   6  20
HETATM   20  N3  UNL     1      25.812  -0.091  52.549  1.00  0.00    -0.339 N 
HETATM   21  H7  UNL     1      26.057  -0.694  51.737  1.00  0.00     0.167 HD
BRANCH  20  22
HETATM   22  C8  UNL     1      24.542  -0.096  53.172  1.00  0.00     0.035 A 
HETATM   23  C9  UNL     1      24.357  -0.924  54.260  1.00  0.00     0.029 A 
HETATM   24  C10 UNL     1      23.180  -1.038  54.965  1.00  0.00     0.004 A 
HETATM   25  C11 UNL     1      22.135  -0.254  54.529  1.00  0.00     0.024 A 
HETATM   26  C12 UNL     1      22.237   0.611  53.437  1.00  0.00     0.036 A 
HETATM   27 CL1  UNL     1      20.926   1.614  52.865  1.00  0.00    -0.084 Cl
HETATM   28  C13 UNL     1      23.456   0.653  52.798  1.00  0.00     0.053 A 
ENDBRANCH  20  22
ENDBRANCH   6  20
TORSDOF 6
ENDMDL
MODEL 4
REMARK VINA RESULT:      -8.2      4.472      8.131
REMARK  6 active torsions:
REMARK  status: ('A' for Active; 'I' for Inactive)
REMARK    1  A    between atoms: C2_2  and  N4_18 
REMARK    2  A    between atoms: C3_3  and  C4_4 
REMARK    3  A    between atoms: C7_9  and  N3_10 
REMARK    4  A    between atoms: N3_10  and  C8_11 
REMARK    5  A    between atoms: N4_18  and  C14_19 
REMARK    6  A    between atoms: C14_19  and  C15_20 
ROOT
HETATM    1  C4  UNL     1      23.167   1.416  51.837  1.00  0.00     0.037 C 
HETATM    2  C5  UNL     1      23.969   2.205  51.194  1.00  0.00     0.104 A 
HETATM    3  N1  UNL     1      23.768   2.743  49.869  1.00  0.00    -0.238 NA
HETATM    4  C6  UNL     1      24.784   3.470  49.599  1.00  0.00     0.236 A 
HETATM    5  N2  UNL     1      25.733   3.486  50.682  1.00  0.00    -0.222 NA
HETATM    6  C7  UNL     1      25.252   2.733  51.637  1.00  0.00     0.158 A 
ENDROOT
BRANCH   1   7
HETATM    7  C3  UNL     1      23.245   0.816  53.145  1.00  0.00     0.026 C 
HETATM    8  C2  UNL     1      22.158   0.233  53.622  1.00  0.00     0.001 C 
HETATM    9  C1  UNL     1      21.774  -0.478  54.848  1.00  0.00     0.068 C 
BRANCH   8  10
HETATM   10  N4  UNL     1      20.931   0.197  52.860  1.00  0.00    -0.389 N 
HETATM   11  H12 UNL     1      21.028   0.667  51.929  1.00  0.00     0.159 HD
BRANCH  10  12
HETATM   12  C14 UNL     1      19.668  -0.399  53.261  1.00  0.00     0.158 C 
BRANCH  12  13
HETATM   13  C15 UNL     1      18.652  -0.288  52.190  1.00  0.00    -0.041 A 
HETATM   14  C16 UNL     1      18.830   0.420  51.018  1.00  0.00     0.010 A 
HETATM   15  C17 UNL     1      17.840   0.487  50.049  1.00  0.00     0.019 A 
HETATM   16  C18 UNL     1      16.629  -0.164  50.238  1.00  0.00     0.011 A 
HETATM   17 BR1  UNL     1      15.190  -0.146  48.981  1.00  0.00    -0.051 Br
HETATM   18  C19 UNL     1      16.382  -0.897  51.400  1.00  0.00     0.019 A 
HETATM   19  C20 UNL     1      17.437  -0.906  52.312  1.00  0.00     0.010 A 
ENDBRANCH  12  13
ENDBRANCH  10  12
ENDBRANCH   8  10
ENDBRANCH   1   7
BRANCH   6  20
HETATM   20  N3  UNL     1      25.918   2.504  52.863  1.00  0.00    -0.339 N 
HETATM   21  H7  UNL     1      25.625   3.164  53.612  1.00  0.00     0.167 HD
BRANCH  20  22
HETATM   22  C8  UNL     1      26.881   1.485  53.049  1.00  0.00     0.035 A 
HETATM   23  C9  UNL     1      28.112   1.841  53.562  1.00  0.00     0.029 A 
HETATM   24  C10 UNL     1      29.146   0.962  53.795  1.00  0.00     0.004 A 
HETATM   25  C11 UNL     1      28.901  -0.357  53.485  1.00  0.00     0.024 A 
HETATM   26  C12 UNL     1      27.683  -0.803  52.963  1.00  0.00     0.036 A 
HETATM   27 CL1  UNL     1      27.349  -2.470  52.563  1.00  0.00    -0.084 Cl
HETATM   28  C13 UNL     1      26.713   0.153  52.766  1.00  0.00     0.053 A 
ENDBRANCH  20  22
ENDBRANCH   6  20
TORSDOF 6
ENDMDL
MODEL 5
REMARK VINA RESULT:      -8.1      3.194      5.936
REMARK  6 active torsions:
REMARK  status: ('A' for Active; 'I' for Inactive)
REMARK    1  A    between atoms: C2_2  and  N4_18 
REMARK    2  A    between atoms: C3_3  and  C4_4 
REMARK    3  A    between atoms: C7_9  and  N3_10 
REMARK    4  A    between atoms: N3_10  and  C8_11 
REMARK    5  A    between atoms: N4_18  and  C14_19 
REMARK    6  A    between atoms: C14_19  and  C15_20 
ROOT
HETATM    1  C4  UNL     1      23.587   2.856  51.350  1.00  0.00     0.037 C 
HETATM    2  C5  UNL     1      24.747   3.111  50.831  1.00  0.00     0.104 A 
HETATM    3  N1  UNL     1      25.005   3.612  49.502  1.00  0.00    -0.238 NA
HETATM    4  C6  UNL     1      26.272   3.725  49.380  1.00  0.00     0.236 A 
HETATM    5  N2  UNL     1      26.963   3.321  50.576  1.00  0.00    -0.222 NA
HETATM    6  C7  UNL     1      26.058   2.953  51.447  1.00  0.00     0.158 A 
ENDROOT
BRANCH   1   7
HETATM    7  C3  UNL     1      23.196   2.361  52.645  1.00  0.00     0.026 C 
HETATM    8  C2  UNL     1      22.476   1.253  52.690  1.00  0.00     0.001 C 
HETATM    9  C1  UNL     1      21.872   0.409  53.729  1.00  0.00     0.068 C 
BRANCH   8  10
HETATM   10  N4  UNL     1      22.092   0.560  51.482  1.00  0.00    -0.389 N 
HETATM   11  H12 UNL     1      22.841  -0.088  51.141  1.00  0.00     0.159 HD
BRANCH  10  12
HETATM   12  C14 UNL     1      20.837   0.686  50.761  1.00  0.00     0.158 C 
BRANCH  12  13
HETATM   13  C15 UNL     1      20.980   1.557  49.572  1.00  0.00    -0.041 A 
HETATM   14  C16 UNL     1      20.173   2.645  49.302  1.00  0.00     0.010 A 
HETATM   15  C17 UNL     1      20.355   3.425  48.171  1.00  0.00     0.019 A 
HETATM   16  C18 UNL     1      21.367   3.127  47.269  1.00  0.00     0.011 A 
HETATM   17 BR1  UNL     1      21.718   4.124  45.677  1.00  0.00    -0.051 Br
HETATM   18  C19 UNL     1      22.219   2.041  47.481  1.00  0.00     0.019 A 
HETATM   19  C20 UNL     1      21.957   1.320  48.644  1.00  0.00     0.010 A 
ENDBRANCH  12  13
ENDBRANCH  10  12
ENDBRANCH   8  10
ENDBRANCH   1   7
BRANCH   6  20
HETATM   20  N3  UNL     1      26.366   2.482  52.744  1.00  0.00    -0.339 N 
HETATM   21  H7  UNL     1      25.904   3.034  53.495  1.00  0.00     0.167 HD
BRANCH  20  22
HETATM   22  C8  UNL     1      27.214   1.377  52.992  1.00  0.00     0.035 A 
HETATM   23  C9  UNL     1      28.440   1.619  53.578  1.00  0.00     0.029 A 
HETATM   24  C10 UNL     1      29.369   0.647  53.877  1.00  0.00     0.004 A 
HETATM   25  C11 UNL     1      29.017  -0.645  53.558  1.00  0.00     0.024 A 
HETATM   26  C12 UNL     1      27.797  -0.977  52.963  1.00  0.00     0.036 A 
HETATM   27 CL1  UNL     1      27.329  -2.608  52.550  1.00  0.00    -0.084 Cl
HETATM   28  C13 UNL     1      26.936   0.066  52.704  1.00  0.00     0.053 A 
ENDBRANCH  20  22
ENDBRANCH   6  20
TORSDOF 6
ENDMDL
MODEL 6
REMARK VINA RESULT:      -8.1      1.738      2.312
REMARK  6 active torsions:
REMARK  status: ('A' for Active; 'I' for Inactive)
REMARK    1  A    between atoms: C2_2  and  N4_18 
REMARK    2  A    between atoms: C3_3  and  C4_4 
REMARK    3  A    between atoms: C7_9  and  N3_10 
REMARK    4  A    between atoms: N3_10  and  C8_11 
REMARK    5  A    between atoms: N4_18  and  C14_19 
REMARK    6  A    between atoms: C14_19  and  C15_20 
ROOT
HETATM    1  C4  UNL     1      24.687   3.358  52.974  1.00  0.00     0.037 C 
HETATM    2  C5  UNL     1      25.427   2.317  52.753  1.00  0.00     0.104 A 
HETATM    3  N1  UNL     1      26.853   2.216  52.953  1.00  0.00    -0.238 NA
HETATM    4  C6  UNL     1      27.199   1.033  52.618  1.00  0.00     0.236 A 
HETATM    5  N2  UNL     1      26.073   0.252  52.173  1.00  0.00    -0.222 NA
HETATM    6  C7  UNL     1      25.012   1.013  52.251  1.00  0.00     0.158 A 
ENDROOT
BRANCH   1   7
HETATM    7  C3  UNL     1      23.273   3.588  52.820  1.00  0.00     0.026 C 
HETATM    8  C2  UNL     1      22.890   4.532  51.978  1.00  0.00     0.001 C 
HETATM    9  C1  UNL     1      21.619   5.101  51.511  1.00  0.00     0.068 C 
BRANCH   8  10
HETATM   10  N4  UNL     1      23.855   5.310  51.235  1.00  0.00    -0.389 N 
HETATM   11  H12 UNL     1      24.554   5.776  51.860  1.00  0.00     0.159 HD
BRANCH  10  12
HETATM   12  C14 UNL     1      23.920   5.478  49.793  1.00  0.00     0.158 C 
BRANCH  12  13
HETATM   13  C15 UNL     1      25.320   5.598  49.324  1.00  0.00    -0.041 A 
HETATM   14  C16 UNL     1      25.890   6.770  48.866  1.00  0.00     0.010 A 
HETATM   15  C17 UNL     1      27.208   6.822  48.440  1.00  0.00     0.019 A 
HETATM   16  C18 UNL     1      27.998   5.680  48.462  1.00  0.00     0.011 A 
HETATM   17 BR1  UNL     1      29.823   5.623  47.902  1.00  0.00    -0.051 Br
HETATM   18  C19 UNL     1      27.485   4.463  48.913  1.00  0.00     0.019 A 
HETATM   19  C20 UNL     1      26.153   4.512  49.321  1.00  0.00     0.010 A 
ENDBRANCH  12  13
ENDBRANCH  10  12
ENDBRANCH   8  10
ENDBRANCH   1   7
BRANCH   6  20
HETATM   20  N3  UNL     1      23.715   0.586  51.887  1.00  0.00    -0.339 N 
HETATM   21  H7  UNL     1      23.500   0.756  50.884  1.00  0.00     0.167 HD
BRANCH  20  22
HETATM   22  C8  UNL     1      22.807  -0.010  52.793  1.00  0.00     0.035 A 
HETATM   23  C9  UNL     1      23.311  -0.539  53.964  1.00  0.00     0.029 A 
HETATM   24  C10 UNL     1      22.552  -1.151  54.936  1.00  0.00     0.004 A 
HETATM   25  C11 UNL     1      21.199  -1.222  54.693  1.00  0.00     0.024 A 
HETATM   26  C12 UNL     1      20.607  -0.712  53.534  1.00  0.00     0.036 A 
HETATM   27 CL1  UNL     1      18.893  -0.791  53.204  1.00  0.00    -0.084 Cl
HETATM   28  C13 UNL     1      21.451  -0.119  52.623  1.00  0.00     0.053 A 
ENDBRANCH  20  22
ENDBRANCH   6  20
TORSDOF 6
ENDMDL
MODEL 7
REMARK VINA RESULT:      -8.0      5.448     10.080
REMARK  6 active torsions:
REMARK  status: ('A' for Active; 'I' for Inactive)
REMARK    1  A    between atoms: C2_2  and  N4_18 
REMARK    2  A    between atoms: C3_3  and  C4_4 
REMARK    3  A    between atoms: C7_9  and  N3_10 
REMARK    4  A    between atoms: N3_10  and  C8_11 
REMARK    5  A    between atoms: N4_18  and  C14_19 
REMARK    6  A    between atoms: C14_19  and  C15_20 
ROOT
HETATM    1  C4  UNL     1      29.117   5.826  48.036  1.00  0.00     0.037 C 
HETATM    2  C5  UNL     1      30.382   5.645  48.248  1.00  0.00     0.104 A 
HETATM    3  N1  UNL     1      31.181   4.532  47.791  1.00  0.00    -0.238 NA
HETATM    4  C6  UNL     1      32.373   4.726  48.209  1.00  0.00     0.236 A 
HETATM    5  N2  UNL     1      32.483   5.947  48.963  1.00  0.00    -0.222 NA
HETATM    6  C7  UNL     1      31.298   6.500  48.991  1.00  0.00     0.158 A 
ENDROOT
BRANCH   1   7
HETATM    7  C3  UNL     1      28.213   6.876  48.429  1.00  0.00     0.026 C 
HETATM    8  C2  UNL     1      27.051   6.527  48.956  1.00  0.00     0.001 C 
HETATM    9  C1  UNL     1      25.863   7.211  49.481  1.00  0.00     0.068 C 
BRANCH   8  10
HETATM   10  N4  UNL     1      26.698   5.137  49.133  1.00  0.00    -0.389 N 
HETATM   11  H12 UNL     1      27.534   4.508  49.105  1.00  0.00     0.159 HD
BRANCH  10  12
HETATM   12  C14 UNL     1      25.366   4.591  49.333  1.00  0.00     0.158 C 
BRANCH  12  13
HETATM   13  C15 UNL     1      25.388   3.431  50.254  1.00  0.00    -0.041 A 
HETATM   14  C16 UNL     1      24.259   2.791  50.726  1.00  0.00     0.010 A 
HETATM   15  C17 UNL     1      24.342   1.707  51.587  1.00  0.00     0.019 A 
HETATM   16  C18 UNL     1      25.579   1.235  52.004  1.00  0.00     0.011 A 
HETATM   17 BR1  UNL     1      25.825  -0.245  53.186  1.00  0.00    -0.051 Br
HETATM   18  C19 UNL     1      26.761   1.837  51.565  1.00  0.00     0.019 A 
HETATM   19  C20 UNL     1      26.574   2.916  50.702  1.00  0.00     0.010 A 
ENDBRANCH  12  13
ENDBRANCH  10  12
ENDBRANCH   8  10
ENDBRANCH   1   7
BRANCH   6  20
HETATM   20  N3  UNL     1      31.018   7.717  49.654  1.00  0.00    -0.339 N 
HETATM   21  H7  UNL     1      30.683   7.579  50.629  1.00  0.00     0.167 HD
BRANCH  20  22
HETATM   22  C8  UNL     1      31.178   8.988  49.053  1.00  0.00     0.035 A 
HETATM   23  C9  UNL     1      30.473  10.049  49.583  1.00  0.00     0.029 A 
HETATM   24  C10 UNL     1      30.525  11.339  49.105  1.00  0.00     0.004 A 
HETATM   25  C11 UNL     1      31.349  11.551  48.023  1.00  0.00     0.024 A 
HETATM   26  C12 UNL     1      32.098  10.533  47.426  1.00  0.00     0.036 A 
HETATM   27 CL1  UNL     1      33.150  10.777  46.053  1.00  0.00    -0.084 Cl
HETATM   28  C13 UNL     1      31.977   9.278  47.977  1.00  0.00     0.053 A 
ENDBRANCH  20  22
ENDBRANCH   6  20
TORSDOF 6
ENDMDL
MODEL 8
REMARK VINA RESULT:      -7.9      3.300      5.019
REMARK  6 active torsions:
REMARK  status: ('A' for Active; 'I' for Inactive)
REMARK    1  A    between atoms: C2_2  and  N4_18 
REMARK    2  A    between atoms: C3_3  and  C4_4 
REMARK    3  A    between atoms: C7_9  and  N3_10 
REMARK    4  A    between atoms: N3_10  and  C8_11 
REMARK    5  A    between atoms: N4_18  and  C14_19 
REMARK    6  A    between atoms: C14_19  and  C15_20 
ROOT
HETATM    1  C4  UNL     1      20.280   3.289  51.160  1.00  0.00     0.037 C 
HETATM    2  C5  UNL     1      19.686   2.139  51.096  1.00  0.00     0.104 A 
HETATM    3  N1  UNL     1      18.905   1.634  49.992  1.00  0.00    -0.238 NA
HETATM    4  C6  UNL     1      18.492   0.471  50.322  1.00  0.00     0.236 A 
HETATM    5  N2  UNL     1      18.942   0.097  51.638  1.00  0.00    -0.222 NA
HETATM    6  C7  UNL     1      19.655   1.089  52.106  1.00  0.00     0.158 A 
ENDROOT
BRANCH   1   7
HETATM    7  C3  UNL     1      21.081   3.906  52.186  1.00  0.00     0.026 C 
HETATM    8  C2  UNL     1      22.279   4.354  51.849  1.00  0.00     0.001 C 
HETATM    9  C1  UNL     1      23.401   5.024  52.519  1.00  0.00     0.068 C 
BRANCH   8  10
HETATM   10  N4  UNL     1      22.772   4.229  50.497  1.00  0.00    -0.389 N 
HETATM   11  H12 UNL     1      22.223   4.808  49.819  1.00  0.00     0.159 HD
BRANCH  10  12
HETATM   12  C14 UNL     1      23.890   3.419  50.044  1.00  0.00     0.158 C 
BRANCH  12  13
HETATM   13  C15 UNL     1      24.988   4.259  49.513  1.00  0.00    -0.041 A 
HETATM   14  C16 UNL     1      24.821   5.537  49.018  1.00  0.00     0.010 A 
HETATM   15  C17 UNL     1      25.889   6.277  48.534  1.00  0.00     0.019 A 
HETATM   16  C18 UNL     1      27.170   5.742  48.535  1.00  0.00     0.011 A 
HETATM   17 BR1  UNL     1      28.720   6.660  47.896  1.00  0.00    -0.051 Br
HETATM   18  C19 UNL     1      27.410   4.455  49.021  1.00  0.00     0.019 A 
HETATM   19  C20 UNL     1      26.275   3.793  49.486  1.00  0.00     0.010 A 
ENDBRANCH  12  13
ENDBRANCH  10  12
ENDBRANCH   8  10
ENDBRANCH   1   7
BRANCH   6  20
HETATM   20  N3  UNL     1      20.258   1.085  53.384  1.00  0.00    -0.339 N 
HETATM   21  H7  UNL     1      19.696   1.591  54.099  1.00  0.00     0.167 HD
BRANCH  20  22
HETATM   22  C8  UNL     1      21.494   0.456  53.662  1.00  0.00     0.035 A 
HETATM   23  C9  UNL     1      21.525  -0.507  54.650  1.00  0.00     0.029 A 
HETATM   24  C10 UNL     1      22.652  -1.200  55.031  1.00  0.00     0.004 A 
HETATM   25  C11 UNL     1      23.812  -0.887  54.359  1.00  0.00     0.024 A 
HETATM   26  C12 UNL     1      23.869   0.074  53.346  1.00  0.00     0.036 A 
HETATM   27 CL1  UNL     1      25.327   0.487  52.478  1.00  0.00    -0.084 Cl
HETATM   28  C13 UNL     1      22.688   0.712  53.038  1.00  0.00     0.053 A 
ENDBRANCH  20  22
ENDBRANCH   6  20
TORSDOF 6
ENDMDL
MODEL 9
REMARK VINA RESULT:      -7.9      4.151      8.845
REMARK  6 active torsions:
REMARK  status: ('A' for Active; 'I' for Inactive)
REMARK    1  A    between atoms: C2_2  and  N4_18 
REMARK    2  A    between atoms: C3_3  and  C4_4 
REMARK    3  A    between atoms: C7_9  and  N3_10 
REMARK    4  A    between atoms: N3_10  and  C8_11 
REMARK    5  A    between atoms: N4_18  and  C14_19 
REMARK    6  A    between atoms: C14_19  and  C15_20 
ROOT
HETATM    1  C4  UNL     1      24.222   2.288  51.220  1.00  0.00     0.037 C 
HETATM    2  C5  UNL     1      23.573   3.035  50.384  1.00  0.00     0.104 A 
HETATM    3  N1  UNL     1      22.422   2.652  49.601  1.00  0.00    -0.238 NA
HETATM    4  C6  UNL     1      22.083   3.669  48.905  1.00  0.00     0.236 A 
HETATM    5  N2  UNL     1      22.948   4.794  49.147  1.00  0.00    -0.222 NA
HETATM    6  C7  UNL     1      23.839   4.423  50.029  1.00  0.00     0.158 A 
ENDROOT
BRANCH   1   7
HETATM    7  C3  UNL     1      25.369   2.543  52.055  1.00  0.00     0.026 C 
HETATM    8  C2  UNL     1      25.809   1.556  52.817  1.00  0.00     0.001 C 
HETATM    9  C1  UNL     1      26.893   1.352  53.787  1.00  0.00     0.068 C 
BRANCH   8  10
HETATM   10  N4  UNL     1      25.164   0.263  52.815  1.00  0.00    -0.389 N 
HETATM   11  H12 UNL     1      25.223  -0.209  51.882  1.00  0.00     0.159 HD
BRANCH  10  12
HETATM   12  C14 UNL     1      24.490  -0.381  53.930  1.00  0.00     0.158 C 
BRANCH  12  13
HETATM   13  C15 UNL     1      23.033  -0.494  53.692  1.00  0.00    -0.041 A 
HETATM   14  C16 UNL     1      22.356   0.163  52.683  1.00  0.00     0.010 A 
HETATM   15  C17 UNL     1      20.988   0.017  52.508  1.00  0.00     0.019 A 
HETATM   16  C18 UNL     1      20.256  -0.803  53.356  1.00  0.00     0.011 A 
HETATM   17 BR1  UNL     1      18.371  -1.084  53.219  1.00  0.00    -0.051 Br
HETATM   18  C19 UNL     1      20.878  -1.495  54.397  1.00  0.00     0.019 A 
HETATM   19  C20 UNL     1      22.253  -1.285  54.490  1.00  0.00     0.010 A 
ENDBRANCH  12  13
ENDBRANCH  10  12
ENDBRANCH   8  10
ENDBRANCH   1   7
BRANCH   6  20
HETATM   20  N3  UNL     1      24.866   5.268  50.508  1.00  0.00    -0.339 N 
HETATM   21  H7  UNL     1      24.715   5.571  51.492  1.00  0.00     0.167 HD
BRANCH  20  22
HETATM   22  C8  UNL     1      25.981   5.660  49.730  1.00  0.00     0.035 A 
HETATM   23  C9  UNL     1      26.820   4.672  49.255  1.00  0.00     0.029 A 
HETATM   24  C10 UNL     1      27.941   4.900  48.490  1.00  0.00     0.004 A 
HETATM   25  C11 UNL     1      28.216   6.216  48.194  1.00  0.00     0.024 A 
HETATM   26  C12 UNL     1      27.419   7.277  48.635  1.00  0.00     0.036 A 
HETATM   27 CL1  UNL     1      27.747   8.954  48.273  1.00  0.00    -0.084 Cl
HETATM   28  C13 UNL     1      26.320   6.945  49.394  1.00  0.00     0.053 A 
ENDBRANCH  20  22
ENDBRANCH   6  20
TORSDOF 6
ENDMDL
