MODEL 1
REMARK VINA RESULT:      -9.2      0.000      0.000
REMARK  3 active torsions:
REMARK  status: ('A' for Active; 'I' for Inactive)
REMARK    1  A    between atoms: C2_2  and  O1_3 
REMARK    2  A    between atoms: C2_2  and  C4_5 
REMARK    3  A    between atoms: C18_22  and  C19_23 
ROOT
HETATM    1  C4  UNL     1      23.905   3.831  49.675  1.00  0.00     0.132 C 
HETATM    2  C5  UNL     1      24.109   5.291  50.104  1.00  0.00     0.059 C 
HETATM    3  C6  UNL     1      23.300   3.023  50.788  1.00  0.00     0.045 C 
HETATM    4  C7  UNL     1      23.679   2.627  52.018  1.00  0.00     0.040 C 
HETATM    5  C8  UNL     1      22.449   2.367  52.790  1.00  0.00     0.093 C 
HETATM    6  C9  UNL     1      22.006   0.970  52.822  1.00  0.00    -0.074 C 
HETATM    7  C10 UNL     1      22.232  -0.209  52.267  1.00  0.00     0.005 C 
HETATM    8  C11 UNL     1      22.588  -1.418  53.048  1.00  0.00     0.025 C 
HETATM    9  C12 UNL     1      22.609  -1.009  54.308  1.00  0.00     0.014 C 
HETATM   10  C13 UNL     1      21.267  -0.506  54.705  1.00  0.00     0.061 C 
HETATM   11  C14 UNL     1      20.903   0.685  53.810  1.00  0.00     0.040 C 
HETATM   12  N1  UNL     1      23.628  -0.945  55.329  1.00  0.00    -0.313 N 
HETATM   13  C15 UNL     1      25.006  -0.668  55.147  1.00  0.00     0.320 C 
HETATM   14  O2  UNL     1      24.594  -0.619  53.964  1.00  0.00    -0.247 OA
HETATM   15  N2  UNL     1      26.266  -0.493  55.736  1.00  0.00    -0.339 N 
HETATM   16  C16 UNL     1      27.326  -0.200  54.740  1.00  0.00     0.152 C 
HETATM   17  C17 UNL     1      26.848   1.024  54.052  1.00  0.00     0.006 C 
HETATM   18  C18 UNL     1      26.654   0.968  52.749  1.00  0.00     0.016 C 
HETATM   19  C20 UNL     1      26.162   2.144  52.095  1.00  0.00     0.159 C 
HETATM   20  N3  UNL     1      24.991   2.458  52.596  1.00  0.00    -0.233 NA
HETATM   21  N4  UNL     1      26.808   2.894  51.041  1.00  0.00    -0.217 NA
HETATM   22  C21 UNL     1      26.408   3.163  49.813  1.00  0.00     0.255 C 
HETATM   23  O3  UNL     1      25.157   3.358  49.265  1.00  0.00    -0.323 OA
HETATM   24  H18 UNL     1      23.332  -1.122  56.312  1.00  0.00     0.170 HD
HETATM   25  H19 UNL     1      26.172  -0.615  56.784  1.00  0.00     0.164 HD
ENDROOT
BRANCH   1  26
HETATM   26  C2  UNL     1      22.936   3.855  48.573  1.00  0.00     0.075 C 
HETATM   27  C1  UNL     1      22.590   2.703  48.026  1.00  0.00     0.049 C 
BRANCH  26  28
HETATM   28  O1  UNL     1      22.388   5.037  48.103  1.00  0.00    -0.358 OA
HETATM   29  C3  UNL     1      22.228   5.342  46.734  1.00  0.00     0.209 C 
ENDBRANCH  26  28
ENDBRANCH   1  26
BRANCH  18  30
HETATM   30  C19 UNL     1      26.788  -0.052  51.685  1.00  0.00     0.264 C 
HETATM   31  F1  UNL     1      26.458  -1.315  52.202  1.00  0.00    -0.250 F 
ENDBRANCH  18  30
TORSDOF 3
ENDMDL
MODEL 2
REMARK VINA RESULT:      -9.0      2.476      6.759
REMARK  3 active torsions:
REMARK  status: ('A' for Active; 'I' for Inactive)
REMARK    1  A    between atoms: C2_2  and  O1_3 
REMARK    2  A    between atoms: C2_2  and  C4_5 
REMARK    3  A    between atoms: C18_22  and  C19_23 
ROOT
HETATM    1  C4  UNL     1      25.612  -0.014  53.344  1.00  0.00     0.132 C 
HETATM    2  C5  UNL     1      25.938   0.442  54.773  1.00  0.00     0.059 C 
HETATM    3  C6  UNL     1      25.332   1.164  52.454  1.00  0.00     0.045 C 
HETATM    4  C7  UNL     1      24.392   2.125  52.381  1.00  0.00     0.040 C 
HETATM    5  C8  UNL     1      24.992   3.269  51.669  1.00  0.00     0.093 C 
HETATM    6  C9  UNL     1      24.719   3.333  50.230  1.00  0.00    -0.074 C 
HETATM    7  C10 UNL     1      24.214   2.628  49.232  1.00  0.00     0.005 C 
HETATM    8  C11 UNL     1      23.095   3.107  48.385  1.00  0.00     0.025 C 
HETATM    9  C12 UNL     1      22.794   4.302  48.872  1.00  0.00     0.014 C 
HETATM   10  C13 UNL     1      23.964   5.212  48.756  1.00  0.00     0.061 C 
HETATM   11  C14 UNL     1      25.124   4.629  49.573  1.00  0.00     0.040 C 
HETATM   12  N1  UNL     1      21.614   4.876  49.475  1.00  0.00    -0.313 N 
HETATM   13  C15 UNL     1      20.682   4.223  50.321  1.00  0.00     0.320 C 
HETATM   14  O2  UNL     1      21.478   3.286  50.074  1.00  0.00    -0.247 OA
HETATM   15  N2  UNL     1      19.515   4.318  51.092  1.00  0.00    -0.339 N 
HETATM   16  C16 UNL     1      19.151   3.032  51.736  1.00  0.00     0.152 C 
HETATM   17  C17 UNL     1      20.341   2.686  52.551  1.00  0.00     0.006 C 
HETATM   18  C18 UNL     1      20.957   1.548  52.298  1.00  0.00     0.016 C 
HETATM   19  C20 UNL     1      22.124   1.233  53.067  1.00  0.00     0.159 C 
HETATM   20  N3  UNL     1      23.033   2.159  52.868  1.00  0.00    -0.233 NA
HETATM   21  N4  UNL     1      22.323   0.090  53.928  1.00  0.00    -0.217 NA
HETATM   22  C21 UNL     1      23.223  -0.874  53.879  1.00  0.00     0.255 C 
HETATM   23  O3  UNL     1      24.532  -0.899  53.445  1.00  0.00    -0.323 OA
HETATM   24  H18 UNL     1      21.412   5.877  49.273  1.00  0.00     0.170 HD
HETATM   25  H19 UNL     1      19.150   5.310  51.035  1.00  0.00     0.164 HD
ENDROOT
BRANCH   1  26
HETATM   26  C2  UNL     1      26.820  -0.672  52.834  1.00  0.00     0.075 C 
HETATM   27  C1  UNL     1      26.687  -1.856  52.262  1.00  0.00     0.049 C 
BRANCH  26  28
HETATM   28  O1  UNL     1      28.073  -0.091  52.938  1.00  0.00    -0.358 OA
HETATM   29  C3  UNL     1      29.209  -0.753  53.452  1.00  0.00     0.209 C 
ENDBRANCH  26  28
ENDBRANCH   1  26
BRANCH  18  30
HETATM   30  C19 UNL     1      20.787   0.420  51.354  1.00  0.00     0.264 C 
HETATM   31  F1  UNL     1      21.898   0.353  50.499  1.00  0.00    -0.250 F 
ENDBRANCH  18  30
TORSDOF 3
ENDMDL
MODEL 3
REMARK VINA RESULT:      -8.6      3.049      5.681
REMARK  3 active torsions:
REMARK  status: ('A' for Active; 'I' for Inactive)
REMARK    1  A    between atoms: C2_2  and  O1_3 
REMARK    2  A    between atoms: C2_2  and  C4_5 
REMARK    3  A    between atoms: C18_22  and  C19_23 
ROOT
HETATM    1  C4  UNL     1      25.962   1.516  52.628  1.00  0.00     0.132 C 
HETATM    2  C5  UNL     1      26.868   0.804  51.613  1.00  0.00     0.059 C 
HETATM    3  C6  UNL     1      24.704   0.731  52.869  1.00  0.00     0.045 C 
HETATM    4  C7  UNL     1      23.632   0.365  52.141  1.00  0.00     0.040 C 
HETATM    5  C8  UNL     1      23.064  -0.839  52.776  1.00  0.00     0.093 C 
HETATM    6  C9  UNL     1      21.956  -0.603  53.706  1.00  0.00    -0.074 C 
HETATM    7  C10 UNL     1      21.316   0.365  54.341  1.00  0.00     0.005 C 
HETATM    8  C11 UNL     1      19.856   0.589  54.216  1.00  0.00     0.025 C 
HETATM    9  C12 UNL     1      19.442  -0.353  53.382  1.00  0.00     0.014 C 
HETATM   10  C13 UNL     1      19.718  -1.699  53.951  1.00  0.00     0.061 C 
HETATM   11  C14 UNL     1      21.232  -1.850  54.148  1.00  0.00     0.040 C 
HETATM   12  N1  UNL     1      18.813  -0.342  52.082  1.00  0.00    -0.313 N 
HETATM   13  C15 UNL     1      19.035   0.584  51.032  1.00  0.00     0.320 C 
HETATM   14  O2  UNL     1      19.803   1.035  51.915  1.00  0.00    -0.247 OA
HETATM   15  N2  UNL     1      18.730   0.985  49.724  1.00  0.00    -0.339 N 
HETATM   16  C16 UNL     1      19.469   2.205  49.314  1.00  0.00     0.152 C 
HETATM   17  C17 UNL     1      20.897   1.835  49.475  1.00  0.00     0.006 C 
HETATM   18  C18 UNL     1      21.634   2.548  50.303  1.00  0.00     0.016 C 
HETATM   19  C20 UNL     1      23.003   2.167  50.478  1.00  0.00     0.159 C 
HETATM   20  N3  UNL     1      23.053   0.944  50.952  1.00  0.00    -0.233 NA
HETATM   21  N4  UNL     1      24.176   2.965  50.203  1.00  0.00    -0.217 NA
HETATM   22  C21 UNL     1      25.147   3.366  51.001  1.00  0.00     0.255 C 
HETATM   23  O3  UNL     1      25.724   2.798  52.118  1.00  0.00    -0.323 OA
HETATM   24  H18 UNL     1      18.115  -1.088  51.882  1.00  0.00     0.170 HD
HETATM   25  H19 UNL     1      18.023   0.310  49.317  1.00  0.00     0.164 HD
ENDROOT
BRANCH   1  26
HETATM   26  C2  UNL     1      26.705   1.554  53.892  1.00  0.00     0.075 C 
HETATM   27  C1  UNL     1      26.463   0.609  54.783  1.00  0.00     0.049 C 
BRANCH  26  28
HETATM   28  O1  UNL     1      27.637   2.541  54.167  1.00  0.00    -0.358 OA
HETATM   29  C3  UNL     1      29.001   2.458  53.816  1.00  0.00     0.209 C 
ENDBRANCH  26  28
ENDBRANCH   1  26
BRANCH  18  30
HETATM   30  C19 UNL     1      21.429   3.713  51.194  1.00  0.00     0.264 C 
HETATM   31  F1  UNL     1      21.792   3.368  52.506  1.00  0.00    -0.250 F 
ENDBRANCH  18  30
TORSDOF 3
ENDMDL
MODEL 4
REMARK VINA RESULT:      -8.5      3.707      5.838
REMARK  3 active torsions:
REMARK  status: ('A' for Active; 'I' for Inactive)
REMARK    1  A    between atoms: C2_2  and  O1_3 
REMARK    2  A    between atoms: C2_2  and  C4_5 
REMARK    3  A    between atoms: C18_22  and  C19_23 
ROOT
HETATM    1  C4  UNL     1      22.316   3.044  48.992  1.00  0.00     0.132 C 
HETATM    2  C5  UNL     1      22.534   2.419  47.607  1.00  0.00     0.059 C 
HETATM    3  C6  UNL     1      22.278   1.988  50.060  1.00  0.00     0.045 C 
HETATM    4  C7  UNL     1      21.472   0.956  50.378  1.00  0.00     0.040 C 
HETATM    5  C8  UNL     1      22.278  -0.003  51.155  1.00  0.00     0.093 C 
HETATM    6  C9  UNL     1      22.175   0.116  52.612  1.00  0.00    -0.074 C 
HETATM    7  C10 UNL     1      21.704   0.905  53.563  1.00  0.00     0.005 C 
HETATM    8  C11 UNL     1      20.750   0.443  54.601  1.00  0.00     0.025 C 
HETATM    9  C12 UNL     1      20.541  -0.834  54.319  1.00  0.00     0.014 C 
HETATM   10  C13 UNL     1      21.817  -1.593  54.407  1.00  0.00     0.061 C 
HETATM   11  C14 UNL     1      22.802  -1.021  53.380  1.00  0.00     0.040 C 
HETATM   12  N1  UNL     1      19.378  -1.607  53.951  1.00  0.00    -0.313 N 
HETATM   13  C15 UNL     1      18.288  -1.184  53.150  1.00  0.00     0.320 C 
HETATM   14  O2  UNL     1      18.990  -0.145  53.168  1.00  0.00    -0.247 OA
HETATM   15  N2  UNL     1      17.063  -1.510  52.553  1.00  0.00    -0.339 N 
HETATM   16  C16 UNL     1      16.480  -0.376  51.793  1.00  0.00     0.152 C 
HETATM   17  C17 UNL     1      17.523  -0.033  50.796  1.00  0.00     0.006 C 
HETATM   18  C18 UNL     1      18.024   1.187  50.816  1.00  0.00     0.016 C 
HETATM   19  C20 UNL     1      19.053   1.503  49.871  1.00  0.00     0.159 C 
HETATM   20  N3  UNL     1      20.082   0.714  50.075  1.00  0.00    -0.233 NA
HETATM   21  N4  UNL     1      19.018   2.522  48.847  1.00  0.00    -0.217 NA
HETATM   22  C21 UNL     1      19.798   3.569  48.653  1.00  0.00     0.255 C 
HETATM   23  O3  UNL     1      21.135   3.791  48.911  1.00  0.00    -0.323 OA
HETATM   24  H18 UNL     1      19.321  -2.583  54.309  1.00  0.00     0.170 HD
HETATM   25  H19 UNL     1      16.826  -2.515  52.786  1.00  0.00     0.164 HD
ENDROOT
BRANCH   1  26
HETATM   26  C2  UNL     1      23.486   3.890  49.254  1.00  0.00     0.075 C 
HETATM   27  C1  UNL     1      23.546   5.068  48.658  1.00  0.00     0.049 C 
BRANCH  26  28
HETATM   28  O1  UNL     1      24.511   3.488  50.095  1.00  0.00    -0.358 OA
HETATM   29  C3  UNL     1      25.860   3.379  49.698  1.00  0.00     0.209 C 
ENDBRANCH  26  28
ENDBRANCH   1  26
BRANCH  18  30
HETATM   30  C19 UNL     1      17.826   2.417  51.614  1.00  0.00     0.264 C 
HETATM   31  F1  UNL     1      19.055   2.827  52.155  1.00  0.00    -0.250 F 
ENDBRANCH  18  30
TORSDOF 3
ENDMDL
MODEL 5
REMARK VINA RESULT:      -8.4      2.751      6.169
REMARK  3 active torsions:
REMARK  status: ('A' for Active; 'I' for Inactive)
REMARK    1  A    between atoms: C2_2  and  O1_3 
REMARK    2  A    between atoms: C2_2  and  C4_5 
REMARK    3  A    between atoms: C18_22  and  C19_23 
ROOT
HETATM    1  C4  UNL     1      25.795   0.749  52.775  1.00  0.00     0.132 C 
HETATM    2  C5  UNL     1      26.504  -0.287  51.891  1.00  0.00     0.059 C 
HETATM    3  C6  UNL     1      24.327   0.810  52.461  1.00  0.00     0.045 C 
HETATM    4  C7  UNL     1      23.573   1.168  51.404  1.00  0.00     0.040 C 
HETATM    5  C8  UNL     1      22.282   0.467  51.532  1.00  0.00     0.093 C 
HETATM    6  C9  UNL     1      21.203   1.234  52.161  1.00  0.00    -0.074 C 
HETATM    7  C10 UNL     1      20.970   2.352  52.830  1.00  0.00     0.005 C 
HETATM    8  C11 UNL     1      19.997   3.377  52.382  1.00  0.00     0.025 C 
HETATM    9  C12 UNL     1      19.498   2.895  51.254  1.00  0.00     0.014 C 
HETATM   10  C13 UNL     1      18.813   1.600  51.509  1.00  0.00     0.061 C 
HETATM   11  C14 UNL     1      19.839   0.600  52.056  1.00  0.00     0.040 C 
HETATM   12  N1  UNL     1      19.490   3.346  49.882  1.00  0.00    -0.313 N 
HETATM   13  C15 UNL     1      20.523   4.043  49.205  1.00  0.00     0.320 C 
HETATM   14  O2  UNL     1      21.027   3.918  50.346  1.00  0.00    -0.247 OA
HETATM   15  N2  UNL     1      20.970   4.629  48.012  1.00  0.00    -0.339 N 
HETATM   16  C16 UNL     1      22.320   5.231  48.144  1.00  0.00     0.152 C 
HETATM   17  C17 UNL     1      23.179   4.103  48.578  1.00  0.00     0.006 C 
HETATM   18  C18 UNL     1      23.814   4.213  49.728  1.00  0.00     0.016 C 
HETATM   19  C20 UNL     1      24.618   3.108  50.157  1.00  0.00     0.159 C 
HETATM   20  N3  UNL     1      23.855   2.049  50.295  1.00  0.00    -0.233 NA
HETATM   21  N4  UNL     1      26.039   3.109  50.420  1.00  0.00    -0.217 NA
HETATM   22  C21 UNL     1      26.707   2.831  51.524  1.00  0.00     0.255 C 
HETATM   23  O3  UNL     1      26.455   1.967  52.569  1.00  0.00    -0.323 OA
HETATM   24  H18 UNL     1      18.639   3.146  49.318  1.00  0.00     0.170 HD
HETATM   25  H19 UNL     1      20.223   4.506  47.272  1.00  0.00     0.164 HD
ENDROOT
BRANCH   1  26
HETATM   26  C2  UNL     1      25.929   0.276  54.157  1.00  0.00     0.075 C 
HETATM   27  C1  UNL     1      25.055  -0.612  54.597  1.00  0.00     0.049 C 
BRANCH  26  28
HETATM   28  O1  UNL     1      26.933   0.732  54.996  1.00  0.00    -0.358 OA
HETATM   29  C3  UNL     1      28.245   0.212  55.010  1.00  0.00     0.209 C 
ENDBRANCH  26  28
ENDBRANCH   1  26
BRANCH  18  30
HETATM   30  C19 UNL     1      23.927   5.227  50.801  1.00  0.00     0.264 C 
HETATM   31  F1  UNL     1      23.612   4.638  52.036  1.00  0.00    -0.250 F 
ENDBRANCH  18  30
TORSDOF 3
ENDMDL
MODEL 6
REMARK VINA RESULT:      -8.2      2.896      6.933
REMARK  3 active torsions:
REMARK  status: ('A' for Active; 'I' for Inactive)
REMARK    1  A    between atoms: C2_2  and  O1_3 
REMARK    2  A    between atoms: C2_2  and  C4_5 
REMARK    3  A    between atoms: C18_22  and  C19_23 
ROOT
HETATM    1  C4  UNL     1      25.121   0.663  52.974  1.00  0.00     0.132 C 
HETATM    2  C5  UNL     1      25.443   1.257  54.352  1.00  0.00     0.059 C 
HETATM    3  C6  UNL     1      24.717   1.737  52.005  1.00  0.00     0.045 C 
HETATM    4  C7  UNL     1      23.696   2.607  51.888  1.00  0.00     0.040 C 
HETATM    5  C8  UNL     1      24.175   3.737  51.071  1.00  0.00     0.093 C 
HETATM    6  C9  UNL     1      23.861   3.663  49.641  1.00  0.00    -0.074 C 
HETATM    7  C10 UNL     1      23.393   2.840  48.717  1.00  0.00     0.005 C 
HETATM    8  C11 UNL     1      22.216   3.153  47.872  1.00  0.00     0.025 C 
HETATM    9  C12 UNL     1      21.825   4.353  48.275  1.00  0.00     0.014 C 
HETATM   10  C13 UNL     1      22.908   5.347  48.051  1.00  0.00     0.061 C 
HETATM   11  C14 UNL     1      24.135   4.931  48.872  1.00  0.00     0.040 C 
HETATM   12  N1  UNL     1      20.615   4.871  48.870  1.00  0.00    -0.313 N 
HETATM   13  C15 UNL     1      19.766   4.212  49.794  1.00  0.00     0.320 C 
HETATM   14  O2  UNL     1      20.634   3.329  49.594  1.00  0.00    -0.247 OA
HETATM   15  N2  UNL     1      18.615   4.269  50.592  1.00  0.00    -0.339 N 
HETATM   16  C16 UNL     1      18.381   3.013  51.346  1.00  0.00     0.152 C 
HETATM   17  C17 UNL     1      19.617   2.834  52.146  1.00  0.00     0.006 C 
HETATM   18  C18 UNL     1      20.323   1.736  51.961  1.00  0.00     0.016 C 
HETATM   19  C20 UNL     1      21.532   1.583  52.714  1.00  0.00     0.159 C 
HETATM   20  N3  UNL     1      22.352   2.564  52.415  1.00  0.00    -0.233 NA
HETATM   21  N4  UNL     1      21.852   0.534  53.654  1.00  0.00    -0.217 NA
HETATM   22  C21 UNL     1      22.831  -0.351  53.651  1.00  0.00     0.255 C 
HETATM   23  O3  UNL     1      24.126  -0.300  53.178  1.00  0.00    -0.323 OA
HETATM   24  H18 UNL     1      20.322   5.832  48.598  1.00  0.00     0.170 HD
HETATM   25  H19 UNL     1      18.164   5.219  50.471  1.00  0.00     0.164 HD
ENDROOT
BRANCH   1  26
HETATM   26  C2  UNL     1      26.369   0.070  52.477  1.00  0.00     0.075 C 
HETATM   27  C1  UNL     1      26.966   0.651  51.451  1.00  0.00     0.049 C 
BRANCH  26  28
HETATM   28  O1  UNL     1      26.922  -1.064  53.049  1.00  0.00    -0.358 OA
HETATM   29  C3  UNL     1      26.998  -2.316  52.402  1.00  0.00     0.209 C 
ENDBRANCH  26  28
ENDBRANCH   1  26
BRANCH  18  30
HETATM   30  C19 UNL     1      20.227   0.526  51.114  1.00  0.00     0.264 C 
HETATM   31  F1  UNL     1      19.207  -0.307  51.601  1.00  0.00    -0.250 F 
ENDBRANCH  18  30
TORSDOF 3
ENDMDL
MODEL 7
REMARK VINA RESULT:      -7.9      2.602      4.772
REMARK  3 active torsions:
REMARK  status: ('A' for Active; 'I' for Inactive)
REMARK    1  A    between atoms: C2_2  and  O1_3 
REMARK    2  A    between atoms: C2_2  and  C4_5 
REMARK    3  A    between atoms: C18_22  and  C19_23 
ROOT
HETATM    1  C4  UNL     1      22.455   5.191  48.416  1.00  0.00     0.132 C 
HETATM    2  C5  UNL     1      22.202   4.663  46.997  1.00  0.00     0.059 C 
HETATM    3  C6  UNL     1      23.382   4.281  49.172  1.00  0.00     0.045 C 
HETATM    4  C7  UNL     1      23.341   3.016  49.631  1.00  0.00     0.040 C 
HETATM    5  C8  UNL     1      24.735   2.556  49.765  1.00  0.00     0.093 C 
HETATM    6  C9  UNL     1      25.320   2.687  51.103  1.00  0.00    -0.074 C 
HETATM    7  C10 UNL     1      25.099   3.227  52.289  1.00  0.00     0.005 C 
HETATM    8  C11 UNL     1      25.062   2.440  53.545  1.00  0.00     0.025 C 
HETATM    9  C12 UNL     1      25.288   1.192  53.164  1.00  0.00     0.014 C 
HETATM   10  C13 UNL     1      26.625   1.087  52.520  1.00  0.00     0.061 C 
HETATM   11  C14 UNL     1      26.645   1.988  51.279  1.00  0.00     0.040 C 
HETATM   12  N1  UNL     1      24.531  -0.036  53.235  1.00  0.00    -0.313 N 
HETATM   13  C15 UNL     1      23.126  -0.184  53.113  1.00  0.00     0.320 C 
HETATM   14  O2  UNL     1      23.248   1.059  52.995  1.00  0.00    -0.247 OA
HETATM   15  N2  UNL     1      22.025  -1.050  53.093  1.00  0.00    -0.339 N 
HETATM   16  C16 UNL     1      20.739  -0.334  52.904  1.00  0.00     0.152 C 
HETATM   17  C17 UNL     1      20.913   0.390  51.621  1.00  0.00     0.006 C 
HETATM   18  C18 UNL     1      20.807   1.704  51.630  1.00  0.00     0.016 C 
HETATM   19  C20 UNL     1      21.007   2.400  50.394  1.00  0.00     0.159 C 
HETATM   20  N3  UNL     1      22.222   2.164  49.958  1.00  0.00    -0.233 NA
HETATM   21  N4  UNL     1      20.061   3.245  49.703  1.00  0.00    -0.217 NA
HETATM   22  C21 UNL     1      20.136   4.519  49.367  1.00  0.00     0.255 C 
HETATM   23  O3  UNL     1      21.199   5.327  49.021  1.00  0.00    -0.323 OA
HETATM   24  H18 UNL     1      25.062  -0.917  53.396  1.00  0.00     0.170 HD
HETATM   25  H19 UNL     1      22.370  -2.043  53.223  1.00  0.00     0.164 HD
ENDROOT
BRANCH   1  26
HETATM   26  C2  UNL     1      23.136   6.482  48.262  1.00  0.00     0.075 C 
HETATM   27  C1  UNL     1      24.457   6.490  48.261  1.00  0.00     0.049 C 
BRANCH  26  28
HETATM   28  O1  UNL     1      22.436   7.669  48.122  1.00  0.00    -0.358 OA
HETATM   29  C3  UNL     1      22.353   8.658  49.125  1.00  0.00     0.209 C 
ENDBRANCH  26  28
ENDBRANCH   1  26
BRANCH  18  30
HETATM   30  C19 UNL     1      20.540   2.754  52.638  1.00  0.00     0.264 C 
HETATM   31  F1  UNL     1      21.537   3.740  52.562  1.00  0.00    -0.250 F 
ENDBRANCH  18  30
TORSDOF 3
ENDMDL
MODEL 8
REMARK VINA RESULT:      -7.7      3.489      5.078
REMARK  3 active torsions:
REMARK  status: ('A' for Active; 'I' for Inactive)
REMARK    1  A    between atoms: C2_2  and  O1_3 
REMARK    2  A    between atoms: C2_2  and  C4_5 
REMARK    3  A    between atoms: C18_22  and  C19_23 
ROOT
HETATM    1  C4  UNL     1      18.041   2.348  51.000  1.00  0.00     0.132 C 
HETATM    2  C5  UNL     1      17.441   3.615  51.627  1.00  0.00     0.059 C 
HETATM    3  C6  UNL     1      19.058   1.725  51.913  1.00  0.00     0.045 C 
HETATM    4  C7  UNL     1      20.261   2.071  52.409  1.00  0.00     0.040 C 
HETATM    5  C8  UNL     1      20.455   1.309  53.656  1.00  0.00     0.093 C 
HETATM    6  C9  UNL     1      21.220   0.064  53.525  1.00  0.00    -0.074 C 
HETATM    7  C10 UNL     1      21.721  -0.762  52.622  1.00  0.00     0.005 C 
HETATM    8  C11 UNL     1      23.158  -1.123  52.563  1.00  0.00     0.025 C 
HETATM    9  C12 UNL     1      23.714  -0.451  53.560  1.00  0.00     0.014 C 
HETATM   10  C13 UNL     1      23.122  -0.875  54.856  1.00  0.00     0.061 C 
HETATM   11  C14 UNL     1      21.619  -0.566  54.836  1.00  0.00     0.040 C 
HETATM   12  N1  UNL     1      24.729   0.573  53.642  1.00  0.00    -0.313 N 
HETATM   13  C15 UNL     1      24.963   1.622  52.718  1.00  0.00     0.320 C 
HETATM   14  O2  UNL     1      24.005   1.028  52.169  1.00  0.00    -0.247 OA
HETATM   15  N2  UNL     1      25.719   2.752  52.377  1.00  0.00    -0.339 N 
HETATM   16  C16 UNL     1      25.293   3.357  51.091  1.00  0.00     0.152 C 
HETATM   17  C17 UNL     1      23.859   3.676  51.299  1.00  0.00     0.006 C 
HETATM   18  C18 UNL     1      22.976   3.120  50.493  1.00  0.00     0.016 C 
HETATM   19  C20 UNL     1      21.591   3.407  50.718  1.00  0.00     0.159 C 
HETATM   20  N3  UNL     1      21.256   2.997  51.919  1.00  0.00    -0.233 NA
HETATM   21  N4  UNL     1      20.667   4.034  49.802  1.00  0.00    -0.217 NA
HETATM   22  C21 UNL     1      19.539   3.588  49.281  1.00  0.00     0.255 C 
HETATM   23  O3  UNL     1      18.572   2.729  49.761  1.00  0.00    -0.323 OA
HETATM   24  H18 UNL     1      25.367   0.549  54.465  1.00  0.00     0.170 HD
HETATM   25  H19 UNL     1      26.441   2.919  53.134  1.00  0.00     0.164 HD
ENDROOT
BRANCH   1  26
HETATM   26  C2  UNL     1      16.936   1.393  50.856  1.00  0.00     0.075 C 
HETATM   27  C1  UNL     1      17.130   0.328  50.098  1.00  0.00     0.049 C 
BRANCH  26  28
HETATM   28  O1  UNL     1      15.716   1.582  51.485  1.00  0.00    -0.358 OA
HETATM   29  C3  UNL     1      14.974   0.546  52.092  1.00  0.00     0.209 C 
ENDBRANCH  26  28
ENDBRANCH   1  26
BRANCH  18  30
HETATM   30  C19 UNL     1      23.007   2.190  49.342  1.00  0.00     0.264 C 
HETATM   31  F1  UNL     1      22.177   1.089  49.608  1.00  0.00    -0.250 F 
ENDBRANCH  18  30
TORSDOF 3
ENDMDL
MODEL 9
REMARK VINA RESULT:      -7.6      3.052      6.218
REMARK  3 active torsions:
REMARK  status: ('A' for Active; 'I' for Inactive)
REMARK    1  A    between atoms: C2_2  and  O1_3 
REMARK    2  A    between atoms: C2_2  and  C4_5 
REMARK    3  A    between atoms: C18_22  and  C19_23 
ROOT
HETATM    1  C4  UNL     1      19.461   1.638  51.467  1.00  0.00     0.132 C 
HETATM    2  C5  UNL     1      19.260   0.267  50.807  1.00  0.00     0.059 C 
HETATM    3  C6  UNL     1      20.245   2.556  50.573  1.00  0.00     0.045 C 
HETATM    4  C7  UNL     1      21.496   2.593  50.075  1.00  0.00     0.040 C 
HETATM    5  C8  UNL     1      21.452   3.409  48.848  1.00  0.00     0.093 C 
HETATM    6  C9  UNL     1      21.815   4.821  49.012  1.00  0.00    -0.074 C 
HETATM    7  C10 UNL     1      22.052   5.736  49.937  1.00  0.00     0.005 C 
HETATM    8  C11 UNL     1      23.318   6.504  50.012  1.00  0.00     0.025 C 
HETATM    9  C12 UNL     1      24.045   6.051  49.002  1.00  0.00     0.014 C 
HETATM   10  C13 UNL     1      23.350   6.313  47.713  1.00  0.00     0.061 C 
HETATM   11  C14 UNL     1      22.007   5.573  47.719  1.00  0.00     0.040 C 
HETATM   12  N1  UNL     1      25.317   5.375  48.899  1.00  0.00    -0.313 N 
HETATM   13  C15 UNL     1      25.854   4.420  49.800  1.00  0.00     0.320 C 
HETATM   14  O2  UNL     1      24.764   4.690  50.358  1.00  0.00    -0.247 OA
HETATM   15  N2  UNL     1      26.911   3.556  50.116  1.00  0.00    -0.339 N 
HETATM   16  C16 UNL     1      26.686   2.821  51.385  1.00  0.00     0.152 C 
HETATM   17  C17 UNL     1      25.410   2.097  51.163  1.00  0.00     0.006 C 
HETATM   18  C18 UNL     1      24.404   2.348  51.978  1.00  0.00     0.016 C 
HETATM   19  C20 UNL     1      23.165   1.670  51.739  1.00  0.00     0.159 C 
HETATM   20  N3  UNL     1      22.720   1.992  50.547  1.00  0.00    -0.233 NA
HETATM   21  N4  UNL     1      22.470   0.775  52.636  1.00  0.00    -0.217 NA
HETATM   22  C21 UNL     1      21.262   0.855  53.162  1.00  0.00     0.255 C 
HETATM   23  O3  UNL     1      20.083   1.401  52.698  1.00  0.00    -0.323 OA
HETATM   24  H18 UNL     1      25.917   5.607  48.081  1.00  0.00     0.170 HD
HETATM   25  H19 UNL     1      27.648   3.629  49.359  1.00  0.00     0.164 HD
ENDROOT
BRANCH   1  26
HETATM   26  C2  UNL     1      18.123   2.220  51.628  1.00  0.00     0.075 C 
HETATM   27  C1  UNL     1      17.079   1.422  51.488  1.00  0.00     0.049 C 
BRANCH  26  28
HETATM   28  O1  UNL     1      17.935   3.561  51.918  1.00  0.00    -0.358 OA
HETATM   29  C3  UNL     1      16.974   4.377  51.284  1.00  0.00     0.209 C 
ENDBRANCH  26  28
ENDBRANCH   1  26
BRANCH  18  30
HETATM   30  C19 UNL     1      24.162   3.217  53.151  1.00  0.00     0.264 C 
HETATM   31  F1  UNL     1      23.105   4.098  52.871  1.00  0.00    -0.250 F 
ENDBRANCH  18  30
TORSDOF 3
ENDMDL
