MODEL 1
REMARK VINA RESULT:      -8.4      0.000      0.000
REMARK  6 active torsions:
REMARK  status: ('A' for Active; 'I' for Inactive)
REMARK    1  A    between atoms: C4_4  and  C5_5 
REMARK    2  A    between atoms: C4_4  and  N1_7 
REMARK    3  A    between atoms: N1_7  and  C6_8 
REMARK    4  A    between atoms: C12_16  and  N4_17 
REMARK    5  A    between atoms: N4_17  and  C13_18 
REMARK    6  A    between atoms: N5_29  and  O2_30 
ROOT
HETATM    1  C6  UNL     1      24.137   4.474  51.182  1.00  0.00     0.108 C 
HETATM    2  C7  UNL     1      24.868   3.207  50.723  1.00  0.00     0.011 C 
HETATM    3  C8  UNL     1      24.308   2.005  51.294  1.00  0.00     0.006 C 
HETATM    4  C9  UNL     1      22.889   1.660  50.671  1.00  0.00     0.193 C 
HETATM    5  N2  UNL     1      22.140   2.330  51.880  1.00  0.00    -0.270 NA
HETATM    6  C10 UNL     1      23.217   2.775  52.636  1.00  0.00     0.125 C 
HETATM    7  C11 UNL     1      23.466   4.267  52.589  1.00  0.00     0.108 C 
HETATM    8  N3  UNL     1      24.580   2.360  53.065  1.00  0.00    -0.216 NA
HETATM    9  C12 UNL     1      24.854   1.185  52.498  1.00  0.00     0.138 C 
ENDROOT
BRANCH   1  10
HETATM   10  N1  UNL     1      24.800   5.653  51.071  1.00  0.00    -0.399 N 
HETATM   11  H8  UNL     1      25.842   5.526  51.171  1.00  0.00     0.155 HD
BRANCH  10  12
HETATM   12  C4  UNL     1      24.539   6.669  50.122  1.00  0.00     0.084 C 
HETATM   13  C3  UNL     1      23.502   7.672  50.583  1.00  0.00     0.065 C 
HETATM   14  C2  UNL     1      22.350   7.891  49.675  1.00  0.00     0.108 C 
HETATM   15  C1  UNL     1      22.519   9.200  48.907  1.00  0.00     0.034 C 
HETATM   16  N5  UNL     1      22.024   6.841  48.792  1.00  0.00    -0.283 N 
HETATM   17  C20 UNL     1      23.100   6.259  48.066  1.00  0.00     0.050 C 
HETATM   18  C19 UNL     1      24.446   6.335  48.684  1.00  0.00     0.070 C 
HETATM   19  C21 UNL     1      22.692   4.846  47.711  1.00  0.00     0.040 C 
HETATM   20  C22 UNL     1      23.090   6.961  46.695  1.00  0.00     0.040 C 
BRANCH  16  21
HETATM   21  O2  UNL     1      21.076   5.991  49.216  1.00  0.00    -0.291 OA
HETATM   22  H28 UNL     1      21.518   5.081  49.240  1.00  0.00     0.244 HD
ENDBRANCH  16  21
BRANCH  12  23
HETATM   23  C5  UNL     1      25.851   7.467  50.197  1.00  0.00     0.262 C 
HETATM   24  O1  UNL     1      26.095   8.656  50.095  1.00  0.00    -0.304 OA
ENDBRANCH  12  23
ENDBRANCH  10  12
ENDBRANCH   1  10
BRANCH   9  25
HETATM   25  N4  UNL     1      25.413   0.005  53.023  1.00  0.00    -0.340 N 
HETATM   26  H15 UNL     1      24.562  -0.639  53.140  1.00  0.00     0.167 HD
BRANCH  25  27
HETATM   27  C13 UNL     1      26.783  -0.084  53.243  1.00  0.00     0.035 A 
HETATM   28  C14 UNL     1      27.472  -1.255  52.968  1.00  0.00     0.029 A 
HETATM   29  C15 UNL     1      28.848  -1.378  53.201  1.00  0.00     0.004 A 
HETATM   30  C16 UNL     1      29.534  -0.289  53.722  1.00  0.00     0.024 A 
HETATM   31  C17 UNL     1      28.822   0.872  53.987  1.00  0.00     0.036 A 
HETATM   32 CL1  UNL     1      29.774   2.212  54.652  1.00  0.00    -0.084 Cl
HETATM   33  C18 UNL     1      27.464   0.999  53.761  1.00  0.00     0.053 A 
ENDBRANCH  25  27
ENDBRANCH   9  25
TORSDOF 6
ENDMDL
MODEL 2
REMARK VINA RESULT:      -8.3      1.776      3.161
REMARK  6 active torsions:
REMARK  status: ('A' for Active; 'I' for Inactive)
REMARK    1  A    between atoms: C4_4  and  C5_5 
REMARK    2  A    between atoms: C4_4  and  N1_7 
REMARK    3  A    between atoms: N1_7  and  C6_8 
REMARK    4  A    between atoms: C12_16  and  N4_17 
REMARK    5  A    between atoms: N4_17  and  C13_18 
REMARK    6  A    between atoms: N5_29  and  O2_30 
ROOT
HETATM    1  C6  UNL     1      24.018   5.100  51.068  1.00  0.00     0.108 C 
HETATM    2  C7  UNL     1      24.938   3.891  50.858  1.00  0.00     0.011 C 
HETATM    3  C8  UNL     1      24.381   2.670  51.392  1.00  0.00     0.006 C 
HETATM    4  C9  UNL     1      23.157   2.149  50.526  1.00  0.00     0.193 C 
HETATM    5  N2  UNL     1      22.119   2.804  51.508  1.00  0.00    -0.270 NA
HETATM    6  C10 UNL     1      22.972   3.396  52.429  1.00  0.00     0.125 C 
HETATM    7  C11 UNL     1      23.092   4.901  52.323  1.00  0.00     0.108 C 
HETATM    8  N3  UNL     1      24.249   3.146  53.151  1.00  0.00    -0.216 NA
HETATM    9  C12 UNL     1      24.738   1.976  52.738  1.00  0.00     0.138 C 
ENDROOT
BRANCH   1  10
HETATM   10  N1  UNL     1      24.582   6.333  51.005  1.00  0.00    -0.399 N 
HETATM   11  H8  UNL     1      25.543   6.344  51.440  1.00  0.00     0.155 HD
BRANCH  10  12
HETATM   12  C4  UNL     1      24.560   7.203  49.890  1.00  0.00     0.084 C 
HETATM   13  C3  UNL     1      25.012   6.544  48.603  1.00  0.00     0.065 C 
HETATM   14  C2  UNL     1      26.107   7.223  47.869  1.00  0.00     0.108 C 
HETATM   15  C1  UNL     1      25.549   7.989  46.671  1.00  0.00     0.034 C 
HETATM   16  N5  UNL     1      26.968   8.048  48.622  1.00  0.00    -0.283 N 
HETATM   17  C20 UNL     1      26.352   8.967  49.515  1.00  0.00     0.050 C 
HETATM   18  C19 UNL     1      25.010   8.604  50.032  1.00  0.00     0.070 C 
HETATM   19  C21 UNL     1      27.349   9.263  50.615  1.00  0.00     0.040 C 
HETATM   20  C22 UNL     1      26.297  10.301  48.750  1.00  0.00     0.040 C 
BRANCH  16  21
HETATM   21  O2  UNL     1      28.097   7.470  49.062  1.00  0.00    -0.291 OA
HETATM   22  H28 UNL     1      28.842   8.107  48.814  1.00  0.00     0.244 HD
ENDBRANCH  16  21
BRANCH  12  23
HETATM   23  C5  UNL     1      23.044   7.356  49.686  1.00  0.00     0.262 C 
HETATM   24  O1  UNL     1      22.177   7.903  50.345  1.00  0.00    -0.304 OA
ENDBRANCH  12  23
ENDBRANCH  10  12
ENDBRANCH   1  10
BRANCH   9  25
HETATM   25  N4  UNL     1      25.279   0.890  53.450  1.00  0.00    -0.340 N 
HETATM   26  H15 UNL     1      24.408   0.373  53.808  1.00  0.00     0.167 HD
BRANCH  25  27
HETATM   27  C13 UNL     1      26.656   0.716  53.525  1.00  0.00     0.035 A 
HETATM   28  C14 UNL     1      27.500   1.800  53.714  1.00  0.00     0.029 A 
HETATM   29  C15 UNL     1      28.892   1.655  53.771  1.00  0.00     0.004 A 
HETATM   30  C16 UNL     1      29.434   0.383  53.633  1.00  0.00     0.024 A 
HETATM   31  C17 UNL     1      28.569  -0.685  53.446  1.00  0.00     0.036 A 
HETATM   32 CL1  UNL     1      29.344  -2.270  53.277  1.00  0.00    -0.084 Cl
HETATM   33  C18 UNL     1      27.194  -0.548  53.387  1.00  0.00     0.053 A 
ENDBRANCH  25  27
ENDBRANCH   9  25
TORSDOF 6
ENDMDL
MODEL 3
REMARK VINA RESULT:      -8.0      2.807      4.495
REMARK  6 active torsions:
REMARK  status: ('A' for Active; 'I' for Inactive)
REMARK    1  A    between atoms: C4_4  and  C5_5 
REMARK    2  A    between atoms: C4_4  and  N1_7 
REMARK    3  A    between atoms: N1_7  and  C6_8 
REMARK    4  A    between atoms: C12_16  and  N4_17 
REMARK    5  A    between atoms: N4_17  and  C13_18 
REMARK    6  A    between atoms: N5_29  and  O2_30 
ROOT
HETATM    1  C6  UNL     1      25.602   6.209  49.549  1.00  0.00     0.108 C 
HETATM    2  C7  UNL     1      25.310   4.711  49.696  1.00  0.00     0.011 C 
HETATM    3  C8  UNL     1      23.942   4.447  50.077  1.00  0.00     0.006 C 
HETATM    4  C9  UNL     1      22.931   4.737  48.889  1.00  0.00     0.193 C 
HETATM    5  N2  UNL     1      22.591   6.162  49.459  1.00  0.00    -0.270 NA
HETATM    6  C10 UNL     1      23.413   6.195  50.577  1.00  0.00     0.125 C 
HETATM    7  C11 UNL     1      24.643   7.069  50.450  1.00  0.00     0.108 C 
HETATM    8  N3  UNL     1      23.904   5.323  51.679  1.00  0.00    -0.216 NA
HETATM    9  C12 UNL     1      23.405   4.100  51.495  1.00  0.00     0.138 C 
ENDROOT
BRANCH   1  10
HETATM   10  N1  UNL     1      26.899   6.603  49.616  1.00  0.00    -0.399 N 
HETATM   11  H8  UNL     1      27.518   5.841  50.003  1.00  0.00     0.155 HD
BRANCH  10  12
HETATM   12  C4  UNL     1      27.603   7.323  48.622  1.00  0.00     0.084 C 
HETATM   13  C3  UNL     1      28.547   8.364  49.188  1.00  0.00     0.065 C 
HETATM   14  C2  UNL     1      28.380   9.746  48.678  1.00  0.00     0.108 C 
HETATM   15  C1  UNL     1      29.467  10.070  47.655  1.00  0.00     0.034 C 
HETATM   16  N5  UNL     1      27.111  10.093  48.172  1.00  0.00    -0.283 N 
HETATM   17  C20 UNL     1      26.511   9.175  47.266  1.00  0.00     0.050 C 
HETATM   18  C19 UNL     1      26.913   7.752  47.387  1.00  0.00     0.070 C 
HETATM   19  C21 UNL     1      25.013   9.375  47.347  1.00  0.00     0.040 C 
HETATM   20  C22 UNL     1      26.842   9.716  45.863  1.00  0.00     0.040 C 
BRANCH  16  21
HETATM   21  O2  UNL     1      26.277  10.689  49.038  1.00  0.00    -0.291 OA
HETATM   22  H28 UNL     1      25.498  10.054  49.147  1.00  0.00     0.244 HD
ENDBRANCH  16  21
BRANCH  12  23
HETATM   23  C5  UNL     1      28.559   6.232  48.111  1.00  0.00     0.262 C 
HETATM   24  O1  UNL     1      28.735   5.073  48.443  1.00  0.00    -0.304 OA
ENDBRANCH  12  23
ENDBRANCH  10  12
ENDBRANCH   1  10
BRANCH   9  25
HETATM   25  N4  UNL     1      22.801   3.196  52.389  1.00  0.00    -0.340 N 
HETATM   26  H15 UNL     1      21.916   3.717  52.704  1.00  0.00     0.167 HD
BRANCH  25  27
HETATM   27  C13 UNL     1      23.387   1.961  52.640  1.00  0.00     0.035 A 
HETATM   28  C14 UNL     1      22.660   0.934  53.220  1.00  0.00     0.029 A 
HETATM   29  C15 UNL     1      23.232  -0.313  53.503  1.00  0.00     0.004 A 
HETATM   30  C16 UNL     1      24.570  -0.517  53.188  1.00  0.00     0.024 A 
HETATM   31  C17 UNL     1      25.276   0.527  52.607  1.00  0.00     0.036 A 
HETATM   32 CL1  UNL     1      26.976   0.182  52.239  1.00  0.00    -0.084 Cl
HETATM   33  C18 UNL     1      24.717   1.759  52.326  1.00  0.00     0.053 A 
ENDBRANCH  25  27
ENDBRANCH   9  25
TORSDOF 6
ENDMDL
MODEL 4
REMARK VINA RESULT:      -8.0      3.661      5.823
REMARK  6 active torsions:
REMARK  status: ('A' for Active; 'I' for Inactive)
REMARK    1  A    between atoms: C4_4  and  C5_5 
REMARK    2  A    between atoms: C4_4  and  N1_7 
REMARK    3  A    between atoms: N1_7  and  C6_8 
REMARK    4  A    between atoms: C12_16  and  N4_17 
REMARK    5  A    between atoms: N4_17  and  C13_18 
REMARK    6  A    between atoms: N5_29  and  O2_30 
ROOT
HETATM    1  C6  UNL     1      21.853   2.261  51.458  1.00  0.00     0.108 C 
HETATM    2  C7  UNL     1      22.946   2.187  52.531  1.00  0.00     0.011 C 
HETATM    3  C8  UNL     1      23.992   3.161  52.326  1.00  0.00     0.006 C 
HETATM    4  C9  UNL     1      23.497   4.637  52.639  1.00  0.00     0.193 C 
HETATM    5  N2  UNL     1      23.225   4.922  51.117  1.00  0.00    -0.270 NA
HETATM    6  C10 UNL     1      23.577   3.700  50.559  1.00  0.00     0.125 C 
HETATM    7  C11 UNL     1      22.417   2.838  50.108  1.00  0.00     0.108 C 
HETATM    8  N3  UNL     1      24.590   2.618  50.688  1.00  0.00    -0.216 NA
HETATM    9  C12 UNL     1      25.398   2.924  51.703  1.00  0.00     0.138 C 
ENDROOT
BRANCH   1  10
HETATM   10  N1  UNL     1      21.068   1.167  51.289  1.00  0.00    -0.399 N 
HETATM   11  H8  UNL     1      21.559   0.284  51.593  1.00  0.00     0.155 HD
BRANCH  10  12
HETATM   12  C4  UNL     1      19.692   1.073  51.603  1.00  0.00     0.084 C 
HETATM   13  C3  UNL     1      18.951   0.055  50.763  1.00  0.00     0.065 C 
HETATM   14  C2  UNL     1      17.747   0.545  50.048  1.00  0.00     0.108 C 
HETATM   15  C1  UNL     1      16.479   0.100  50.773  1.00  0.00     0.034 C 
HETATM   16  N5  UNL     1      17.691   1.925  49.762  1.00  0.00    -0.283 N 
HETATM   17  C20 UNL     1      18.007   2.812  50.827  1.00  0.00     0.050 C 
HETATM   18  C19 UNL     1      18.910   2.296  51.885  1.00  0.00     0.070 C 
HETATM   19  C21 UNL     1      18.499   4.103  50.208  1.00  0.00     0.040 C 
HETATM   20  C22 UNL     1      16.650   3.227  51.425  1.00  0.00     0.040 C 
BRANCH  16  21
HETATM   21  O2  UNL     1      18.129   2.290  48.546  1.00  0.00    -0.291 OA
HETATM   22  H28 UNL     1      17.903   1.518  47.933  1.00  0.00     0.244 HD
ENDBRANCH  16  21
BRANCH  12  23
HETATM   23  C5  UNL     1      19.766   0.397  52.982  1.00  0.00     0.262 C 
HETATM   24  O1  UNL     1      19.262  -0.621  53.425  1.00  0.00    -0.304 OA
ENDBRANCH  12  23
ENDBRANCH  10  12
ENDBRANCH   1  10
BRANCH   9  25
HETATM   25  N4  UNL     1      26.800   2.886  51.822  1.00  0.00    -0.340 N 
HETATM   26  H15 UNL     1      27.114   3.777  51.313  1.00  0.00     0.167 HD
BRANCH  25  27
HETATM   27  C13 UNL     1      27.418   1.842  52.503  1.00  0.00     0.035 A 
HETATM   28  C14 UNL     1      28.443   2.089  53.402  1.00  0.00     0.029 A 
HETATM   29  C15 UNL     1      29.097   1.055  54.084  1.00  0.00     0.004 A 
HETATM   30  C16 UNL     1      28.697  -0.254  53.846  1.00  0.00     0.024 A 
HETATM   31  C17 UNL     1      27.668  -0.475  52.943  1.00  0.00     0.036 A 
HETATM   32 CL1  UNL     1      27.223  -2.173  52.697  1.00  0.00    -0.084 Cl
HETATM   33  C18 UNL     1      27.020   0.542  52.266  1.00  0.00     0.053 A 
ENDBRANCH  25  27
ENDBRANCH   9  25
TORSDOF 6
ENDMDL
MODEL 5
REMARK VINA RESULT:      -8.0      3.619      5.622
REMARK  6 active torsions:
REMARK  status: ('A' for Active; 'I' for Inactive)
REMARK    1  A    between atoms: C4_4  and  C5_5 
REMARK    2  A    between atoms: C4_4  and  N1_7 
REMARK    3  A    between atoms: N1_7  and  C6_8 
REMARK    4  A    between atoms: C12_16  and  N4_17 
REMARK    5  A    between atoms: N4_17  and  C13_18 
REMARK    6  A    between atoms: N5_29  and  O2_30 
ROOT
HETATM    1  C6  UNL     1      26.732   7.168  49.094  1.00  0.00     0.108 C 
HETATM    2  C7  UNL     1      26.309   5.741  48.722  1.00  0.00     0.011 C 
HETATM    3  C8  UNL     1      24.927   5.472  49.040  1.00  0.00     0.006 C 
HETATM    4  C9  UNL     1      23.935   6.239  48.067  1.00  0.00     0.193 C 
HETATM    5  N2  UNL     1      23.728   7.397  49.110  1.00  0.00    -0.270 NA
HETATM    6  C10 UNL     1      24.560   6.971  50.137  1.00  0.00     0.125 C 
HETATM    7  C11 UNL     1      25.861   7.732  50.274  1.00  0.00     0.108 C 
HETATM    8  N3  UNL     1      24.980   5.732  50.848  1.00  0.00    -0.216 NA
HETATM    9  C12 UNL     1      24.372   4.696  50.269  1.00  0.00     0.138 C 
ENDROOT
BRANCH   1  10
HETATM   10  N1  UNL     1      28.060   7.407  49.242  1.00  0.00    -0.399 N 
HETATM   11  H8  UNL     1      28.592   6.526  49.470  1.00  0.00     0.155 HD
BRANCH  10  12
HETATM   12  C4  UNL     1      28.854   8.236  48.416  1.00  0.00     0.084 C 
HETATM   13  C3  UNL     1      29.954   8.958  49.167  1.00  0.00     0.065 C 
HETATM   14  C2  UNL     1      29.997  10.432  49.011  1.00  0.00     0.108 C 
HETATM   15  C1  UNL     1      31.107  10.833  48.042  1.00  0.00     0.034 C 
HETATM   16  N5  UNL     1      28.790  11.074  48.667  1.00  0.00    -0.283 N 
HETATM   17  C20 UNL     1      28.044  10.503  47.599  1.00  0.00     0.050 C 
HETATM   18  C19 UNL     1      28.223   9.051  47.356  1.00  0.00     0.070 C 
HETATM   19  C21 UNL     1      26.596  10.895  47.800  1.00  0.00     0.040 C 
HETATM   20  C22 UNL     1      28.437  11.316  46.351  1.00  0.00     0.040 C 
BRANCH  16  21
HETATM   21  O2  UNL     1      28.069  11.557  49.691  1.00  0.00    -0.291 OA
HETATM   22  H28 UNL     1      28.744  11.807  50.403  1.00  0.00     0.244 HD
ENDBRANCH  16  21
BRANCH  12  23
HETATM   23  C5  UNL     1      29.622   7.175  47.612  1.00  0.00     0.262 C 
HETATM   24  O1  UNL     1      29.646   5.958  47.669  1.00  0.00    -0.304 OA
ENDBRANCH  12  23
ENDBRANCH  10  12
ENDBRANCH   1  10
BRANCH   9  25
HETATM   25  N4  UNL     1      23.698   3.588  50.816  1.00  0.00    -0.340 N 
HETATM   26  H15 UNL     1      22.664   3.817  50.638  1.00  0.00     0.167 HD
BRANCH  25  27
HETATM   27  C13 UNL     1      24.415   2.543  51.389  1.00  0.00     0.035 A 
HETATM   28  C14 UNL     1      25.757   2.358  51.096  1.00  0.00     0.029 A 
HETATM   29  C15 UNL     1      26.496   1.301  51.643  1.00  0.00     0.004 A 
HETATM   30  C16 UNL     1      25.857   0.419  52.505  1.00  0.00     0.024 A 
HETATM   31  C17 UNL     1      24.514   0.627  52.783  1.00  0.00     0.036 A 
HETATM   32 CL1  UNL     1      23.776  -0.546  53.889  1.00  0.00    -0.084 Cl
HETATM   33  C18 UNL     1      23.779   1.667  52.245  1.00  0.00     0.053 A 
ENDBRANCH  25  27
ENDBRANCH   9  25
TORSDOF 6
ENDMDL
MODEL 6
REMARK VINA RESULT:      -7.9      3.508      4.306
REMARK  6 active torsions:
REMARK  status: ('A' for Active; 'I' for Inactive)
REMARK    1  A    between atoms: C4_4  and  C5_5 
REMARK    2  A    between atoms: C4_4  and  N1_7 
REMARK    3  A    between atoms: N1_7  and  C6_8 
REMARK    4  A    between atoms: C12_16  and  N4_17 
REMARK    5  A    between atoms: N4_17  and  C13_18 
REMARK    6  A    between atoms: N5_29  and  O2_30 
ROOT
HETATM    1  C6  UNL     1      25.472   5.184  49.708  1.00  0.00     0.108 C 
HETATM    2  C7  UNL     1      25.749   3.679  49.609  1.00  0.00     0.011 C 
HETATM    3  C8  UNL     1      24.636   2.879  50.063  1.00  0.00     0.006 C 
HETATM    4  C9  UNL     1      23.417   2.930  49.048  1.00  0.00     0.193 C 
HETATM    5  N2  UNL     1      22.693   4.038  49.897  1.00  0.00    -0.270 NA
HETATM    6  C10 UNL     1      23.613   4.223  50.920  1.00  0.00     0.125 C 
HETATM    7  C11 UNL     1      24.424   5.498  50.837  1.00  0.00     0.108 C 
HETATM    8  N3  UNL     1      24.541   3.455  51.794  1.00  0.00    -0.216 NA
HETATM    9  C12 UNL     1      24.479   2.171  51.440  1.00  0.00     0.138 C 
ENDROOT
BRANCH   1  10
HETATM   10  N1  UNL     1      26.544   6.017  49.722  1.00  0.00    -0.399 N 
HETATM   11  H8  UNL     1      27.453   5.483  49.722  1.00  0.00     0.155 HD
BRANCH  10  12
HETATM   12  C4  UNL     1      26.691   7.197  48.956  1.00  0.00     0.084 C 
HETATM   13  C3  UNL     1      26.659   8.463  49.788  1.00  0.00     0.065 C 
HETATM   14  C2  UNL     1      25.674   9.493  49.378  1.00  0.00     0.108 C 
HETATM   15  C1  UNL     1      26.370  10.625  48.625  1.00  0.00     0.034 C 
HETATM   16  N5  UNL     1      24.544   9.048  48.661  1.00  0.00    -0.283 N 
HETATM   17  C20 UNL     1      24.784   8.160  47.577  1.00  0.00     0.050 C 
HETATM   18  C19 UNL     1      26.008   7.325  47.651  1.00  0.00     0.070 C 
HETATM   19  C21 UNL     1      23.525   7.345  47.375  1.00  0.00     0.040 C 
HETATM   20  C22 UNL     1      24.808   9.051  46.321  1.00  0.00     0.040 C 
BRANCH  16  21
HETATM   21  O2  UNL     1      23.448   8.797  49.393  1.00  0.00    -0.291 OA
HETATM   22  H28 UNL     1      23.709   8.993  50.350  1.00  0.00     0.244 HD
ENDBRANCH  16  21
BRANCH  12  23
HETATM   23  C5  UNL     1      28.170   7.086  48.552  1.00  0.00     0.262 C 
HETATM   24  O1  UNL     1      29.068   7.907  48.489  1.00  0.00    -0.304 OA
ENDBRANCH  12  23
ENDBRANCH  10  12
ENDBRANCH   1  10
BRANCH   9  25
HETATM   25  N4  UNL     1      24.375   0.997  52.209  1.00  0.00    -0.340 N 
HETATM   26  H15 UNL     1      25.398   0.704  52.349  1.00  0.00     0.167 HD
BRANCH  25  27
HETATM   27  C13 UNL     1      23.127   0.521  52.596  1.00  0.00     0.035 A 
HETATM   28  C14 UNL     1      22.967  -0.163  53.791  1.00  0.00     0.029 A 
HETATM   29  C15 UNL     1      21.726  -0.671  54.195  1.00  0.00     0.004 A 
HETATM   30  C16 UNL     1      20.628  -0.477  53.367  1.00  0.00     0.024 A 
HETATM   31  C17 UNL     1      20.813   0.212  52.178  1.00  0.00     0.036 A 
HETATM   32 CL1  UNL     1      19.361   0.413  51.181  1.00  0.00    -0.084 Cl
HETATM   33  C18 UNL     1      22.035   0.715  51.773  1.00  0.00     0.053 A 
ENDBRANCH  25  27
ENDBRANCH   9  25
TORSDOF 6
ENDMDL
MODEL 7
REMARK VINA RESULT:      -7.9      3.729      6.048
REMARK  6 active torsions:
REMARK  status: ('A' for Active; 'I' for Inactive)
REMARK    1  A    between atoms: C4_4  and  C5_5 
REMARK    2  A    between atoms: C4_4  and  N1_7 
REMARK    3  A    between atoms: N1_7  and  C6_8 
REMARK    4  A    between atoms: C12_16  and  N4_17 
REMARK    5  A    between atoms: N4_17  and  C13_18 
REMARK    6  A    between atoms: N5_29  and  O2_30 
ROOT
HETATM    1  C6  UNL     1      26.103   6.945  49.347  1.00  0.00     0.108 C 
HETATM    2  C7  UNL     1      25.860   5.471  49.695  1.00  0.00     0.011 C 
HETATM    3  C8  UNL     1      24.477   5.193  50.002  1.00  0.00     0.006 C 
HETATM    4  C9  UNL     1      23.560   5.251  48.707  1.00  0.00     0.193 C 
HETATM    5  N2  UNL     1      23.115   6.725  49.028  1.00  0.00    -0.270 NA
HETATM    6  C10 UNL     1      23.836   6.965  50.190  1.00  0.00     0.125 C 
HETATM    7  C11 UNL     1      25.035   7.875  50.030  1.00  0.00     0.108 C 
HETATM    8  N3  UNL     1      24.265   6.292  51.446  1.00  0.00    -0.216 NA
HETATM    9  C12 UNL     1      23.834   5.031  51.409  1.00  0.00     0.138 C 
ENDROOT
BRANCH   1  10
HETATM   10  N1  UNL     1      27.372   7.412  49.456  1.00  0.00    -0.399 N 
HETATM   11  H8  UNL     1      27.861   7.020  50.304  1.00  0.00     0.155 HD
BRANCH  10  12
HETATM   12  C4  UNL     1      28.302   7.551  48.399  1.00  0.00     0.084 C 
HETATM   13  C3  UNL     1      29.173   6.328  48.199  1.00  0.00     0.065 C 
HETATM   14  C2  UNL     1      30.638   6.558  48.208  1.00  0.00     0.108 C 
HETATM   15  C1  UNL     1      31.188   6.541  46.783  1.00  0.00     0.034 C 
HETATM   16  N5  UNL     1      31.103   7.695  48.900  1.00  0.00    -0.283 N 
HETATM   17  C20 UNL     1      30.430   8.921  48.641  1.00  0.00     0.050 C 
HETATM   18  C19 UNL     1      29.017   8.831  48.202  1.00  0.00     0.070 C 
HETATM   19  C21 UNL     1      30.615   9.802  49.858  1.00  0.00     0.040 C 
HETATM   20  C22 UNL     1      31.285   9.637  47.580  1.00  0.00     0.040 C 
BRANCH  16  21
HETATM   21  O2  UNL     1      31.483   7.493  50.171  1.00  0.00    -0.291 OA
HETATM   22  H28 UNL     1      31.307   8.366  50.650  1.00  0.00     0.244 HD
ENDBRANCH  16  21
BRANCH  12  23
HETATM   23  C5  UNL     1      27.357   7.504  47.187  1.00  0.00     0.262 C 
HETATM   24  O1  UNL     1      27.021   8.347  46.374  1.00  0.00    -0.304 OA
ENDBRANCH  12  23
ENDBRANCH  10  12
ENDBRANCH   1  10
BRANCH   9  25
HETATM   25  N4  UNL     1      23.193   4.237  52.378  1.00  0.00    -0.340 N 
HETATM   26  H15 UNL     1      22.382   4.858  52.707  1.00  0.00     0.167 HD
BRANCH  25  27
HETATM   27  C13 UNL     1      23.668   2.962  52.667  1.00  0.00     0.035 A 
HETATM   28  C14 UNL     1      25.004   2.754  52.972  1.00  0.00     0.029 A 
HETATM   29  C15 UNL     1      25.513   1.478  53.246  1.00  0.00     0.004 A 
HETATM   30  C16 UNL     1      24.644   0.395  53.209  1.00  0.00     0.024 A 
HETATM   31  C17 UNL     1      23.312   0.629  52.902  1.00  0.00     0.036 A 
HETATM   32 CL1  UNL     1      22.274  -0.808  52.874  1.00  0.00    -0.084 Cl
HETATM   33  C18 UNL     1      22.804   1.886  52.630  1.00  0.00     0.053 A 
ENDBRANCH  25  27
ENDBRANCH   9  25
TORSDOF 6
ENDMDL
MODEL 8
REMARK VINA RESULT:      -7.9      2.052      2.505
REMARK  6 active torsions:
REMARK  status: ('A' for Active; 'I' for Inactive)
REMARK    1  A    between atoms: C4_4  and  C5_5 
REMARK    2  A    between atoms: C4_4  and  N1_7 
REMARK    3  A    between atoms: N1_7  and  C6_8 
REMARK    4  A    between atoms: C12_16  and  N4_17 
REMARK    5  A    between atoms: N4_17  and  C13_18 
REMARK    6  A    between atoms: N5_29  and  O2_30 
ROOT
HETATM    1  C6  UNL     1      25.611   5.323  49.657  1.00  0.00     0.108 C 
HETATM    2  C7  UNL     1      25.962   3.831  49.600  1.00  0.00     0.011 C 
HETATM    3  C8  UNL     1      24.890   2.990  50.079  1.00  0.00     0.006 C 
HETATM    4  C9  UNL     1      23.669   2.953  49.066  1.00  0.00     0.193 C 
HETATM    5  N2  UNL     1      22.892   4.047  49.885  1.00  0.00    -0.270 NA
HETATM    6  C10 UNL     1      23.803   4.305  50.900  1.00  0.00     0.125 C 
HETATM    7  C11 UNL     1      24.550   5.617  50.779  1.00  0.00     0.108 C 
HETATM    8  N3  UNL     1      24.769   3.609  51.793  1.00  0.00    -0.216 NA
HETATM    9  C12 UNL     1      24.770   2.315  51.475  1.00  0.00     0.138 C 
ENDROOT
BRANCH   1  10
HETATM   10  N1  UNL     1      26.641   6.207  49.645  1.00  0.00    -0.399 N 
HETATM   11  H8  UNL     1      27.575   5.719  49.655  1.00  0.00     0.155 HD
BRANCH  10  12
HETATM   12  C4  UNL     1      26.727   7.373  48.849  1.00  0.00     0.084 C 
HETATM   13  C3  UNL     1      26.673   8.656  49.652  1.00  0.00     0.065 C 
HETATM   14  C2  UNL     1      25.643   9.643  49.245  1.00  0.00     0.108 C 
HETATM   15  C1  UNL     1      26.280  10.779  48.448  1.00  0.00     0.034 C 
HETATM   16  N5  UNL     1      24.511   9.143  48.568  1.00  0.00    -0.283 N 
HETATM   17  C20 UNL     1      24.753   8.237  47.499  1.00  0.00     0.050 C 
HETATM   18  C19 UNL     1      26.006   7.447  47.559  1.00  0.00     0.070 C 
HETATM   19  C21 UNL     1      23.518   7.376  47.349  1.00  0.00     0.040 C 
HETATM   20  C22 UNL     1      24.714   9.098  46.223  1.00  0.00     0.040 C 
BRANCH  16  21
HETATM   21  O2  UNL     1      23.443   8.872  49.335  1.00  0.00    -0.291 OA
HETATM   22  H28 UNL     1      22.772   9.603  49.135  1.00  0.00     0.244 HD
ENDBRANCH  16  21
BRANCH  12  23
HETATM   23  C5  UNL     1      28.198   7.303  48.408  1.00  0.00     0.262 C 
HETATM   24  O1  UNL     1      28.821   6.486  47.752  1.00  0.00    -0.304 OA
ENDBRANCH  12  23
ENDBRANCH  10  12
ENDBRANCH   1  10
BRANCH   9  25
HETATM   25  N4  UNL     1      24.724   1.158  52.277  1.00  0.00    -0.340 N 
HETATM   26  H15 UNL     1      23.673   1.016  52.443  1.00  0.00     0.167 HD
BRANCH  25  27
HETATM   27  C13 UNL     1      25.899   0.506  52.634  1.00  0.00     0.035 A 
HETATM   28  C14 UNL     1      26.060  -0.850  52.393  1.00  0.00     0.029 A 
HETATM   29  C15 UNL     1      27.224  -1.535  52.762  1.00  0.00     0.004 A 
HETATM   30  C16 UNL     1      28.243  -0.826  53.386  1.00  0.00     0.024 A 
HETATM   31  C17 UNL     1      28.058   0.529  53.615  1.00  0.00     0.036 A 
HETATM   32 CL1  UNL     1      29.405   1.356  54.418  1.00  0.00    -0.084 Cl
HETATM   33  C18 UNL     1      26.911   1.211  53.254  1.00  0.00     0.053 A 
ENDBRANCH  25  27
ENDBRANCH   9  25
TORSDOF 6
ENDMDL
MODEL 9
REMARK VINA RESULT:      -7.9      3.200      5.327
REMARK  6 active torsions:
REMARK  status: ('A' for Active; 'I' for Inactive)
REMARK    1  A    between atoms: C4_4  and  C5_5 
REMARK    2  A    between atoms: C4_4  and  N1_7 
REMARK    3  A    between atoms: N1_7  and  C6_8 
REMARK    4  A    between atoms: C12_16  and  N4_17 
REMARK    5  A    between atoms: N4_17  and  C13_18 
REMARK    6  A    between atoms: N5_29  and  O2_30 
ROOT
HETATM    1  C6  UNL     1      22.105   3.850  49.534  1.00  0.00     0.108 C 
HETATM    2  C7  UNL     1      22.702   3.236  50.807  1.00  0.00     0.011 C 
HETATM    3  C8  UNL     1      23.950   3.853  51.188  1.00  0.00     0.006 C 
HETATM    4  C9  UNL     1      23.738   5.322  51.750  1.00  0.00     0.193 C 
HETATM    5  N2  UNL     1      24.093   5.960  50.358  1.00  0.00    -0.270 NA
HETATM    6  C10 UNL     1      24.321   4.818  49.602  1.00  0.00     0.125 C 
HETATM    7  C11 UNL     1      23.226   4.464  48.618  1.00  0.00     0.108 C 
HETATM    8  N3  UNL     1      24.940   3.468  49.702  1.00  0.00    -0.216 NA
HETATM    9  C12 UNL     1      25.387   3.308  50.947  1.00  0.00     0.138 C 
ENDROOT
BRANCH   1  10
HETATM   10  N1  UNL     1      21.196   3.111  48.850  1.00  0.00    -0.399 N 
HETATM   11  H8  UNL     1      21.615   2.211  48.493  1.00  0.00     0.155 HD
BRANCH  10  12
HETATM   12  C4  UNL     1      19.851   2.887  49.228  1.00  0.00     0.084 C 
HETATM   13  C3  UNL     1      19.237   4.048  49.983  1.00  0.00     0.065 C 
HETATM   14  C2  UNL     1      18.630   3.728  51.298  1.00  0.00     0.108 C 
HETATM   15  C1  UNL     1      17.108   3.673  51.182  1.00  0.00     0.034 C 
HETATM   16  N5  UNL     1      19.113   2.582  51.964  1.00  0.00    -0.283 N 
HETATM   17  C20 UNL     1      19.229   1.395  51.190  1.00  0.00     0.050 C 
HETATM   18  C19 UNL     1      19.432   1.561  49.731  1.00  0.00     0.070 C 
HETATM   19  C21 UNL     1      20.292   0.536  51.841  1.00  0.00     0.040 C 
HETATM   20  C22 UNL     1      17.942   0.599  51.474  1.00  0.00     0.040 C 
BRANCH  16  21
HETATM   21  O2  UNL     1      20.088   2.794  52.862  1.00  0.00    -0.291 OA
HETATM   22  H28 UNL     1      20.305   3.780  52.799  1.00  0.00     0.244 HD
ENDBRANCH  16  21
BRANCH  12  23
HETATM   23  C5  UNL     1      19.160   2.961  47.857  1.00  0.00     0.262 C 
HETATM   24  O1  UNL     1      17.991   3.080  47.532  1.00  0.00    -0.304 OA
ENDBRANCH  12  23
ENDBRANCH  10  12
ENDBRANCH   1  10
BRANCH   9  25
HETATM   25  N4  UNL     1      26.608   2.810  51.442  1.00  0.00    -0.340 N 
HETATM   26  H15 UNL     1      27.338   3.449  50.982  1.00  0.00     0.167 HD
BRANCH  25  27
HETATM   27  C13 UNL     1      26.620   1.737  52.326  1.00  0.00     0.035 A 
HETATM   28  C14 UNL     1      26.564   1.944  53.695  1.00  0.00     0.029 A 
HETATM   29  C15 UNL     1      26.597   0.882  54.608  1.00  0.00     0.004 A 
HETATM   30  C16 UNL     1      26.688  -0.414  54.117  1.00  0.00     0.024 A 
HETATM   31  C17 UNL     1      26.742  -0.595  52.742  1.00  0.00     0.036 A 
HETATM   32 CL1  UNL     1      26.860  -2.279  52.201  1.00  0.00    -0.084 Cl
HETATM   33  C18 UNL     1      26.711   0.449  51.837  1.00  0.00     0.053 A 
ENDBRANCH  25  27
ENDBRANCH   9  25
TORSDOF 6
ENDMDL
