MODEL 1
REMARK VINA RESULT:      -7.5      0.000      0.000
REMARK  4 active torsions:
REMARK  status: ('A' for Active; 'I' for Inactive)
REMARK    1  A    between atoms: C2_2  and  N1_3 
REMARK    2  A    between atoms: C5_7  and  N3_8 
REMARK    3  A    between atoms: N3_8  and  C6_9 
REMARK    4  A    between atoms: C10_13  and  C11_14 
ROOT
HETATM    1  N3  UNL     1      24.748   2.379  52.365  1.00  0.00    -0.364 N 
HETATM    2  H8  UNL     1      25.018   3.038  51.604  1.00  0.00     0.165 HD
ENDROOT
BRANCH   1   3
HETATM    3  C5  UNL     1      25.599   2.275  53.495  1.00  0.00     0.120 C 
HETATM    4  C4  UNL     1      26.714   1.558  53.519  1.00  0.00     0.104 C 
HETATM    5  N2  UNL     1      27.619   1.412  54.629  1.00  0.00    -0.242 NA
HETATM    6  C13 UNL     1      27.371   0.719  52.478  1.00  0.00     0.326 C 
HETATM    7  C3  UNL     1      28.311   0.331  54.507  1.00  0.00     0.208 C 
HETATM    8  N1  UNL     1      27.925  -0.332  53.308  1.00  0.00    -0.340 N 
HETATM    9  F4  UNL     1      26.489   0.246  51.550  1.00  0.00    -0.220 F 
BRANCH   8  10
HETATM   10  C2  UNL     1      28.062  -1.737  53.004  1.00  0.00     0.122 C 
HETATM   11  C1  UNL     1      29.423  -2.301  53.339  1.00  0.00     0.026 C 
ENDBRANCH   8  10
ENDBRANCH   1   3
BRANCH   1  12
HETATM   12  C6  UNL     1      23.565   1.633  52.231  1.00  0.00     0.032 A 
HETATM   13  C7  UNL     1      22.858   1.496  51.058  1.00  0.00     0.029 A 
HETATM   14  C8  UNL     1      21.683   0.745  50.953  1.00  0.00     0.003 A 
HETATM   15  C9  UNL     1      21.212   0.117  52.062  1.00  0.00     0.016 A 
HETATM   16  C10 UNL     1      21.872   0.215  53.261  1.00  0.00     0.050 A 
HETATM   17  C12 UNL     1      23.014   0.961  53.308  1.00  0.00     0.045 A 
BRANCH  16  18
HETATM   18  C11 UNL     1      21.302  -0.492  54.429  1.00  0.00     0.417 C 
HETATM   19  F1  UNL     1      22.314  -1.027  55.235  1.00  0.00    -0.166 F 
HETATM   20  F2  UNL     1      20.647   0.450  55.212  1.00  0.00    -0.166 F 
HETATM   21  F3  UNL     1      20.432  -1.491  54.040  1.00  0.00    -0.166 F 
ENDBRANCH  16  18
ENDBRANCH   1  12
TORSDOF 4
ENDMDL
MODEL 2
REMARK VINA RESULT:      -7.2      1.539      2.176
REMARK  4 active torsions:
REMARK  status: ('A' for Active; 'I' for Inactive)
REMARK    1  A    between atoms: C2_2  and  N1_3 
REMARK    2  A    between atoms: C5_7  and  N3_8 
REMARK    3  A    between atoms: N3_8  and  C6_9 
REMARK    4  A    between atoms: C10_13  and  C11_14 
ROOT
HETATM    1  N3  UNL     1      24.271   1.960  52.536  1.00  0.00    -0.364 N 
HETATM    2  H8  UNL     1      24.200   2.382  51.586  1.00  0.00     0.165 HD
ENDROOT
BRANCH   1   3
HETATM    3  C5  UNL     1      25.327   2.388  53.383  1.00  0.00     0.120 C 
HETATM    4  C4  UNL     1      26.576   1.955  53.285  1.00  0.00     0.104 C 
HETATM    5  N2  UNL     1      27.689   2.348  54.109  1.00  0.00    -0.242 NA
HETATM    6  C13 UNL     1      27.215   0.985  52.352  1.00  0.00     0.326 C 
HETATM    7  C3  UNL     1      28.610   1.446  54.082  1.00  0.00     0.208 C 
HETATM    8  N1  UNL     1      28.188   0.380  53.239  1.00  0.00    -0.340 N 
HETATM    9  F4  UNL     1      26.328   0.079  51.847  1.00  0.00    -0.220 F 
BRANCH   8  10
HETATM   10  C2  UNL     1      28.639  -0.992  53.273  1.00  0.00     0.122 C 
HETATM   11  C1  UNL     1      30.078  -1.148  53.702  1.00  0.00     0.026 C 
ENDBRANCH   8  10
ENDBRANCH   1   3
BRANCH   1  12
HETATM   12  C6  UNL     1      23.325   0.997  52.925  1.00  0.00     0.032 A 
HETATM   13  C7  UNL     1      23.589  -0.060  53.766  1.00  0.00     0.029 A 
HETATM   14  C8  UNL     1      22.627  -1.003  54.139  1.00  0.00     0.003 A 
HETATM   15  C9  UNL     1      21.366  -0.875  53.648  1.00  0.00     0.016 A 
HETATM   16  C10 UNL     1      21.040   0.158  52.805  1.00  0.00     0.050 A 
HETATM   17  C12 UNL     1      22.018   1.051  52.473  1.00  0.00     0.045 A 
BRANCH  16  18
HETATM   18  C11 UNL     1      19.650   0.235  52.305  1.00  0.00     0.417 C 
HETATM   19  F1  UNL     1      19.150   1.538  52.415  1.00  0.00    -0.166 F 
HETATM   20  F2  UNL     1      19.675  -0.052  50.947  1.00  0.00    -0.166 F 
HETATM   21  F3  UNL     1      18.823  -0.644  52.974  1.00  0.00    -0.166 F 
ENDBRANCH  16  18
ENDBRANCH   1  12
TORSDOF 4
ENDMDL
MODEL 3
REMARK VINA RESULT:      -7.2      2.603      5.812
REMARK  4 active torsions:
REMARK  status: ('A' for Active; 'I' for Inactive)
REMARK    1  A    between atoms: C2_2  and  N1_3 
REMARK    2  A    between atoms: C5_7  and  N3_8 
REMARK    3  A    between atoms: N3_8  and  C6_9 
REMARK    4  A    between atoms: C10_13  and  C11_14 
ROOT
HETATM    1  N3  UNL     1      26.775   3.111  51.794  1.00  0.00    -0.364 N 
HETATM    2  H8  UNL     1      27.032   4.099  52.002  1.00  0.00     0.165 HD
ENDROOT
BRANCH   1   3
HETATM    3  C5  UNL     1      25.774   2.871  50.817  1.00  0.00     0.120 C 
HETATM    4  C4  UNL     1      24.481   2.769  51.091  1.00  0.00     0.104 C 
HETATM    5  N2  UNL     1      23.419   2.527  50.149  1.00  0.00    -0.242 NA
HETATM    6  C13 UNL     1      23.733   2.866  52.375  1.00  0.00     0.326 C 
HETATM    7  C3  UNL     1      22.391   2.028  50.747  1.00  0.00     0.208 C 
HETATM    8  N1  UNL     1      22.683   1.897  52.134  1.00  0.00    -0.340 N 
HETATM    9  F4  UNL     1      24.502   2.549  53.457  1.00  0.00    -0.220 F 
BRANCH   8  10
HETATM   10  C2  UNL     1      22.062   0.994  53.076  1.00  0.00     0.122 C 
HETATM   11  C1  UNL     1      22.842  -0.278  53.302  1.00  0.00     0.026 C 
ENDBRANCH   8  10
ENDBRANCH   1   3
BRANCH   1  12
HETATM   12  C6  UNL     1      27.426   2.078  52.487  1.00  0.00     0.032 A 
HETATM   13  C7  UNL     1      28.463   2.265  53.373  1.00  0.00     0.029 A 
HETATM   14  C8  UNL     1      29.093   1.218  54.052  1.00  0.00     0.003 A 
HETATM   15  C9  UNL     1      28.662  -0.052  53.830  1.00  0.00     0.016 A 
HETATM   16  C10 UNL     1      27.632  -0.304  52.960  1.00  0.00     0.050 A 
HETATM   17  C12 UNL     1      27.053   0.755  52.323  1.00  0.00     0.045 A 
BRANCH  16  18
HETATM   18  C11 UNL     1      27.215  -1.710  52.763  1.00  0.00     0.417 C 
HETATM   19  F1  UNL     1      26.145  -2.039  53.604  1.00  0.00    -0.166 F 
HETATM   20  F2  UNL     1      26.733  -1.828  51.467  1.00  0.00    -0.166 F 
HETATM   21  F3  UNL     1      28.264  -2.582  52.974  1.00  0.00    -0.166 F 
ENDBRANCH  16  18
ENDBRANCH   1  12
TORSDOF 4
ENDMDL
MODEL 4
REMARK VINA RESULT:      -7.1      3.166      4.760
REMARK  4 active torsions:
REMARK  status: ('A' for Active; 'I' for Inactive)
REMARK    1  A    between atoms: C2_2  and  N1_3 
REMARK    2  A    between atoms: C5_7  and  N3_8 
REMARK    3  A    between atoms: N3_8  and  C6_9 
REMARK    4  A    between atoms: C10_13  and  C11_14 
ROOT
HETATM    1  N3  UNL     1      22.834   2.732  51.431  1.00  0.00    -0.364 N 
HETATM    2  H8  UNL     1      22.074   2.540  50.745  1.00  0.00     0.165 HD
ENDROOT
BRANCH   1   3
HETATM    3  C5  UNL     1      23.266   4.074  51.596  1.00  0.00     0.120 C 
HETATM    4  C4  UNL     1      24.005   4.728  50.712  1.00  0.00     0.104 C 
HETATM    5  N2  UNL     1      24.474   6.085  50.819  1.00  0.00    -0.242 NA
HETATM    6  C13 UNL     1      24.565   4.316  49.394  1.00  0.00     0.326 C 
HETATM    7  C3  UNL     1      25.510   6.264  50.073  1.00  0.00     0.208 C 
HETATM    8  N1  UNL     1      25.818   5.043  49.408  1.00  0.00    -0.340 N 
HETATM    9  F4  UNL     1      24.742   2.966  49.297  1.00  0.00    -0.220 F 
BRANCH   8  10
HETATM   10  C2  UNL     1      27.097   4.637  48.874  1.00  0.00     0.122 C 
HETATM   11  C1  UNL     1      27.953   5.790  48.408  1.00  0.00     0.026 C 
ENDBRANCH   8  10
ENDBRANCH   1   3
BRANCH   1  12
HETATM   12  C6  UNL     1      23.389   1.660  52.149  1.00  0.00     0.032 A 
HETATM   13  C7  UNL     1      24.702   1.259  52.062  1.00  0.00     0.029 A 
HETATM   14  C8  UNL     1      25.229   0.188  52.792  1.00  0.00     0.003 A 
HETATM   15  C9  UNL     1      24.406  -0.494  53.630  1.00  0.00     0.016 A 
HETATM   16  C10 UNL     1      23.086  -0.143  53.762  1.00  0.00     0.050 A 
HETATM   17  C12 UNL     1      22.623   0.910  53.026  1.00  0.00     0.045 A 
BRANCH  16  18
HETATM   18  C11 UNL     1      22.245  -0.930  54.690  1.00  0.00     0.417 C 
HETATM   19  F1  UNL     1      21.178  -0.164  55.173  1.00  0.00    -0.166 F 
HETATM   20  F2  UNL     1      21.674  -1.967  53.963  1.00  0.00    -0.166 F 
HETATM   21  F3  UNL     1      22.985  -1.425  55.745  1.00  0.00    -0.166 F 
ENDBRANCH  16  18
ENDBRANCH   1  12
TORSDOF 4
ENDMDL
MODEL 5
REMARK VINA RESULT:      -7.0      3.252      6.466
REMARK  4 active torsions:
REMARK  status: ('A' for Active; 'I' for Inactive)
REMARK    1  A    between atoms: C2_2  and  N1_3 
REMARK    2  A    between atoms: C5_7  and  N3_8 
REMARK    3  A    between atoms: N3_8  and  C6_9 
REMARK    4  A    between atoms: C10_13  and  C11_14 
ROOT
HETATM    1  N3  UNL     1      26.533   3.110  51.583  1.00  0.00    -0.364 N 
HETATM    2  H8  UNL     1      27.140   3.843  52.006  1.00  0.00     0.165 HD
ENDROOT
BRANCH   1   3
HETATM    3  C5  UNL     1      25.703   3.474  50.491  1.00  0.00     0.120 C 
HETATM    4  C4  UNL     1      24.534   4.086  50.622  1.00  0.00     0.104 C 
HETATM    5  N2  UNL     1      23.647   4.482  49.559  1.00  0.00    -0.242 NA
HETATM    6  C13 UNL     1      23.788   4.545  51.827  1.00  0.00     0.326 C 
HETATM    7  C3  UNL     1      22.442   4.609  50.001  1.00  0.00     0.208 C 
HETATM    8  N1  UNL     1      22.427   4.308  51.392  1.00  0.00    -0.340 N 
HETATM    9  F4  UNL     1      24.113   3.836  52.948  1.00  0.00    -0.220 F 
BRANCH   8  10
HETATM   10  C2  UNL     1      21.297   3.867  52.178  1.00  0.00     0.122 C 
HETATM   11  C1  UNL     1      21.200   2.366  52.312  1.00  0.00     0.026 C 
ENDBRANCH   8  10
ENDBRANCH   1   3
BRANCH   1  12
HETATM   12  C6  UNL     1      26.567   1.809  52.113  1.00  0.00     0.032 A 
HETATM   13  C7  UNL     1      25.491   0.951  52.144  1.00  0.00     0.029 A 
HETATM   14  C8  UNL     1      25.554  -0.341  52.676  1.00  0.00     0.003 A 
HETATM   15  C9  UNL     1      26.735  -0.775  53.188  1.00  0.00     0.016 A 
HETATM   16  C10 UNL     1      27.844   0.033  53.187  1.00  0.00     0.050 A 
HETATM   17  C12 UNL     1      27.728   1.285  52.656  1.00  0.00     0.045 A 
BRANCH  16  18
HETATM   18  C11 UNL     1      29.096  -0.503  53.764  1.00  0.00     0.417 C 
HETATM   19  F1  UNL     1      30.211   0.184  53.269  1.00  0.00    -0.166 F 
HETATM   20  F2  UNL     1      29.069  -0.255  55.130  1.00  0.00    -0.166 F 
HETATM   21  F3  UNL     1      29.229  -1.854  53.517  1.00  0.00    -0.166 F 
ENDBRANCH  16  18
ENDBRANCH   1  12
TORSDOF 4
ENDMDL
MODEL 6
REMARK VINA RESULT:      -6.8      2.609      3.511
REMARK  4 active torsions:
REMARK  status: ('A' for Active; 'I' for Inactive)
REMARK    1  A    between atoms: C2_2  and  N1_3 
REMARK    2  A    between atoms: C5_7  and  N3_8 
REMARK    3  A    between atoms: N3_8  and  C6_9 
REMARK    4  A    between atoms: C10_13  and  C11_14 
ROOT
HETATM    1  N3  UNL     1      24.285   2.107  53.035  1.00  0.00    -0.364 N 
HETATM    2  H8  UNL     1      23.637   1.479  53.555  1.00  0.00     0.165 HD
ENDROOT
BRANCH   1   3
HETATM    3  C5  UNL     1      25.478   2.524  53.682  1.00  0.00     0.120 C 
HETATM    4  C4  UNL     1      26.677   2.024  53.418  1.00  0.00     0.104 C 
HETATM    5  N2  UNL     1      27.921   2.403  54.035  1.00  0.00    -0.242 NA
HETATM    6  C13 UNL     1      27.121   0.976  52.456  1.00  0.00     0.326 C 
HETATM    7  C3  UNL     1      28.788   1.455  53.920  1.00  0.00     0.208 C 
HETATM    8  N1  UNL     1      28.195   0.370  53.216  1.00  0.00    -0.340 N 
HETATM    9  F4  UNL     1      26.129   0.091  52.149  1.00  0.00    -0.220 F 
BRANCH   8  10
HETATM   10  C2  UNL     1      28.588  -1.020  53.262  1.00  0.00     0.122 C 
HETATM   11  C1  UNL     1      29.989  -1.238  53.781  1.00  0.00     0.026 C 
ENDBRANCH   8  10
ENDBRANCH   1   3
BRANCH   1  12
HETATM   12  C6  UNL     1      23.948   2.505  51.731  1.00  0.00     0.032 A 
HETATM   13  C7  UNL     1      24.481   3.597  51.086  1.00  0.00     0.029 A 
HETATM   14  C8  UNL     1      24.128   3.969  49.785  1.00  0.00     0.003 A 
HETATM   15  C9  UNL     1      23.213   3.217  49.120  1.00  0.00     0.016 A 
HETATM   16  C10 UNL     1      22.645   2.115  49.708  1.00  0.00     0.050 A 
HETATM   17  C12 UNL     1      23.025   1.797  50.979  1.00  0.00     0.045 A 
BRANCH  16  18
HETATM   18  C11 UNL     1      21.653   1.343  48.927  1.00  0.00     0.417 C 
HETATM   19  F1  UNL     1      22.175   0.970  47.683  1.00  0.00    -0.166 F 
HETATM   20  F2  UNL     1      21.410   0.159  49.611  1.00  0.00    -0.166 F 
HETATM   21  F3  UNL     1      20.483   2.054  48.753  1.00  0.00    -0.166 F 
ENDBRANCH  16  18
ENDBRANCH   1  12
TORSDOF 4
ENDMDL
MODEL 7
REMARK VINA RESULT:      -6.8      3.670      5.865
REMARK  4 active torsions:
REMARK  status: ('A' for Active; 'I' for Inactive)
REMARK    1  A    between atoms: C2_2  and  N1_3 
REMARK    2  A    between atoms: C5_7  and  N3_8 
REMARK    3  A    between atoms: N3_8  and  C6_9 
REMARK    4  A    between atoms: C10_13  and  C11_14 
ROOT
HETATM    1  N3  UNL     1      24.652   3.333  53.220  1.00  0.00    -0.364 N 
HETATM    2  H8  UNL     1      25.054   3.989  53.921  1.00  0.00     0.165 HD
ENDROOT
BRANCH   1   3
HETATM    3  C5  UNL     1      23.787   3.861  52.226  1.00  0.00     0.120 C 
HETATM    4  C4  UNL     1      24.137   4.041  50.960  1.00  0.00     0.104 C 
HETATM    5  N2  UNL     1      23.309   4.570  49.907  1.00  0.00    -0.242 NA
HETATM    6  C13 UNL     1      25.414   3.776  50.240  1.00  0.00     0.326 C 
HETATM    7  C3  UNL     1      24.040   5.048  48.957  1.00  0.00     0.208 C 
HETATM    8  N1  UNL     1      25.411   4.877  49.299  1.00  0.00    -0.340 N 
HETATM    9  F4  UNL     1      26.498   3.795  51.069  1.00  0.00    -0.220 F 
BRANCH   8  10
HETATM   10  C2  UNL     1      26.535   5.640  48.807  1.00  0.00     0.122 C 
HETATM   11  C1  UNL     1      27.773   4.810  48.567  1.00  0.00     0.026 C 
ENDBRANCH   8  10
ENDBRANCH   1   3
BRANCH   1  12
HETATM   12  C6  UNL     1      24.984   1.970  53.294  1.00  0.00     0.032 A 
HETATM   13  C7  UNL     1      24.086   0.938  53.141  1.00  0.00     0.029 A 
HETATM   14  C8  UNL     1      24.445  -0.411  53.217  1.00  0.00     0.003 A 
HETATM   15  C9  UNL     1      25.745  -0.725  53.455  1.00  0.00     0.016 A 
HETATM   16  C10 UNL     1      26.689   0.258  53.617  1.00  0.00     0.050 A 
HETATM   17  C12 UNL     1      26.285   1.559  53.532  1.00  0.00     0.045 A 
BRANCH  16  18
HETATM   18  C11 UNL     1      28.086  -0.155  53.876  1.00  0.00     0.417 C 
HETATM   19  F1  UNL     1      28.338  -1.427  53.350  1.00  0.00    -0.166 F 
HETATM   20  F2  UNL     1      28.917   0.717  53.184  1.00  0.00    -0.166 F 
HETATM   21  F3  UNL     1      28.376  -0.137  55.225  1.00  0.00    -0.166 F 
ENDBRANCH  16  18
ENDBRANCH   1  12
TORSDOF 4
ENDMDL
MODEL 8
REMARK VINA RESULT:      -6.8      3.458      5.251
REMARK  4 active torsions:
REMARK  status: ('A' for Active; 'I' for Inactive)
REMARK    1  A    between atoms: C2_2  and  N1_3 
REMARK    2  A    between atoms: C5_7  and  N3_8 
REMARK    3  A    between atoms: N3_8  and  C6_9 
REMARK    4  A    between atoms: C10_13  and  C11_14 
ROOT
HETATM    1  N3  UNL     1      22.231   2.501  51.885  1.00  0.00    -0.364 N 
HETATM    2  H8  UNL     1      21.442   2.329  51.226  1.00  0.00     0.165 HD
ENDROOT
BRANCH   1   3
HETATM    3  C5  UNL     1      22.702   3.832  52.032  1.00  0.00     0.120 C 
HETATM    4  C4  UNL     1      23.465   4.450  51.140  1.00  0.00     0.104 C 
HETATM    5  N2  UNL     1      23.974   5.794  51.229  1.00  0.00    -0.242 NA
HETATM    6  C13 UNL     1      24.015   4.001  49.831  1.00  0.00     0.326 C 
HETATM    7  C3  UNL     1      25.018   5.929  50.484  1.00  0.00     0.208 C 
HETATM    8  N1  UNL     1      25.290   4.690  49.839  1.00  0.00    -0.340 N 
HETATM    9  F4  UNL     1      24.151   2.645  49.754  1.00  0.00    -0.220 F 
BRANCH   8  10
HETATM   10  C2  UNL     1      26.558   4.237  49.315  1.00  0.00     0.122 C 
HETATM   11  C1  UNL     1      27.349   5.319  48.621  1.00  0.00     0.026 C 
ENDBRANCH   8  10
ENDBRANCH   1   3
BRANCH   1  12
HETATM   12  C6  UNL     1      22.782   1.416  52.586  1.00  0.00     0.032 A 
HETATM   13  C7  UNL     1      22.094   0.645  53.495  1.00  0.00     0.029 A 
HETATM   14  C8  UNL     1      22.667  -0.433  54.178  1.00  0.00     0.003 A 
HETATM   15  C9  UNL     1      23.968  -0.737  53.935  1.00  0.00     0.016 A 
HETATM   16  C10 UNL     1      24.708  -0.006  53.039  1.00  0.00     0.050 A 
HETATM   17  C12 UNL     1      24.100   1.035  52.400  1.00  0.00     0.045 A 
BRANCH  16  18
HETATM   18  C11 UNL     1      26.120  -0.391  52.826  1.00  0.00     0.417 C 
HETATM   19  F1  UNL     1      26.892  -0.121  53.963  1.00  0.00    -0.166 F 
HETATM   20  F2  UNL     1      26.159  -1.769  52.655  1.00  0.00    -0.166 F 
HETATM   21  F3  UNL     1      26.659   0.251  51.729  1.00  0.00    -0.166 F 
ENDBRANCH  16  18
ENDBRANCH   1  12
TORSDOF 4
ENDMDL
MODEL 9
REMARK VINA RESULT:      -6.7      3.064      4.782
REMARK  4 active torsions:
REMARK  status: ('A' for Active; 'I' for Inactive)
REMARK    1  A    between atoms: C2_2  and  N1_3 
REMARK    2  A    between atoms: C5_7  and  N3_8 
REMARK    3  A    between atoms: N3_8  and  C6_9 
REMARK    4  A    between atoms: C10_13  and  C11_14 
ROOT
HETATM    1  N3  UNL     1      24.127   0.999  51.800  1.00  0.00    -0.364 N 
HETATM    2  H8  UNL     1      23.966   0.022  51.476  1.00  0.00     0.165 HD
ENDROOT
BRANCH   1   3
HETATM    3  C5  UNL     1      24.677   1.194  53.094  1.00  0.00     0.120 C 
HETATM    4  C4  UNL     1      25.960   1.032  53.385  1.00  0.00     0.104 C 
HETATM    5  N2  UNL     1      26.579   1.214  54.672  1.00  0.00    -0.242 NA
HETATM    6  C13 UNL     1      27.122   0.636  52.542  1.00  0.00     0.326 C 
HETATM    7  C3  UNL     1      27.683   0.551  54.739  1.00  0.00     0.208 C 
HETATM    8  N1  UNL     1      27.890  -0.126  53.505  1.00  0.00    -0.340 N 
HETATM    9  F4  UNL     1      26.756  -0.105  51.456  1.00  0.00    -0.220 F 
BRANCH   8  10
HETATM   10  C2  UNL     1      28.690  -1.308  53.280  1.00  0.00     0.122 C 
HETATM   11  C1  UNL     1      30.122  -1.167  53.739  1.00  0.00     0.026 C 
ENDBRANCH   8  10
ENDBRANCH   1   3
BRANCH   1  12
HETATM   12  C6  UNL     1      23.793   2.063  50.946  1.00  0.00     0.032 A 
HETATM   13  C7  UNL     1      22.532   2.294  50.445  1.00  0.00     0.029 A 
HETATM   14  C8  UNL     1      22.227   3.364  49.597  1.00  0.00     0.003 A 
HETATM   15  C9  UNL     1      23.221   4.220  49.248  1.00  0.00     0.016 A 
HETATM   16  C10 UNL     1      24.500   4.044  49.715  1.00  0.00     0.050 A 
HETATM   17  C12 UNL     1      24.743   2.984  50.539  1.00  0.00     0.045 A 
BRANCH  16  18
HETATM   18  C11 UNL     1      25.535   5.013  49.292  1.00  0.00     0.417 C 
HETATM   19  F1  UNL     1      26.682   4.353  48.836  1.00  0.00    -0.166 F 
HETATM   20  F2  UNL     1      25.036   5.711  48.201  1.00  0.00    -0.166 F 
HETATM   21  F3  UNL     1      25.865   5.878  50.315  1.00  0.00    -0.166 F 
ENDBRANCH  16  18
ENDBRANCH   1  12
TORSDOF 4
ENDMDL
