MODEL 1
REMARK VINA RESULT:      -9.3      0.000      0.000
REMARK  6 active torsions:
REMARK  status: ('A' for Active; 'I' for Inactive)
REMARK    1  A    between atoms: O1_2  and  C2_3 
REMARK    2  A    between atoms: C4_5  and  O2_6 
REMARK    3  A    between atoms: O2_6  and  C5_7 
REMARK    4  A    between atoms: C5_7  and  C6_8 
REMARK    5  A    between atoms: C12_16  and  N3_17 
REMARK    6  A    between atoms: N3_17  and  C13_18 
ROOT
HETATM    1  C2  UNL     1      19.732  -0.117  52.589  1.00  0.00     0.073 A 
HETATM    2  C3  UNL     1      20.695   0.502  51.838  1.00  0.00     0.074 A 
HETATM    3  C4  UNL     1      22.056   0.543  52.055  1.00  0.00     0.087 A 
HETATM    4  C11 UNL     1      22.437  -0.156  53.209  1.00  0.00     0.072 A 
HETATM    5  C12 UNL     1      23.728  -0.273  53.641  1.00  0.00     0.144 A 
HETATM    6  N4  UNL     1      24.051  -0.967  54.761  1.00  0.00    -0.223 NA
HETATM    7  C19 UNL     1      23.139  -1.572  55.504  1.00  0.00     0.236 A 
HETATM    8  N5  UNL     1      21.857  -1.491  55.128  1.00  0.00    -0.241 NA
HETATM    9  C20 UNL     1      21.519  -0.801  54.011  1.00  0.00     0.077 A 
HETATM   10  C21 UNL     1      20.186  -0.776  53.695  1.00  0.00     0.069 A 
ENDROOT
BRANCH   3  11
HETATM   11  O2  UNL     1      23.072   1.094  51.429  1.00  0.00    -0.350 OA
BRANCH  11  12
HETATM   12  C5  UNL     1      23.481   2.096  50.644  1.00  0.00     0.182 C 
BRANCH  12  13
HETATM   13  C6  UNL     1      23.511   3.474  51.226  1.00  0.00     0.030 C 
HETATM   14  C7  UNL     1      23.832   3.601  52.672  1.00  0.00     0.024 C 
HETATM   15  C8  UNL     1      23.627   5.073  53.057  1.00  0.00     0.110 C 
HETATM   16  N1  UNL     1      23.840   5.990  52.006  1.00  0.00    -0.243 NA
HETATM   17  N2  UNL     1      24.696   5.619  51.020  1.00  0.00    -0.352 N 
HETATM   18  H12 UNL     1      24.134   6.926  52.360  1.00  0.00     0.146 HD
HETATM   19  C9  UNL     1      25.059   6.645  50.093  1.00  0.00     0.164 C 
HETATM   20  C10 UNL     1      24.547   4.329  50.485  1.00  0.00     0.143 C 
ENDBRANCH  12  13
ENDBRANCH  11  12
ENDBRANCH   3  11
BRANCH   1  21
HETATM   21  O1  UNL     1      18.415  -0.023  52.171  1.00  0.00    -0.356 OA
HETATM   22  C1  UNL     1      17.450  -0.995  52.457  1.00  0.00     0.210 C 
ENDBRANCH   1  21
BRANCH   5  23
HETATM   23  N3  UNL     1      24.802   0.342  52.941  1.00  0.00    -0.340 N 
HETATM   24  H18 UNL     1      24.535   1.080  52.251  1.00  0.00     0.167 HD
BRANCH  23  25
HETATM   25  C13 UNL     1      26.202   0.042  53.085  1.00  0.00     0.035 A 
HETATM   26  C14 UNL     1      26.785  -1.171  52.773  1.00  0.00     0.032 A 
HETATM   27  C15 UNL     1      28.141  -1.264  53.009  1.00  0.00     0.046 A 
HETATM   28  C16 UNL     1      28.963  -0.282  53.515  1.00  0.00     0.138 A 
HETATM   29  F1  UNL     1      30.282  -0.552  53.681  1.00  0.00    -0.204 F 
HETATM   30  C17 UNL     1      28.329   0.932  53.817  1.00  0.00     0.074 A 
HETATM   31 CL1  UNL     1      29.407   2.155  54.462  1.00  0.00    -0.081 Cl
HETATM   32  C18 UNL     1      26.974   1.063  53.596  1.00  0.00     0.056 A 
ENDBRANCH  23  25
ENDBRANCH   5  23
TORSDOF 6
ENDMDL
MODEL 2
REMARK VINA RESULT:      -8.8      3.546      7.609
REMARK  6 active torsions:
REMARK  status: ('A' for Active; 'I' for Inactive)
REMARK    1  A    between atoms: O1_2  and  C2_3 
REMARK    2  A    between atoms: C4_5  and  O2_6 
REMARK    3  A    between atoms: O2_6  and  C5_7 
REMARK    4  A    between atoms: C5_7  and  C6_8 
REMARK    5  A    between atoms: C12_16  and  N3_17 
REMARK    6  A    between atoms: N3_17  and  C13_18 
ROOT
HETATM    1  C2  UNL     1      26.674   4.591  49.234  1.00  0.00     0.073 A 
HETATM    2  C3  UNL     1      26.550   3.406  49.909  1.00  0.00     0.074 A 
HETATM    3  C4  UNL     1      25.557   3.018  50.784  1.00  0.00     0.087 A 
HETATM    4  C11 UNL     1      24.581   4.009  50.962  1.00  0.00     0.072 A 
HETATM    5  C12 UNL     1      23.489   3.870  51.772  1.00  0.00     0.144 A 
HETATM    6  N4  UNL     1      22.565   4.854  51.908  1.00  0.00    -0.223 NA
HETATM    7  C19 UNL     1      22.664   6.008  51.268  1.00  0.00     0.236 A 
HETATM    8  N5  UNL     1      23.714   6.199  50.461  1.00  0.00    -0.241 NA
HETATM    9  C20 UNL     1      24.645   5.225  50.314  1.00  0.00     0.077 A 
HETATM   10  C21 UNL     1      25.682   5.501  49.462  1.00  0.00     0.069 A 
ENDROOT
BRANCH   3  11
HETATM   11  O2  UNL     1      25.325   1.934  51.489  1.00  0.00    -0.350 OA
BRANCH  11  12
HETATM   12  C5  UNL     1      25.859   0.878  52.112  1.00  0.00     0.182 C 
BRANCH  12  13
HETATM   13  C6  UNL     1      27.265   0.997  52.612  1.00  0.00     0.030 C 
HETATM   14  C7  UNL     1      27.519   1.954  53.722  1.00  0.00     0.024 C 
HETATM   15  C8  UNL     1      29.039   2.021  53.927  1.00  0.00     0.110 C 
HETATM   16  N1  UNL     1      29.730   0.839  53.583  1.00  0.00    -0.243 NA
HETATM   17  N2  UNL     1      29.045  -0.330  53.667  1.00  0.00    -0.352 N 
HETATM   18  H12 UNL     1      30.618   0.738  54.120  1.00  0.00     0.146 HD
HETATM   19  C9  UNL     1      29.827  -1.519  53.528  1.00  0.00     0.164 C 
HETATM   20  C10 UNL     1      27.758  -0.367  53.107  1.00  0.00     0.143 C 
ENDBRANCH  12  13
ENDBRANCH  11  12
ENDBRANCH   3  11
BRANCH   1  21
HETATM   21  O1  UNL     1      27.766   4.757  48.399  1.00  0.00    -0.356 OA
HETATM   22  C1  UNL     1      28.397   5.991  48.200  1.00  0.00     0.210 C 
ENDBRANCH   1  21
BRANCH   5  23
HETATM   23  N3  UNL     1      23.273   2.685  52.526  1.00  0.00    -0.340 N 
HETATM   24  H18 UNL     1      24.034   2.421  53.193  1.00  0.00     0.167 HD
BRANCH  23  25
HETATM   25  C13 UNL     1      22.125   1.820  52.454  1.00  0.00     0.035 A 
HETATM   26  C14 UNL     1      21.030   2.029  51.638  1.00  0.00     0.032 A 
HETATM   27  C15 UNL     1      20.020   1.095  51.736  1.00  0.00     0.046 A 
HETATM   28  C16 UNL     1      19.993  -0.013  52.554  1.00  0.00     0.138 A 
HETATM   29  F1  UNL     1      18.909  -0.828  52.518  1.00  0.00    -0.204 F 
HETATM   30  C17 UNL     1      21.125  -0.186  53.364  1.00  0.00     0.074 A 
HETATM   31 CL1  UNL     1      21.051  -1.604  54.393  1.00  0.00    -0.081 Cl
HETATM   32  C18 UNL     1      22.155   0.728  53.294  1.00  0.00     0.056 A 
ENDBRANCH  23  25
ENDBRANCH   5  23
TORSDOF 6
ENDMDL
MODEL 3
REMARK VINA RESULT:      -8.8      3.335      5.935
REMARK  6 active torsions:
REMARK  status: ('A' for Active; 'I' for Inactive)
REMARK    1  A    between atoms: O1_2  and  C2_3 
REMARK    2  A    between atoms: C4_5  and  O2_6 
REMARK    3  A    between atoms: O2_6  and  C5_7 
REMARK    4  A    between atoms: C5_7  and  C6_8 
REMARK    5  A    between atoms: C12_16  and  N3_17 
REMARK    6  A    between atoms: N3_17  and  C13_18 
ROOT
HETATM    1  C2  UNL     1      21.425   0.055  52.735  1.00  0.00     0.073 A 
HETATM    2  C3  UNL     1      22.552   0.654  53.231  1.00  0.00     0.074 A 
HETATM    3  C4  UNL     1      23.420   1.509  52.588  1.00  0.00     0.087 A 
HETATM    4  C11 UNL     1      23.047   1.756  51.259  1.00  0.00     0.072 A 
HETATM    5  C12 UNL     1      23.737   2.574  50.410  1.00  0.00     0.144 A 
HETATM    6  N4  UNL     1      23.333   2.788  49.133  1.00  0.00    -0.223 NA
HETATM    7  C19 UNL     1      22.250   2.220  48.630  1.00  0.00     0.236 A 
HETATM    8  N5  UNL     1      21.535   1.408  49.417  1.00  0.00    -0.241 NA
HETATM    9  C20 UNL     1      21.926   1.184  50.696  1.00  0.00     0.077 A 
HETATM   10  C21 UNL     1      21.131   0.346  51.434  1.00  0.00     0.069 A 
ENDROOT
BRANCH   3  11
HETATM   11  O2  UNL     1      24.520   2.139  52.938  1.00  0.00    -0.350 OA
BRANCH  11  12
HETATM   12  C5  UNL     1      25.688   2.058  53.583  1.00  0.00     0.182 C 
BRANCH  12  13
HETATM   13  C6  UNL     1      26.433   0.761  53.524  1.00  0.00     0.030 C 
HETATM   14  C7  UNL     1      26.101  -0.171  52.415  1.00  0.00     0.024 C 
HETATM   15  C8  UNL     1      26.858  -1.480  52.677  1.00  0.00     0.110 C 
HETATM   16  N1  UNL     1      28.066  -1.327  53.390  1.00  0.00    -0.243 NA
HETATM   17  N2  UNL     1      28.708  -0.136  53.278  1.00  0.00    -0.352 N 
HETATM   18  H12 UNL     1      28.746  -2.087  53.172  1.00  0.00     0.146 HD
HETATM   19  C9  UNL     1      30.027  -0.088  53.827  1.00  0.00     0.164 C 
HETATM   20  C10 UNL     1      27.939   1.030  53.416  1.00  0.00     0.143 C 
ENDBRANCH  12  13
ENDBRANCH  11  12
ENDBRANCH   3  11
BRANCH   1  21
HETATM   21  O1  UNL     1      20.700  -0.774  53.576  1.00  0.00    -0.356 OA
HETATM   22  C1  UNL     1      21.296  -1.639  54.500  1.00  0.00     0.210 C 
ENDBRANCH   1  21
BRANCH   5  23
HETATM   23  N3  UNL     1      24.927   3.234  50.821  1.00  0.00    -0.340 N 
HETATM   24  H18 UNL     1      25.234   3.054  51.804  1.00  0.00     0.167 HD
BRANCH  23  25
HETATM   25  C13 UNL     1      25.733   4.122  50.026  1.00  0.00     0.035 A 
HETATM   26  C14 UNL     1      26.878   3.752  49.347  1.00  0.00     0.032 A 
HETATM   27  C15 UNL     1      27.523   4.761  48.661  1.00  0.00     0.046 A 
HETATM   28  C16 UNL     1      27.146   6.083  48.585  1.00  0.00     0.138 A 
HETATM   29  F1  UNL     1      27.905   6.941  47.860  1.00  0.00    -0.204 F 
HETATM   30  C17 UNL     1      25.978   6.413  49.289  1.00  0.00     0.074 A 
HETATM   31 CL1  UNL     1      25.532   8.104  49.171  1.00  0.00    -0.081 Cl
HETATM   32  C18 UNL     1      25.306   5.431  49.987  1.00  0.00     0.056 A 
ENDBRANCH  23  25
ENDBRANCH   5  23
TORSDOF 6
ENDMDL
MODEL 4
REMARK VINA RESULT:      -8.3      3.166      6.024
REMARK  6 active torsions:
REMARK  status: ('A' for Active; 'I' for Inactive)
REMARK    1  A    between atoms: O1_2  and  C2_3 
REMARK    2  A    between atoms: C4_5  and  O2_6 
REMARK    3  A    between atoms: O2_6  and  C5_7 
REMARK    4  A    between atoms: C5_7  and  C6_8 
REMARK    5  A    between atoms: C12_16  and  N3_17 
REMARK    6  A    between atoms: N3_17  and  C13_18 
ROOT
HETATM    1  C2  UNL     1      21.399   0.096  52.575  1.00  0.00     0.073 A 
HETATM    2  C3  UNL     1      22.570   0.671  52.988  1.00  0.00     0.074 A 
HETATM    3  C4  UNL     1      23.436   1.464  52.266  1.00  0.00     0.087 A 
HETATM    4  C11 UNL     1      23.006   1.669  50.947  1.00  0.00     0.072 A 
HETATM    5  C12 UNL     1      23.682   2.423  50.030  1.00  0.00     0.144 A 
HETATM    6  N4  UNL     1      23.222   2.599  48.766  1.00  0.00    -0.223 NA
HETATM    7  C19 UNL     1      22.095   2.052  48.342  1.00  0.00     0.236 A 
HETATM    8  N5  UNL     1      21.391   1.303  49.199  1.00  0.00    -0.241 NA
HETATM    9  C20 UNL     1      21.837   1.118  50.466  1.00  0.00     0.077 A 
HETATM   10  C21 UNL     1      21.050   0.344  51.278  1.00  0.00     0.069 A 
ENDROOT
BRANCH   3  11
HETATM   11  O2  UNL     1      24.574   2.065  52.534  1.00  0.00    -0.350 OA
BRANCH  11  12
HETATM   12  C5  UNL     1      25.569   2.218  53.415  1.00  0.00     0.182 C 
BRANCH  12  13
HETATM   13  C6  UNL     1      26.689   1.226  53.386  1.00  0.00     0.030 C 
HETATM   14  C7  UNL     1      27.510   1.083  54.617  1.00  0.00     0.024 C 
HETATM   15  C8  UNL     1      28.682   0.152  54.278  1.00  0.00     0.110 C 
HETATM   16  N1  UNL     1      28.408  -0.793  53.266  1.00  0.00    -0.243 NA
HETATM   17  N2  UNL     1      27.116  -1.180  53.110  1.00  0.00    -0.352 N 
HETATM   18  H12 UNL     1      28.996  -1.649  53.364  1.00  0.00     0.146 HD
HETATM   19  C9  UNL     1      26.901  -2.290  52.236  1.00  0.00     0.164 C 
HETATM   20  C10 UNL     1      26.138  -0.172  53.079  1.00  0.00     0.143 C 
ENDBRANCH  12  13
ENDBRANCH  11  12
ENDBRANCH   3  11
BRANCH   1  21
HETATM   21  O1  UNL     1      20.687  -0.667  53.485  1.00  0.00    -0.356 OA
HETATM   22  C1  UNL     1      21.286  -1.610  54.328  1.00  0.00     0.210 C 
ENDBRANCH   1  21
BRANCH   5  23
HETATM   23  N3  UNL     1      24.914   3.053  50.354  1.00  0.00    -0.340 N 
HETATM   24  H18 UNL     1      25.463   2.615  51.128  1.00  0.00     0.167 HD
BRANCH  23  25
HETATM   25  C13 UNL     1      25.467   4.227  49.730  1.00  0.00     0.035 A 
HETATM   26  C14 UNL     1      24.777   5.404  49.515  1.00  0.00     0.032 A 
HETATM   27  C15 UNL     1      25.480   6.404  48.877  1.00  0.00     0.046 A 
HETATM   28  C16 UNL     1      26.784   6.350  48.438  1.00  0.00     0.138 A 
HETATM   29  F1  UNL     1      27.316   7.438  47.826  1.00  0.00    -0.204 F 
HETATM   30  C17 UNL     1      27.445   5.136  48.677  1.00  0.00     0.074 A 
HETATM   31 CL1  UNL     1      29.101   5.104  48.101  1.00  0.00    -0.081 Cl
HETATM   32  C18 UNL     1      26.775   4.112  49.312  1.00  0.00     0.056 A 
ENDBRANCH  23  25
ENDBRANCH   5  23
TORSDOF 6
ENDMDL
MODEL 5
REMARK VINA RESULT:      -8.3      3.741      6.452
REMARK  6 active torsions:
REMARK  status: ('A' for Active; 'I' for Inactive)
REMARK    1  A    between atoms: O1_2  and  C2_3 
REMARK    2  A    between atoms: C4_5  and  O2_6 
REMARK    3  A    between atoms: O2_6  and  C5_7 
REMARK    4  A    between atoms: C5_7  and  C6_8 
REMARK    5  A    between atoms: C12_16  and  N3_17 
REMARK    6  A    between atoms: N3_17  and  C13_18 
ROOT
HETATM    1  C2  UNL     1      27.340   0.614  53.603  1.00  0.00     0.073 A 
HETATM    2  C3  UNL     1      26.485   1.203  52.711  1.00  0.00     0.074 A 
HETATM    3  C4  UNL     1      25.116   1.066  52.620  1.00  0.00     0.087 A 
HETATM    4  C11 UNL     1      24.596   0.199  53.592  1.00  0.00     0.072 A 
HETATM    5  C12 UNL     1      23.268  -0.099  53.719  1.00  0.00     0.144 A 
HETATM    6  N4  UNL     1      22.810  -0.939  54.680  1.00  0.00    -0.223 NA
HETATM    7  C19 UNL     1      23.617  -1.523  55.551  1.00  0.00     0.236 A 
HETATM    8  N5  UNL     1      24.928  -1.266  55.473  1.00  0.00    -0.241 NA
HETATM    9  C20 UNL     1      25.401  -0.428  54.518  1.00  0.00     0.077 A 
HETATM   10  C21 UNL     1      26.755  -0.216  54.516  1.00  0.00     0.069 A 
ENDROOT
BRANCH   3  11
HETATM   11  O2  UNL     1      24.193   1.561  51.826  1.00  0.00    -0.350 OA
BRANCH  11  12
HETATM   12  C5  UNL     1      23.942   2.302  50.741  1.00  0.00     0.182 C 
BRANCH  12  13
HETATM   13  C6  UNL     1      24.745   3.549  50.544  1.00  0.00     0.030 C 
HETATM   14  C7  UNL     1      25.517   3.675  49.280  1.00  0.00     0.024 C 
HETATM   15  C8  UNL     1      26.381   4.938  49.397  1.00  0.00     0.110 C 
HETATM   16  N1  UNL     1      25.838   5.946  50.221  1.00  0.00    -0.243 NA
HETATM   17  N2  UNL     1      24.487   5.987  50.347  1.00  0.00    -0.352 N 
HETATM   18  H12 UNL     1      26.170   6.895  49.944  1.00  0.00     0.146 HD
HETATM   19  C9  UNL     1      23.959   7.142  51.004  1.00  0.00     0.164 C 
HETATM   20  C10 UNL     1      23.825   4.775  50.601  1.00  0.00     0.143 C 
ENDBRANCH  12  13
ENDBRANCH  11  12
ENDBRANCH   3  11
BRANCH   1  21
HETATM   21  O1  UNL     1      28.691   0.904  53.504  1.00  0.00    -0.356 OA
HETATM   22  C1  UNL     1      29.691  -0.072  53.578  1.00  0.00     0.210 C 
ENDBRANCH   1  21
BRANCH   5  23
HETATM   23  N3  UNL     1      22.298   0.450  52.837  1.00  0.00    -0.340 N 
HETATM   24  H18 UNL     1      22.632   1.215  52.208  1.00  0.00     0.167 HD
BRANCH  23  25
HETATM   25  C13 UNL     1      20.916   0.061  52.734  1.00  0.00     0.035 A 
HETATM   26  C14 UNL     1      20.232  -0.675  53.682  1.00  0.00     0.032 A 
HETATM   27  C15 UNL     1      18.917  -0.965  53.382  1.00  0.00     0.046 A 
HETATM   28  C16 UNL     1      18.225  -0.600  52.249  1.00  0.00     0.138 A 
HETATM   29  F1  UNL     1      16.928  -0.976  52.123  1.00  0.00    -0.204 F 
HETATM   30  C17 UNL     1      18.959   0.146  51.315  1.00  0.00     0.074 A 
HETATM   31 CL1  UNL     1      18.046   0.589  49.885  1.00  0.00    -0.081 Cl
HETATM   32  C18 UNL     1      20.277   0.456  51.579  1.00  0.00     0.056 A 
ENDBRANCH  23  25
ENDBRANCH   5  23
TORSDOF 6
ENDMDL
MODEL 6
REMARK VINA RESULT:      -8.2      4.011      6.602
REMARK  6 active torsions:
REMARK  status: ('A' for Active; 'I' for Inactive)
REMARK    1  A    between atoms: O1_2  and  C2_3 
REMARK    2  A    between atoms: C4_5  and  O2_6 
REMARK    3  A    between atoms: O2_6  and  C5_7 
REMARK    4  A    between atoms: C5_7  and  C6_8 
REMARK    5  A    between atoms: C12_16  and  N3_17 
REMARK    6  A    between atoms: N3_17  and  C13_18 
ROOT
HETATM    1  C2  UNL     1      27.634   0.614  53.597  1.00  0.00     0.073 A 
HETATM    2  C3  UNL     1      27.487   1.471  52.539  1.00  0.00     0.074 A 
HETATM    3  C4  UNL     1      26.337   1.795  51.852  1.00  0.00     0.087 A 
HETATM    4  C11 UNL     1      25.208   1.127  52.348  1.00  0.00     0.072 A 
HETATM    5  C12 UNL     1      23.947   1.280  51.846  1.00  0.00     0.144 A 
HETATM    6  N4  UNL     1      22.882   0.617  52.364  1.00  0.00    -0.223 NA
HETATM    7  C19 UNL     1      22.999  -0.219  53.383  1.00  0.00     0.236 A 
HETATM    8  N5  UNL     1      24.212  -0.407  53.915  1.00  0.00    -0.241 NA
HETATM    9  C20 UNL     1      25.285   0.249  53.409  1.00  0.00     0.077 A 
HETATM   10  C21 UNL     1      26.487   0.004  54.019  1.00  0.00     0.069 A 
ENDROOT
BRANCH   3  11
HETATM   11  O2  UNL     1      26.063   2.583  50.837  1.00  0.00    -0.350 OA
BRANCH  11  12
HETATM   12  C5  UNL     1      26.493   3.090  49.677  1.00  0.00     0.182 C 
BRANCH  12  13
HETATM   13  C6  UNL     1      26.845   4.544  49.634  1.00  0.00     0.030 C 
HETATM   14  C7  UNL     1      27.556   5.042  48.428  1.00  0.00     0.024 C 
HETATM   15  C8  UNL     1      27.956   6.499  48.703  1.00  0.00     0.110 C 
HETATM   16  N1  UNL     1      27.097   7.186  49.588  1.00  0.00    -0.243 NA
HETATM   17  N2  UNL     1      25.806   6.772  49.649  1.00  0.00    -0.352 N 
HETATM   18  H12 UNL     1      27.104   8.214  49.416  1.00  0.00     0.146 HD
HETATM   19  C9  UNL     1      24.917   7.619  50.381  1.00  0.00     0.164 C 
HETATM   20  C10 UNL     1      25.573   5.391  49.758  1.00  0.00     0.143 C 
ENDBRANCH  12  13
ENDBRANCH  11  12
ENDBRANCH   3  11
BRANCH   1  21
HETATM   21  O1  UNL     1      28.900   0.445  54.132  1.00  0.00    -0.356 OA
HETATM   22  C1  UNL     1      29.809  -0.510  53.663  1.00  0.00     0.210 C 
ENDBRANCH   1  21
BRANCH   5  23
HETATM   23  N3  UNL     1      23.688   2.136  50.741  1.00  0.00    -0.340 N 
HETATM   24  H18 UNL     1      24.084   1.832  49.824  1.00  0.00     0.167 HD
BRANCH  23  25
HETATM   25  C13 UNL     1      22.949   3.371  50.769  1.00  0.00     0.035 A 
HETATM   26  C14 UNL     1      22.807   4.180  51.880  1.00  0.00     0.032 A 
HETATM   27  C15 UNL     1      22.036   5.310  51.705  1.00  0.00     0.046 A 
HETATM   28  C16 UNL     1      21.402   5.710  50.549  1.00  0.00     0.138 A 
HETATM   29  F1  UNL     1      20.681   6.859  50.561  1.00  0.00    -0.204 F 
HETATM   30  C17 UNL     1      21.574   4.859  49.448  1.00  0.00     0.074 A 
HETATM   31 CL1  UNL     1      20.750   5.400  47.997  1.00  0.00    -0.081 Cl
HETATM   32  C18 UNL     1      22.338   3.719  49.584  1.00  0.00     0.056 A 
ENDBRANCH  23  25
ENDBRANCH   5  23
TORSDOF 6
ENDMDL
MODEL 7
REMARK VINA RESULT:      -8.1      3.804      6.453
REMARK  6 active torsions:
REMARK  status: ('A' for Active; 'I' for Inactive)
REMARK    1  A    between atoms: O1_2  and  C2_3 
REMARK    2  A    between atoms: C4_5  and  O2_6 
REMARK    3  A    between atoms: O2_6  and  C5_7 
REMARK    4  A    between atoms: C5_7  and  C6_8 
REMARK    5  A    between atoms: C12_16  and  N3_17 
REMARK    6  A    between atoms: N3_17  and  C13_18 
ROOT
HETATM    1  C2  UNL     1      26.583   0.150  53.052  1.00  0.00     0.073 A 
HETATM    2  C3  UNL     1      25.810   1.005  52.314  1.00  0.00     0.074 A 
HETATM    3  C4  UNL     1      24.445   1.194  52.374  1.00  0.00     0.087 A 
HETATM    4  C11 UNL     1      23.831   0.375  53.333  1.00  0.00     0.072 A 
HETATM    5  C12 UNL     1      22.490   0.376  53.593  1.00  0.00     0.144 A 
HETATM    6  N4  UNL     1      21.941  -0.429  54.537  1.00  0.00    -0.223 NA
HETATM    7  C19 UNL     1      22.667  -1.264  55.262  1.00  0.00     0.236 A 
HETATM    8  N5  UNL     1      23.987  -1.307  55.049  1.00  0.00    -0.241 NA
HETATM    9  C20 UNL     1      24.551  -0.508  54.109  1.00  0.00     0.077 A 
HETATM   10  C21 UNL     1      25.909  -0.611  53.963  1.00  0.00     0.069 A 
ENDROOT
BRANCH   3  11
HETATM   11  O2  UNL     1      23.593   1.962  51.733  1.00  0.00    -0.350 OA
BRANCH  11  12
HETATM   12  C5  UNL     1      23.438   2.929  50.822  1.00  0.00     0.182 C 
BRANCH  12  13
HETATM   13  C6  UNL     1      24.616   3.801  50.517  1.00  0.00     0.030 C 
HETATM   14  C7  UNL     1      25.419   3.470  49.311  1.00  0.00     0.024 C 
HETATM   15  C8  UNL     1      26.651   4.386  49.319  1.00  0.00     0.110 C 
HETATM   16  N1  UNL     1      26.453   5.631  49.953  1.00  0.00    -0.243 NA
HETATM   17  N2  UNL     1      25.191   6.127  49.969  1.00  0.00    -0.352 N 
HETATM   18  H12 UNL     1      27.090   6.365  49.575  1.00  0.00     0.146 HD
HETATM   19  C9  UNL     1      25.060   7.479  50.418  1.00  0.00     0.164 C 
HETATM   20  C10 UNL     1      24.155   5.252  50.336  1.00  0.00     0.143 C 
ENDBRANCH  12  13
ENDBRANCH  11  12
ENDBRANCH   3  11
BRANCH   1  21
HETATM   21  O1  UNL     1      27.948   0.134  52.816  1.00  0.00    -0.356 OA
HETATM   22  C1  UNL     1      28.900   0.032  53.837  1.00  0.00     0.210 C 
ENDBRANCH   1  21
BRANCH   5  23
HETATM   23  N3  UNL     1      21.597   1.217  52.875  1.00  0.00    -0.340 N 
HETATM   24  H18 UNL     1      21.803   2.241  52.909  1.00  0.00     0.167 HD
BRANCH  23  25
HETATM   25  C13 UNL     1      20.445   0.797  52.121  1.00  0.00     0.035 A 
HETATM   26  C14 UNL     1      20.181   1.162  50.815  1.00  0.00     0.032 A 
HETATM   27  C15 UNL     1      19.008   0.673  50.279  1.00  0.00     0.046 A 
HETATM   28  C16 UNL     1      18.084  -0.132  50.906  1.00  0.00     0.138 A 
HETATM   29  F1  UNL     1      16.979  -0.520  50.220  1.00  0.00    -0.204 F 
HETATM   30  C17 UNL     1      18.392  -0.478  52.230  1.00  0.00     0.074 A 
HETATM   31 CL1  UNL     1      17.191  -1.501  52.995  1.00  0.00    -0.081 Cl
HETATM   32  C18 UNL     1      19.557  -0.008  52.800  1.00  0.00     0.056 A 
ENDBRANCH  23  25
ENDBRANCH   5  23
TORSDOF 6
ENDMDL
MODEL 8
REMARK VINA RESULT:      -8.1      3.581      5.891
REMARK  6 active torsions:
REMARK  status: ('A' for Active; 'I' for Inactive)
REMARK    1  A    between atoms: O1_2  and  C2_3 
REMARK    2  A    between atoms: C4_5  and  O2_6 
REMARK    3  A    between atoms: O2_6  and  C5_7 
REMARK    4  A    between atoms: C5_7  and  C6_8 
REMARK    5  A    between atoms: C12_16  and  N3_17 
REMARK    6  A    between atoms: N3_17  and  C13_18 
ROOT
HETATM    1  C2  UNL     1      24.161  -0.415  54.188  1.00  0.00     0.073 A 
HETATM    2  C3  UNL     1      23.545   0.109  53.083  1.00  0.00     0.074 A 
HETATM    3  C4  UNL     1      24.065   0.968  52.139  1.00  0.00     0.087 A 
HETATM    4  C11 UNL     1      25.399   1.313  52.403  1.00  0.00     0.072 A 
HETATM    5  C12 UNL     1      26.144   2.144  51.615  1.00  0.00     0.144 A 
HETATM    6  N4  UNL     1      27.435   2.444  51.906  1.00  0.00    -0.223 NA
HETATM    7  C19 UNL     1      28.051   1.953  52.969  1.00  0.00     0.236 A 
HETATM    8  N5  UNL     1      27.369   1.133  53.776  1.00  0.00    -0.241 NA
HETATM    9  C20 UNL     1      26.078   0.824  53.498  1.00  0.00     0.077 A 
HETATM   10  C21 UNL     1      25.458  -0.030  54.373  1.00  0.00     0.069 A 
ENDROOT
BRANCH   3  11
HETATM   11  O2  UNL     1      23.592   1.539  51.054  1.00  0.00    -0.350 OA
BRANCH  11  12
HETATM   12  C5  UNL     1      22.562   1.630  50.206  1.00  0.00     0.182 C 
BRANCH  12  13
HETATM   13  C6  UNL     1      21.209   1.920  50.776  1.00  0.00     0.030 C 
HETATM   14  C7  UNL     1      20.821   3.347  50.929  1.00  0.00     0.024 C 
HETATM   15  C8  UNL     1      19.486   3.378  51.687  1.00  0.00     0.110 C 
HETATM   16  N1  UNL     1      18.673   2.243  51.489  1.00  0.00    -0.243 NA
HETATM   17  N2  UNL     1      18.818   1.568  50.321  1.00  0.00    -0.352 N 
HETATM   18  H12 UNL     1      17.661   2.462  51.617  1.00  0.00     0.146 HD
HETATM   19  C9  UNL     1      17.836   0.563  50.057  1.00  0.00     0.164 C 
HETATM   20  C10 UNL     1      20.126   1.278  49.900  1.00  0.00     0.143 C 
ENDBRANCH  12  13
ENDBRANCH  11  12
ENDBRANCH   3  11
BRANCH   1  21
HETATM   21  O1  UNL     1      23.433  -1.267  55.001  1.00  0.00    -0.356 OA
HETATM   22  C1  UNL     1      22.059  -1.483  54.849  1.00  0.00     0.210 C 
ENDBRANCH   1  21
BRANCH   5  23
HETATM   23  N3  UNL     1      25.596   2.750  50.451  1.00  0.00    -0.340 N 
HETATM   24  H18 UNL     1      24.948   2.155  49.887  1.00  0.00     0.167 HD
BRANCH  23  25
HETATM   25  C13 UNL     1      25.853   4.085  49.978  1.00  0.00     0.035 A 
HETATM   26  C14 UNL     1      26.848   4.426  49.083  1.00  0.00     0.032 A 
HETATM   27  C15 UNL     1      26.946   5.768  48.776  1.00  0.00     0.046 A 
HETATM   28  C16 UNL     1      26.162   6.789  49.265  1.00  0.00     0.138 A 
HETATM   29  F1  UNL     1      26.403   8.057  48.850  1.00  0.00    -0.204 F 
HETATM   30  C17 UNL     1      25.165   6.396  50.171  1.00  0.00     0.074 A 
HETATM   31 CL1  UNL     1      24.190   7.723  50.773  1.00  0.00    -0.081 Cl
HETATM   32  C18 UNL     1      25.036   5.063  50.503  1.00  0.00     0.056 A 
ENDBRANCH  23  25
ENDBRANCH   5  23
TORSDOF 6
ENDMDL
MODEL 9
REMARK VINA RESULT:      -8.1      2.389      3.512
REMARK  6 active torsions:
REMARK  status: ('A' for Active; 'I' for Inactive)
REMARK    1  A    between atoms: O1_2  and  C2_3 
REMARK    2  A    between atoms: C4_5  and  O2_6 
REMARK    3  A    between atoms: O2_6  and  C5_7 
REMARK    4  A    between atoms: C5_7  and  C6_8 
REMARK    5  A    between atoms: C12_16  and  N3_17 
REMARK    6  A    between atoms: N3_17  and  C13_18 
ROOT
HETATM    1  C2  UNL     1      21.429   2.081  48.652  1.00  0.00     0.073 A 
HETATM    2  C3  UNL     1      22.672   2.628  48.830  1.00  0.00     0.074 A 
HETATM    3  C4  UNL     1      23.520   2.493  49.909  1.00  0.00     0.087 A 
HETATM    4  C11 UNL     1      22.981   1.682  50.918  1.00  0.00     0.072 A 
HETATM    5  C12 UNL     1      23.625   1.386  52.087  1.00  0.00     0.144 A 
HETATM    6  N4  UNL     1      23.067   0.589  53.032  1.00  0.00    -0.223 NA
HETATM    7  C19 UNL     1      21.867   0.051  52.884  1.00  0.00     0.236 A 
HETATM    8  N5  UNL     1      21.191   0.307  51.758  1.00  0.00    -0.241 NA
HETATM    9  C20 UNL     1      21.736   1.102  50.804  1.00  0.00     0.077 A 
HETATM   10  C21 UNL     1      20.978   1.304  49.680  1.00  0.00     0.069 A 
ENDROOT
BRANCH   3  11
HETATM   11  O2  UNL     1      24.713   2.957  50.205  1.00  0.00    -0.350 OA
BRANCH  11  12
HETATM   12  C5  UNL     1      25.870   3.429  49.730  1.00  0.00     0.182 C 
BRANCH  12  13
HETATM   13  C6  UNL     1      25.882   4.812  49.158  1.00  0.00     0.030 C 
HETATM   14  C7  UNL     1      25.274   5.896  49.973  1.00  0.00     0.024 C 
HETATM   15  C8  UNL     1      25.251   7.162  49.105  1.00  0.00     0.110 C 
HETATM   16  N1  UNL     1      26.280   7.232  48.142  1.00  0.00    -0.243 NA
HETATM   17  N2  UNL     1      27.432   6.569  48.413  1.00  0.00    -0.352 N 
HETATM   18  H12 UNL     1      26.518   8.217  47.898  1.00  0.00     0.146 HD
HETATM   19  C9  UNL     1      28.526   6.836  47.531  1.00  0.00     0.164 C 
HETATM   20  C10 UNL     1      27.325   5.249  48.880  1.00  0.00     0.143 C 
ENDBRANCH  12  13
ENDBRANCH  11  12
ENDBRANCH   3  11
BRANCH   1  21
HETATM   21  O1  UNL     1      20.756   2.356  47.473  1.00  0.00    -0.356 OA
HETATM   22  C1  UNL     1      20.782   3.610  46.851  1.00  0.00     0.210 C 
ENDBRANCH   1  21
BRANCH   5  23
HETATM   23  N3  UNL     1      24.913   1.912  52.376  1.00  0.00    -0.340 N 
HETATM   24  H18 UNL     1      24.999   2.953  52.347  1.00  0.00     0.167 HD
BRANCH  23  25
HETATM   25  C13 UNL     1      26.096   1.156  52.693  1.00  0.00     0.035 A 
HETATM   26  C14 UNL     1      26.275  -0.184  52.411  1.00  0.00     0.032 A 
HETATM   27  C15 UNL     1      27.474  -0.730  52.822  1.00  0.00     0.046 A 
HETATM   28  C16 UNL     1      28.498  -0.082  53.475  1.00  0.00     0.138 A 
HETATM   29  F1  UNL     1      29.612  -0.782  53.804  1.00  0.00    -0.204 F 
HETATM   30  C17 UNL     1      28.273   1.277  53.741  1.00  0.00     0.074 A 
HETATM   31 CL1  UNL     1      29.598   2.065  54.577  1.00  0.00    -0.081 Cl
HETATM   32  C18 UNL     1      27.086   1.858  53.346  1.00  0.00     0.056 A 
ENDBRANCH  23  25
ENDBRANCH   5  23
TORSDOF 6
ENDMDL
