MODEL 1
REMARK VINA RESULT:      -8.6      0.000      0.000
REMARK  0 active torsions:
REMARK  status: ('A' for Active; 'I' for Inactive)
ROOT
HETATM    1  C1  UNL     1      21.147   0.565  50.168  1.00  0.00     0.014 C 
HETATM    2  C2  UNL     1      21.945   1.409  50.853  1.00  0.00     0.004 C 
HETATM    3  C3  UNL     1      22.683   2.603  50.271  1.00  0.00     0.040 C 
HETATM    4  C4  UNL     1      24.144   2.422  50.431  1.00  0.00    -0.028 C 
HETATM    5  C5  UNL     1      25.299   2.824  50.926  1.00  0.00    -0.011 C 
HETATM    6  C6  UNL     1      26.746   2.720  51.136  1.00  0.00     0.149 C 
HETATM    7  N1  UNL     1      27.068   2.563  52.565  1.00  0.00    -0.363 N 
HETATM    8  C7  UNL     1      26.668   1.305  53.169  1.00  0.00     0.176 C 
HETATM    9  N2  UNL     1      25.504   1.106  53.179  1.00  0.00    -0.384 NA
HETATM   10  C8  UNL     1      24.227   1.284  52.989  1.00  0.00     0.296 C 
HETATM   11  N3  UNL     1      23.025   1.682  52.959  1.00  0.00    -0.257 NA
HETATM   12  C9  UNL     1      21.955   0.975  52.250  1.00  0.00     0.096 C 
HETATM   13  C10 UNL     1      22.185  -0.483  52.487  1.00  0.00     0.103 C 
HETATM   14  C11 UNL     1      22.437  -0.668  53.967  1.00  0.00     0.070 C 
HETATM   15  C12 UNL     1      21.489  -0.203  54.764  1.00  0.00     0.167 C 
HETATM   16  O1  UNL     1      20.584   0.719  54.258  1.00  0.00    -0.353 OA
HETATM   17  C13 UNL     1      20.687   1.343  52.995  1.00  0.00     0.155 C 
HETATM   18  C14 UNL     1      19.450   1.026  52.222  1.00  0.00     0.042 C 
HETATM   19  O2  UNL     1      23.597  -1.282  54.275  1.00  0.00    -0.351 OA
HETATM   20  C15 UNL     1      24.339  -1.285  55.477  1.00  0.00     0.201 C 
HETATM   21  C16 UNL     1      25.553  -0.369  55.320  1.00  0.00     0.195 C 
HETATM   22  O3  UNL     1      26.323  -0.801  54.289  1.00  0.00    -0.381 OA
HETATM   23  C17 UNL     1      27.294   0.070  53.822  1.00  0.00     0.259 C 
HETATM   24  H9  UNL     1      27.444   2.825  53.499  1.00  0.00     0.162 HD
ENDROOT
TORSDOF 0
ENDMDL
MODEL 2
REMARK VINA RESULT:      -8.5      2.026      4.474
REMARK  0 active torsions:
REMARK  status: ('A' for Active; 'I' for Inactive)
ROOT
HETATM    1  C1  UNL     1      25.424   3.602  49.333  1.00  0.00     0.014 C 
HETATM    2  C2  UNL     1      25.515   3.231  50.626  1.00  0.00     0.004 C 
HETATM    3  C3  UNL     1      26.747   2.649  51.299  1.00  0.00     0.040 C 
HETATM    4  C4  UNL     1      26.455   1.284  51.795  1.00  0.00    -0.028 C 
HETATM    5  C5  UNL     1      26.354   0.427  52.794  1.00  0.00    -0.011 C 
HETATM    6  C6  UNL     1      26.083  -0.893  53.370  1.00  0.00     0.149 C 
HETATM    7  N1  UNL     1      24.956  -0.840  54.317  1.00  0.00    -0.363 N 
HETATM    8  C7  UNL     1      23.652  -0.583  53.734  1.00  0.00     0.176 C 
HETATM    9  N2  UNL     1      23.543   0.464  53.201  1.00  0.00    -0.384 NA
HETATM   10  C8  UNL     1      23.847   1.648  52.747  1.00  0.00     0.296 C 
HETATM   11  N3  UNL     1      24.192   2.854  52.571  1.00  0.00    -0.257 NA
HETATM   12  C9  UNL     1      24.224   3.504  51.258  1.00  0.00     0.096 C 
HETATM   13  C10 UNL     1      23.014   3.026  50.522  1.00  0.00     0.103 C 
HETATM   14  C11 UNL     1      21.833   3.152  51.460  1.00  0.00     0.070 C 
HETATM   15  C12 UNL     1      21.636   4.359  51.961  1.00  0.00     0.167 C 
HETATM   16  O1  UNL     1      22.678   5.276  51.926  1.00  0.00    -0.353 OA
HETATM   17  C13 UNL     1      24.006   4.975  51.549  1.00  0.00     0.155 C 
HETATM   18  C14 UNL     1      24.366   5.852  50.395  1.00  0.00     0.042 C 
HETATM   19  O2  UNL     1      21.141   2.013  51.659  1.00  0.00    -0.351 OA
HETATM   20  C15 UNL     1      20.268   1.644  52.707  1.00  0.00     0.201 C 
HETATM   21  C16 UNL     1      20.989   0.670  53.641  1.00  0.00     0.195 C 
HETATM   22  O3  UNL     1      21.379  -0.427  52.945  1.00  0.00    -0.381 OA
HETATM   23  C17 UNL     1      22.293  -1.268  53.560  1.00  0.00     0.259 C 
HETATM   24  H9  UNL     1      24.473  -0.880  55.238  1.00  0.00     0.162 HD
ENDROOT
TORSDOF 0
ENDMDL
MODEL 3
REMARK VINA RESULT:      -8.0      1.994      4.085
REMARK  0 active torsions:
REMARK  status: ('A' for Active; 'I' for Inactive)
ROOT
HETATM    1  C1  UNL     1      20.106   2.399  52.681  1.00  0.00     0.014 C 
HETATM    2  C2  UNL     1      20.900   1.310  52.644  1.00  0.00     0.004 C 
HETATM    3  C3  UNL     1      20.688   0.028  53.432  1.00  0.00     0.040 C 
HETATM    4  C4  UNL     1      21.832  -0.199  54.345  1.00  0.00    -0.028 C 
HETATM    5  C5  UNL     1      22.850  -0.940  54.741  1.00  0.00    -0.011 C 
HETATM    6  C6  UNL     1      23.998  -1.243  55.599  1.00  0.00     0.149 C 
HETATM    7  N1  UNL     1      25.244  -1.322  54.816  1.00  0.00    -0.363 N 
HETATM    8  C7  UNL     1      25.716  -0.070  54.252  1.00  0.00     0.176 C 
HETATM    9  N2  UNL     1      24.989   0.427  53.466  1.00  0.00    -0.384 NA
HETATM   10  C8  UNL     1      23.949   0.612  52.702  1.00  0.00     0.296 C 
HETATM   11  N3  UNL     1      23.014   0.551  51.850  1.00  0.00    -0.257 NA
HETATM   12  C9  UNL     1      21.985   1.583  51.701  1.00  0.00     0.096 C 
HETATM   13  C10 UNL     1      22.681   2.897  51.857  1.00  0.00     0.103 C 
HETATM   14  C11 UNL     1      23.921   2.859  50.992  1.00  0.00     0.070 C 
HETATM   15  C12 UNL     1      23.713   2.583  49.715  1.00  0.00     0.167 C 
HETATM   16  O1  UNL     1      22.513   1.988  49.348  1.00  0.00    -0.353 OA
HETATM   17  C13 UNL     1      21.549   1.489  50.252  1.00  0.00     0.155 C 
HETATM   18  C14 UNL     1      20.261   2.198  49.989  1.00  0.00     0.042 C 
HETATM   19  O2  UNL     1      25.076   3.111  51.641  1.00  0.00    -0.351 OA
HETATM   20  C15 UNL     1      26.408   2.797  51.292  1.00  0.00     0.201 C 
HETATM   21  C16 UNL     1      26.882   1.614  52.136  1.00  0.00     0.195 C 
HETATM   22  O3  UNL     1      26.802   1.929  53.453  1.00  0.00    -0.381 OA
HETATM   23  C17 UNL     1      26.909   0.884  54.357  1.00  0.00     0.259 C 
HETATM   24  H9  UNL     1      26.076  -1.766  54.377  1.00  0.00     0.162 HD
ENDROOT
TORSDOF 0
ENDMDL
MODEL 4
REMARK VINA RESULT:      -8.0      2.412      5.712
REMARK  0 active torsions:
REMARK  status: ('A' for Active; 'I' for Inactive)
ROOT
HETATM    1  C1  UNL     1      25.530  -1.546  53.424  1.00  0.00     0.014 C 
HETATM    2  C2  UNL     1      24.710  -0.478  53.501  1.00  0.00     0.004 C 
HETATM    3  C3  UNL     1      23.239  -0.512  53.879  1.00  0.00     0.040 C 
HETATM    4  C4  UNL     1      22.415  -0.012  52.754  1.00  0.00    -0.028 C 
HETATM    5  C5  UNL     1      21.558   0.864  52.264  1.00  0.00    -0.011 C 
HETATM    6  C6  UNL     1      20.714   1.425  51.206  1.00  0.00     0.149 C 
HETATM    7  N1  UNL     1      21.126   2.799  50.868  1.00  0.00    -0.363 N 
HETATM    8  C7  UNL     1      22.415   2.930  50.214  1.00  0.00     0.176 C 
HETATM    9  N2  UNL     1      23.338   2.572  50.857  1.00  0.00    -0.384 NA
HETATM   10  C8  UNL     1      24.027   2.093  51.854  1.00  0.00     0.296 C 
HETATM   11  N3  UNL     1      24.586   1.840  52.963  1.00  0.00    -0.257 NA
HETATM   12  C9  UNL     1      25.497   0.711  53.171  1.00  0.00     0.096 C 
HETATM   13  C10 UNL     1      26.345   0.622  51.942  1.00  0.00     0.103 C 
HETATM   14  C11 UNL     1      26.841   2.016  51.631  1.00  0.00     0.070 C 
HETATM   15  C12 UNL     1      27.493   2.616  52.613  1.00  0.00     0.167 C 
HETATM   16  O1  UNL     1      27.342   2.136  53.907  1.00  0.00    -0.353 OA
HETATM   17  C13 UNL     1      26.409   1.151  54.299  1.00  0.00     0.155 C 
HETATM   18  C14 UNL     1      27.164   0.016  54.907  1.00  0.00     0.042 C 
HETATM   19  O2  UNL     1      26.550   2.461  50.392  1.00  0.00    -0.351 OA
HETATM   20  C15 UNL     1      26.494   3.778  49.883  1.00  0.00     0.201 C 
HETATM   21  C16 UNL     1      25.031   4.195  49.733  1.00  0.00     0.195 C 
HETATM   22  O3  UNL     1      24.393   3.339  48.897  1.00  0.00    -0.381 OA
HETATM   23  C17 UNL     1      23.008   3.392  48.880  1.00  0.00     0.259 C 
HETATM   24  H9  UNL     1      21.053   3.835  50.803  1.00  0.00     0.162 HD
ENDROOT
TORSDOF 0
ENDMDL
MODEL 5
REMARK VINA RESULT:      -7.8      2.537      6.132
REMARK  0 active torsions:
REMARK  status: ('A' for Active; 'I' for Inactive)
ROOT
HETATM    1  C1  UNL     1      25.430  -0.311  52.866  1.00  0.00     0.014 C 
HETATM    2  C2  UNL     1      24.261  -0.021  53.472  1.00  0.00     0.004 C 
HETATM    3  C3  UNL     1      23.608  -0.830  54.579  1.00  0.00     0.040 C 
HETATM    4  C4  UNL     1      22.290  -1.334  54.128  1.00  0.00    -0.028 C 
HETATM    5  C5  UNL     1      20.978  -1.385  54.261  1.00  0.00    -0.011 C 
HETATM    6  C6  UNL     1      19.636  -1.835  53.883  1.00  0.00     0.149 C 
HETATM    7  N1  UNL     1      18.779  -0.698  53.504  1.00  0.00    -0.363 N 
HETATM    8  C7  UNL     1      19.138  -0.019  52.273  1.00  0.00     0.176 C 
HETATM    9  N2  UNL     1      20.200   0.495  52.280  1.00  0.00    -0.384 NA
HETATM   10  C8  UNL     1      21.370   0.891  52.698  1.00  0.00     0.296 C 
HETATM   11  N3  UNL     1      22.359   1.404  53.301  1.00  0.00    -0.257 NA
HETATM   12  C9  UNL     1      23.750   1.216  52.879  1.00  0.00     0.096 C 
HETATM   13  C10 UNL     1      23.751   1.283  51.386  1.00  0.00     0.103 C 
HETATM   14  C11 UNL     1      22.940   2.496  50.985  1.00  0.00     0.070 C 
HETATM   15  C12 UNL     1      23.340   3.642  51.510  1.00  0.00     0.167 C 
HETATM   16  O1  UNL     1      24.161   3.613  52.630  1.00  0.00    -0.353 OA
HETATM   17  C13 UNL     1      24.475   2.453  53.372  1.00  0.00     0.155 C 
HETATM   18  C14 UNL     1      25.959   2.292  53.369  1.00  0.00     0.042 C 
HETATM   19  O2  UNL     1      21.914   2.244  50.147  1.00  0.00    -0.351 OA
HETATM   20  C15 UNL     1      20.752   2.997  49.872  1.00  0.00     0.201 C 
HETATM   21  C16 UNL     1      19.557   2.351  50.575  1.00  0.00     0.195 C 
HETATM   22  O3  UNL     1      19.406   1.074  50.141  1.00  0.00    -0.381 OA
HETATM   23  C17 UNL     1      18.567   0.255  50.879  1.00  0.00     0.259 C 
HETATM   24  H9  UNL     1      17.997  -0.016  53.584  1.00  0.00     0.162 HD
ENDROOT
TORSDOF 0
ENDMDL
MODEL 6
REMARK VINA RESULT:      -7.7      1.677      2.702
REMARK  0 active torsions:
REMARK  status: ('A' for Active; 'I' for Inactive)
ROOT
HETATM    1  C1  UNL     1      22.649   2.523  47.883  1.00  0.00     0.014 C 
HETATM    2  C2  UNL     1      23.136   2.944  49.068  1.00  0.00     0.004 C 
HETATM    3  C3  UNL     1      24.405   3.754  49.270  1.00  0.00     0.040 C 
HETATM    4  C4  UNL     1      25.369   2.987  50.093  1.00  0.00    -0.028 C 
HETATM    5  C5  UNL     1      26.095   2.866  51.188  1.00  0.00    -0.011 C 
HETATM    6  C6  UNL     1      27.044   2.175  52.065  1.00  0.00     0.149 C 
HETATM    7  N1  UNL     1      26.430   1.849  53.365  1.00  0.00    -0.363 N 
HETATM    8  C7  UNL     1      25.385   0.843  53.335  1.00  0.00     0.176 C 
HETATM    9  N2  UNL     1      24.431   1.134  52.704  1.00  0.00    -0.384 NA
HETATM   10  C8  UNL     1      23.623   1.824  51.948  1.00  0.00     0.296 C 
HETATM   11  N3  UNL     1      22.852   2.678  51.418  1.00  0.00    -0.257 NA
HETATM   12  C9  UNL     1      22.215   2.493  50.111  1.00  0.00     0.096 C 
HETATM   13  C10 UNL     1      21.793   1.060  50.047  1.00  0.00     0.103 C 
HETATM   14  C11 UNL     1      21.088   0.735  51.345  1.00  0.00     0.070 C 
HETATM   15  C12 UNL     1      20.063   1.517  51.642  1.00  0.00     0.167 C 
HETATM   16  O1  UNL     1      19.953   2.746  51.006  1.00  0.00    -0.353 OA
HETATM   17  C13 UNL     1      20.945   3.319  50.180  1.00  0.00     0.155 C 
HETATM   18  C14 UNL     1      20.341   3.561  48.836  1.00  0.00     0.042 C 
HETATM   19  O2  UNL     1      21.602  -0.308  52.027  1.00  0.00    -0.351 OA
HETATM   20  C15 UNL     1      21.484  -0.657  53.391  1.00  0.00     0.201 C 
HETATM   21  C16 UNL     1      22.788  -0.309  54.111  1.00  0.00     0.195 C 
HETATM   22  O3  UNL     1      23.820  -0.980  53.540  1.00  0.00    -0.381 OA
HETATM   23  C17 UNL     1      25.099  -0.563  53.871  1.00  0.00     0.259 C 
HETATM   24  H9  UNL     1      26.270   1.902  54.391  1.00  0.00     0.162 HD
ENDROOT
TORSDOF 0
ENDMDL
MODEL 7
REMARK VINA RESULT:      -7.7      2.809      4.670
REMARK  0 active torsions:
REMARK  status: ('A' for Active; 'I' for Inactive)
ROOT
HETATM    1  C1  UNL     1      20.881   0.193  54.367  1.00  0.00     0.014 C 
HETATM    2  C2  UNL     1      21.667   0.241  53.273  1.00  0.00     0.004 C 
HETATM    3  C3  UNL     1      23.011  -0.448  53.113  1.00  0.00     0.040 C 
HETATM    4  C4  UNL     1      24.074   0.561  52.896  1.00  0.00    -0.028 C 
HETATM    5  C5  UNL     1      25.025   1.075  52.140  1.00  0.00    -0.011 C 
HETATM    6  C6  UNL     1      26.093   2.034  51.843  1.00  0.00     0.149 C 
HETATM    7  N1  UNL     1      25.778   2.830  50.643  1.00  0.00    -0.363 N 
HETATM    8  C7  UNL     1      24.674   3.763  50.776  1.00  0.00     0.176 C 
HETATM    9  N2  UNL     1      23.626   3.267  50.997  1.00  0.00    -0.384 NA
HETATM   10  C8  UNL     1      22.723   2.354  51.221  1.00  0.00     0.296 C 
HETATM   11  N3  UNL     1      21.924   1.372  51.192  1.00  0.00    -0.257 NA
HETATM   12  C9  UNL     1      20.983   1.061  52.271  1.00  0.00     0.096 C 
HETATM   13  C10 UNL     1      20.440   2.370  52.747  1.00  0.00     0.103 C 
HETATM   14  C11 UNL     1      20.036   3.165  51.525  1.00  0.00     0.070 C 
HETATM   15  C12 UNL     1      19.179   2.563  50.717  1.00  0.00     0.167 C 
HETATM   16  O1  UNL     1      19.026   1.186  50.812  1.00  0.00    -0.353 OA
HETATM   17  C13 UNL     1      19.839   0.335  51.591  1.00  0.00     0.155 C 
HETATM   18  C14 UNL     1      18.958  -0.386  52.557  1.00  0.00     0.042 C 
HETATM   19  O2  UNL     1      20.607   4.382  51.424  1.00  0.00    -0.351 OA
HETATM   20  C15 UNL     1      20.785   5.217  50.299  1.00  0.00     0.201 C 
HETATM   21  C16 UNL     1      22.246   5.150  49.852  1.00  0.00     0.195 C 
HETATM   22  O3  UNL     1      23.055   5.547  50.867  1.00  0.00    -0.381 OA
HETATM   23  C17 UNL     1      24.406   5.270  50.738  1.00  0.00     0.259 C 
HETATM   24  H9  UNL     1      25.869   3.167  49.663  1.00  0.00     0.162 HD
ENDROOT
TORSDOF 0
ENDMDL
MODEL 8
REMARK VINA RESULT:      -7.5      3.091      6.033
REMARK  0 active torsions:
REMARK  status: ('A' for Active; 'I' for Inactive)
ROOT
HETATM    1  C1  UNL     1      24.807   2.119  50.880  1.00  0.00     0.014 C 
HETATM    2  C2  UNL     1      23.974   1.990  51.933  1.00  0.00     0.004 C 
HETATM    3  C3  UNL     1      24.251   1.187  53.192  1.00  0.00     0.040 C 
HETATM    4  C4  UNL     1      23.248   0.105  53.333  1.00  0.00    -0.028 C 
HETATM    5  C5  UNL     1      22.273  -0.469  54.011  1.00  0.00    -0.011 C 
HETATM    6  C6  UNL     1      21.255  -1.501  54.229  1.00  0.00     0.149 C 
HETATM    7  N1  UNL     1      19.904  -0.915  54.279  1.00  0.00    -0.363 N 
HETATM    8  C7  UNL     1      19.403  -0.373  53.029  1.00  0.00     0.176 C 
HETATM    9  N2  UNL     1      20.023   0.533  52.596  1.00  0.00    -0.384 NA
HETATM   10  C8  UNL     1      20.943   1.451  52.487  1.00  0.00     0.296 C 
HETATM   11  N3  UNL     1      21.736   2.428  52.623  1.00  0.00    -0.257 NA
HETATM   12  C9  UNL     1      22.772   2.773  51.645  1.00  0.00     0.096 C 
HETATM   13  C10 UNL     1      22.160   2.574  50.296  1.00  0.00     0.103 C 
HETATM   14  C11 UNL     1      20.803   3.243  50.309  1.00  0.00     0.070 C 
HETATM   15  C12 UNL     1      20.807   4.522  50.642  1.00  0.00     0.167 C 
HETATM   16  O1  UNL     1      21.914   5.037  51.305  1.00  0.00    -0.353 OA
HETATM   17  C13 UNL     1      22.981   4.266  51.814  1.00  0.00     0.155 C 
HETATM   18  C14 UNL     1      24.242   4.746  51.175  1.00  0.00     0.042 C 
HETATM   19  O2  UNL     1      19.770   2.441  49.981  1.00  0.00    -0.351 OA
HETATM   20  C15 UNL     1      18.389   2.575  50.246  1.00  0.00     0.201 C 
HETATM   21  C16 UNL     1      18.000   1.618  51.374  1.00  0.00     0.195 C 
HETATM   22  O3  UNL     1      18.290   0.343  51.014  1.00  0.00    -0.381 OA
HETATM   23  C17 UNL     1      18.278  -0.612  52.019  1.00  0.00     0.259 C 
HETATM   24  H9  UNL     1      18.998  -0.624  54.701  1.00  0.00     0.162 HD
ENDROOT
TORSDOF 0
ENDMDL
MODEL 9
REMARK VINA RESULT:      -7.3      4.202      6.261
REMARK  0 active torsions:
REMARK  status: ('A' for Active; 'I' for Inactive)
ROOT
HETATM    1  C1  UNL     1      25.218   2.184  52.497  1.00  0.00     0.014 C 
HETATM    2  C2  UNL     1      25.199   2.659  51.235  1.00  0.00     0.004 C 
HETATM    3  C3  UNL     1      26.336   2.564  50.232  1.00  0.00     0.040 C 
HETATM    4  C4  UNL     1      26.787   3.921  49.847  1.00  0.00    -0.028 C 
HETATM    5  C5  UNL     1      26.971   4.846  48.925  1.00  0.00    -0.011 C 
HETATM    6  C6  UNL     1      27.393   6.170  48.458  1.00  0.00     0.149 C 
HETATM    7  N1  UNL     1      26.261   6.918  47.882  1.00  0.00    -0.363 N 
HETATM    8  C7  UNL     1      25.235   7.334  48.821  1.00  0.00     0.176 C 
HETATM    9  N2  UNL     1      24.668   6.451  49.361  1.00  0.00    -0.384 NA
HETATM   10  C8  UNL     1      24.322   5.241  49.702  1.00  0.00     0.296 C 
HETATM   11  N3  UNL     1      23.929   4.038  49.765  1.00  0.00    -0.257 NA
HETATM   12  C9  UNL     1      23.886   3.264  51.009  1.00  0.00     0.096 C 
HETATM   13  C10 UNL     1      23.398   4.198  52.069  1.00  0.00     0.103 C 
HETATM   14  C11 UNL     1      22.184   4.915  51.519  1.00  0.00     0.070 C 
HETATM   15  C12 UNL     1      21.209   4.130  51.094  1.00  0.00     0.167 C 
HETATM   16  O1  UNL     1      21.494   2.800  50.818  1.00  0.00    -0.353 OA
HETATM   17  C13 UNL     1      22.790   2.240  50.790  1.00  0.00     0.155 C 
HETATM   18  C14 UNL     1      22.834   1.128  51.785  1.00  0.00     0.042 C 
HETATM   19  O2  UNL     1      22.262   6.261  51.534  1.00  0.00    -0.351 OA
HETATM   20  C15 UNL     1      21.550   7.227  50.790  1.00  0.00     0.201 C 
HETATM   21  C16 UNL     1      22.457   7.780  49.689  1.00  0.00     0.195 C 
HETATM   22  O3  UNL     1      23.564   8.334  50.242  1.00  0.00    -0.381 OA
HETATM   23  C17 UNL     1      24.619   8.615  49.389  1.00  0.00     0.259 C 
HETATM   24  H9  UNL     1      25.690   7.378  47.144  1.00  0.00     0.162 HD
ENDROOT
TORSDOF 0
ENDMDL
