MODEL 1
REMARK VINA RESULT:      -7.8      0.000      0.000
REMARK  5 active torsions:
REMARK  status: ('A' for Active; 'I' for Inactive)
REMARK    1  A    between atoms: O1_2  and  C2_3 
REMARK    2  A    between atoms: C5_6  and  N1_7 
REMARK    3  A    between atoms: N1_7  and  C6_8 
REMARK    4  A    between atoms: C7_10  and  N3_11 
REMARK    5  A    between atoms: C10_14  and  N4_15 
ROOT
HETATM    1  C6  UNL     1      23.723   3.320  51.578  1.00  0.00     0.154 C 
HETATM    2  N2  UNL     1      24.340   4.463  51.929  1.00  0.00    -0.233 NA
HETATM    3  C7  UNL     1      23.648   5.599  51.085  1.00  0.00     0.363 C 
HETATM    4  C8  UNL     1      22.237   5.750  51.405  1.00  0.00     0.142 C 
HETATM    5  C9  UNL     1      21.062   4.949  50.924  1.00  0.00     0.088 C 
HETATM    6  C10 UNL     1      21.336   3.557  51.596  1.00  0.00     0.040 C 
HETATM    7  C16 UNL     1      22.523   4.061  52.154  1.00  0.00     0.097 C 
HETATM    8  N5  UNL     1      22.157   5.305  52.812  1.00  0.00    -0.376 N 
HETATM    9  H23 UNL     1      21.973   5.677  53.760  1.00  0.00     0.160 HD
ENDROOT
BRANCH   1  10
HETATM   10  N1  UNL     1      23.826   2.011  51.086  1.00  0.00    -0.339 N 
HETATM   11  H6  UNL     1      23.322   1.846  50.208  1.00  0.00     0.167 HD
BRANCH  10  12
HETATM   12  C5  UNL     1      24.608   1.288  51.977  1.00  0.00     0.035 A 
HETATM   13  C4  UNL     1      25.921   1.423  51.614  1.00  0.00     0.032 A 
HETATM   14  C3  UNL     1      26.902   0.776  52.377  1.00  0.00     0.041 A 
HETATM   15  C2  UNL     1      26.624   0.004  53.482  1.00  0.00     0.090 A 
HETATM   16  C18 UNL     1      25.289  -0.095  53.800  1.00  0.00     0.069 A 
HETATM   17  C17 UNL     1      24.326   0.536  53.056  1.00  0.00     0.056 A 
HETATM   18 CL1  UNL     1      24.770  -1.030  55.162  1.00  0.00    -0.081 Cl
BRANCH  15  19
HETATM   19  O1  UNL     1      27.559  -0.650  54.261  1.00  0.00    -0.354 OA
HETATM   20  C1  UNL     1      28.818  -0.164  54.615  1.00  0.00     0.210 C 
ENDBRANCH  15  19
ENDBRANCH  10  12
ENDBRANCH   1  10
BRANCH   3  21
HETATM   21  N3  UNL     1      24.356   6.750  51.632  1.00  0.00     0.105 N 
HETATM   22  H8  UNL     1      24.533   7.424  50.847  1.00  0.00     0.315 HD
HETATM   23  H9  UNL     1      23.633   7.242  52.230  1.00  0.00     0.315 HD
ENDBRANCH   3  21
BRANCH   6  24
HETATM   24  N4  UNL     1      20.694   2.284  51.582  1.00  0.00    -0.382 N 
HETATM   25  C11 UNL     1      20.397   1.515  52.768  1.00  0.00     0.123 C 
HETATM   26  C12 UNL     1      20.226   0.074  52.266  1.00  0.00     0.020 C 
HETATM   27  C13 UNL     1      18.920   0.050  51.485  1.00  0.00     0.003 C 
HETATM   28  C14 UNL     1      18.955   1.057  50.378  1.00  0.00     0.020 C 
HETATM   29  C15 UNL     1      20.316   1.740  50.281  1.00  0.00     0.123 C 
ENDBRANCH   6  24
TORSDOF 5
ENDMDL
MODEL 2
REMARK VINA RESULT:      -7.7      2.010      4.197
REMARK  5 active torsions:
REMARK  status: ('A' for Active; 'I' for Inactive)
REMARK    1  A    between atoms: O1_2  and  C2_3 
REMARK    2  A    between atoms: C5_6  and  N1_7 
REMARK    3  A    between atoms: N1_7  and  C6_8 
REMARK    4  A    between atoms: C7_10  and  N3_11 
REMARK    5  A    between atoms: C10_14  and  N4_15 
ROOT
HETATM    1  C6  UNL     1      22.982   0.952  53.005  1.00  0.00     0.154 C 
HETATM    2  N2  UNL     1      22.359  -0.131  53.504  1.00  0.00    -0.233 NA
HETATM    3  C7  UNL     1      20.972   0.385  54.045  1.00  0.00     0.363 C 
HETATM    4  C8  UNL     1      20.128   0.926  52.991  1.00  0.00     0.142 C 
HETATM    5  C9  UNL     1      20.161   2.283  52.351  1.00  0.00     0.088 C 
HETATM    6  C10 UNL     1      21.534   2.239  51.591  1.00  0.00     0.040 C 
HETATM    7  C16 UNL     1      21.765   0.945  52.088  1.00  0.00     0.097 C 
HETATM    8  N5  UNL     1      20.564   0.183  51.791  1.00  0.00    -0.376 N 
HETATM    9  H23 UNL     1      20.218  -0.523  51.117  1.00  0.00     0.160 HD
ENDROOT
BRANCH   1  10
HETATM   10  N1  UNL     1      24.113   1.781  53.000  1.00  0.00    -0.339 N 
HETATM   11  H6  UNL     1      23.911   2.776  52.857  1.00  0.00     0.167 HD
BRANCH  10  12
HETATM   12  C5  UNL     1      25.226   0.973  53.191  1.00  0.00     0.035 A 
HETATM   13  C4  UNL     1      26.104   1.628  54.014  1.00  0.00     0.032 A 
HETATM   14  C3  UNL     1      27.310   0.999  54.351  1.00  0.00     0.041 A 
HETATM   15  C2  UNL     1      27.671  -0.251  53.901  1.00  0.00     0.090 A 
HETATM   16  C18 UNL     1      26.751  -0.861  53.079  1.00  0.00     0.069 A 
HETATM   17  C17 UNL     1      25.571  -0.249  52.747  1.00  0.00     0.056 A 
HETATM   18 CL1  UNL     1      27.053  -2.436  52.427  1.00  0.00    -0.081 Cl
BRANCH  15  19
HETATM   19  O1  UNL     1      28.848  -0.906  54.208  1.00  0.00    -0.354 OA
HETATM   20  C1  UNL     1      30.078  -0.726  53.575  1.00  0.00     0.210 C 
ENDBRANCH  15  19
ENDBRANCH  10  12
ENDBRANCH   1  10
BRANCH   3  21
HETATM   21  N3  UNL     1      20.404  -0.891  54.463  1.00  0.00     0.105 N 
HETATM   22  H8  UNL     1      21.197  -1.540  54.688  1.00  0.00     0.315 HD
HETATM   23  H9  UNL     1      19.968  -0.687  55.407  1.00  0.00     0.315 HD
ENDBRANCH   3  21
BRANCH   6  24
HETATM   24  N4  UNL     1      22.278   3.157  50.794  1.00  0.00    -0.382 N 
HETATM   25  C11 UNL     1      22.485   4.545  51.139  1.00  0.00     0.123 C 
HETATM   26  C12 UNL     1      22.841   5.227  49.811  1.00  0.00     0.020 C 
HETATM   27  C13 UNL     1      24.234   4.737  49.442  1.00  0.00     0.003 C 
HETATM   28  C14 UNL     1      24.256   3.242  49.357  1.00  0.00     0.020 C 
HETATM   29  C15 UNL     1      22.865   2.647  49.559  1.00  0.00     0.123 C 
ENDBRANCH   6  24
TORSDOF 5
ENDMDL
MODEL 3
REMARK VINA RESULT:      -7.4      2.888      5.768
REMARK  5 active torsions:
REMARK  status: ('A' for Active; 'I' for Inactive)
REMARK    1  A    between atoms: O1_2  and  C2_3 
REMARK    2  A    between atoms: C5_6  and  N1_7 
REMARK    3  A    between atoms: N1_7  and  C6_8 
REMARK    4  A    between atoms: C7_10  and  N3_11 
REMARK    5  A    between atoms: C10_14  and  N4_15 
ROOT
HETATM    1  C6  UNL     1      22.874   2.471  50.927  1.00  0.00     0.154 C 
HETATM    2  N2  UNL     1      22.315   3.634  50.548  1.00  0.00    -0.233 NA
HETATM    3  C7  UNL     1      22.046   4.432  51.880  1.00  0.00     0.363 C 
HETATM    4  C8  UNL     1      23.270   4.750  52.598  1.00  0.00     0.142 C 
HETATM    5  C9  UNL     1      24.086   3.885  53.514  1.00  0.00     0.088 C 
HETATM    6  C10 UNL     1      24.639   2.807  52.516  1.00  0.00     0.040 C 
HETATM    7  C16 UNL     1      23.937   3.421  51.465  1.00  0.00     0.097 C 
HETATM    8  N5  UNL     1      24.282   4.831  51.525  1.00  0.00    -0.376 N 
HETATM    9  H23 UNL     1      24.889   5.521  51.048  1.00  0.00     0.160 HD
ENDROOT
BRANCH   1  10
HETATM   10  N1  UNL     1      22.844   1.069  50.902  1.00  0.00    -0.339 N 
HETATM   11  H6  UNL     1      23.706   0.630  50.562  1.00  0.00     0.167 HD
BRANCH  10  12
HETATM   12  C5  UNL     1      21.594   0.668  51.359  1.00  0.00     0.035 A 
HETATM   13  C4  UNL     1      21.712   0.285  52.669  1.00  0.00     0.032 A 
HETATM   14  C3  UNL     1      20.569  -0.161  53.345  1.00  0.00     0.041 A 
HETATM   15  C2  UNL     1      19.321  -0.237  52.769  1.00  0.00     0.090 A 
HETATM   16  C18 UNL     1      19.264   0.161  51.453  1.00  0.00     0.069 A 
HETATM   17  C17 UNL     1      20.379   0.597  50.787  1.00  0.00     0.056 A 
HETATM   18 CL1  UNL     1      17.768   0.124  50.581  1.00  0.00    -0.081 Cl
BRANCH  15  19
HETATM   19  O1  UNL     1      18.170  -0.670  53.399  1.00  0.00    -0.354 OA
HETATM   20  C1  UNL     1      17.742  -1.993  53.509  1.00  0.00     0.210 C 
ENDBRANCH  15  19
ENDBRANCH  10  12
ENDBRANCH   1  10
BRANCH   3  21
HETATM   21  N3  UNL     1      21.532   5.668  51.303  1.00  0.00     0.105 N 
HETATM   22  H8  UNL     1      20.840   5.413  50.556  1.00  0.00     0.315 HD
HETATM   23  H9  UNL     1      20.932   6.086  52.071  1.00  0.00     0.315 HD
ENDBRANCH   3  21
BRANCH   6  24
HETATM   24  N4  UNL     1      25.451   1.641  52.635  1.00  0.00    -0.382 N 
HETATM   25  C11 UNL     1      26.522   1.304  51.726  1.00  0.00     0.123 C 
HETATM   26  C12 UNL     1      26.729  -0.206  51.910  1.00  0.00     0.020 C 
HETATM   27  C13 UNL     1      27.355  -0.384  53.285  1.00  0.00     0.003 C 
HETATM   28  C14 UNL     1      26.481   0.221  54.339  1.00  0.00     0.020 C 
HETATM   29  C15 UNL     1      25.173   0.745  53.753  1.00  0.00     0.123 C 
ENDBRANCH   6  24
TORSDOF 5
ENDMDL
MODEL 4
REMARK VINA RESULT:      -7.4      1.588      1.933
REMARK  5 active torsions:
REMARK  status: ('A' for Active; 'I' for Inactive)
REMARK    1  A    between atoms: O1_2  and  C2_3 
REMARK    2  A    between atoms: C5_6  and  N1_7 
REMARK    3  A    between atoms: N1_7  and  C6_8 
REMARK    4  A    between atoms: C7_10  and  N3_11 
REMARK    5  A    between atoms: C10_14  and  N4_15 
ROOT
HETATM    1  C6  UNL     1      24.196   3.081  51.527  1.00  0.00     0.154 C 
HETATM    2  N2  UNL     1      24.592   4.366  51.494  1.00  0.00    -0.233 NA
HETATM    3  C7  UNL     1      23.468   5.139  50.704  1.00  0.00     0.363 C 
HETATM    4  C8  UNL     1      22.181   5.097  51.380  1.00  0.00     0.142 C 
HETATM    5  C9  UNL     1      21.149   4.008  51.392  1.00  0.00     0.088 C 
HETATM    6  C10 UNL     1      21.897   2.875  52.181  1.00  0.00     0.040 C 
HETATM    7  C16 UNL     1      23.029   3.700  52.288  1.00  0.00     0.097 C 
HETATM    8  N5  UNL     1      22.550   4.971  52.805  1.00  0.00    -0.376 N 
HETATM    9  H23 UNL     1      22.517   5.505  53.692  1.00  0.00     0.160 HD
ENDROOT
BRANCH   1  10
HETATM   10  N1  UNL     1      24.483   1.737  51.251  1.00  0.00    -0.339 N 
HETATM   11  H6  UNL     1      23.851   1.297  50.573  1.00  0.00     0.167 HD
BRANCH  10  12
HETATM   12  C5  UNL     1      25.583   1.376  52.017  1.00  0.00     0.035 A 
HETATM   13  C4  UNL     1      25.497   0.039  52.302  1.00  0.00     0.032 A 
HETATM   14  C3  UNL     1      26.508  -0.554  53.070  1.00  0.00     0.041 A 
HETATM   15  C2  UNL     1      27.596   0.133  53.561  1.00  0.00     0.090 A 
HETATM   16  C18 UNL     1      27.629   1.472  53.244  1.00  0.00     0.069 A 
HETATM   17  C17 UNL     1      26.642   2.055  52.493  1.00  0.00     0.056 A 
HETATM   18 CL1  UNL     1      28.930   2.478  53.786  1.00  0.00    -0.081 Cl
BRANCH  15  19
HETATM   19  O1  UNL     1      28.612  -0.412  54.321  1.00  0.00    -0.354 OA
HETATM   20  C1  UNL     1      29.776  -1.005  53.832  1.00  0.00     0.210 C 
ENDBRANCH  15  19
ENDBRANCH  10  12
ENDBRANCH   1  10
BRANCH   3  21
HETATM   21  N3  UNL     1      23.995   6.492  50.828  1.00  0.00     0.105 N 
HETATM   22  H8  UNL     1      23.371   7.024  51.483  1.00  0.00     0.315 HD
HETATM   23  H9  UNL     1      24.894   6.373  51.376  1.00  0.00     0.315 HD
ENDBRANCH   3  21
BRANCH   6  24
HETATM   24  N4  UNL     1      21.590   1.536  52.561  1.00  0.00    -0.382 N 
HETATM   25  C11 UNL     1      22.214   0.845  53.666  1.00  0.00     0.123 C 
HETATM   26  C12 UNL     1      21.992  -0.644  53.370  1.00  0.00     0.020 C 
HETATM   27  C13 UNL     1      20.507  -0.901  53.578  1.00  0.00     0.003 C 
HETATM   28  C14 UNL     1      19.693  -0.002  52.701  1.00  0.00     0.020 C 
HETATM   29  C15 UNL     1      20.576   0.835  51.779  1.00  0.00     0.123 C 
ENDBRANCH   6  24
TORSDOF 5
ENDMDL
MODEL 5
REMARK VINA RESULT:      -7.4      3.337      6.681
REMARK  5 active torsions:
REMARK  status: ('A' for Active; 'I' for Inactive)
REMARK    1  A    between atoms: O1_2  and  C2_3 
REMARK    2  A    between atoms: C5_6  and  N1_7 
REMARK    3  A    between atoms: N1_7  and  C6_8 
REMARK    4  A    between atoms: C7_10  and  N3_11 
REMARK    5  A    between atoms: C10_14  and  N4_15 
ROOT
HETATM    1  C6  UNL     1      24.045   1.206  52.194  1.00  0.00     0.154 C 
HETATM    2  N2  UNL     1      24.083   0.566  53.377  1.00  0.00    -0.233 NA
HETATM    3  C7  UNL     1      25.499  -0.121  53.447  1.00  0.00     0.363 C 
HETATM    4  C8  UNL     1      26.588   0.842  53.438  1.00  0.00     0.142 C 
HETATM    5  C9  UNL     1      27.212   1.561  52.278  1.00  0.00     0.088 C 
HETATM    6  C10 UNL     1      26.035   2.491  51.815  1.00  0.00     0.040 C 
HETATM    7  C16 UNL     1      25.216   1.953  52.822  1.00  0.00     0.097 C 
HETATM    8  N5  UNL     1      25.985   2.043  54.052  1.00  0.00    -0.376 N 
HETATM    9  H23 UNL     1      26.048   2.622  54.908  1.00  0.00     0.160 HD
ENDROOT
BRANCH   1  10
HETATM   10  N1  UNL     1      23.397   1.409  50.968  1.00  0.00    -0.339 N 
HETATM   11  H6  UNL     1      24.019   1.411  50.152  1.00  0.00     0.167 HD
BRANCH  10  12
HETATM   12  C5  UNL     1      22.042   1.565  51.231  1.00  0.00     0.035 A 
HETATM   13  C4  UNL     1      21.787   2.895  51.433  1.00  0.00     0.032 A 
HETATM   14  C3  UNL     1      20.474   3.295  51.715  1.00  0.00     0.041 A 
HETATM   15  C2  UNL     1      19.412   2.424  51.801  1.00  0.00     0.090 A 
HETATM   16  C18 UNL     1      19.728   1.101  51.588  1.00  0.00     0.069 A 
HETATM   17  C17 UNL     1      21.011   0.706  51.312  1.00  0.00     0.056 A 
HETATM   18 CL1  UNL     1      18.505  -0.124  51.662  1.00  0.00    -0.081 Cl
BRANCH  15  19
HETATM   19  O1  UNL     1      18.105   2.776  52.076  1.00  0.00    -0.354 OA
HETATM   20  C1  UNL     1      17.403   3.838  51.507  1.00  0.00     0.210 C 
ENDBRANCH  15  19
ENDBRANCH  10  12
ENDBRANCH   1  10
BRANCH   3  21
HETATM   21  N3  UNL     1      25.411  -0.685  54.788  1.00  0.00     0.105 N 
HETATM   22  H8  UNL     1      26.296  -0.446  55.299  1.00  0.00     0.315 HD
HETATM   23  H9  UNL     1      24.673  -0.097  55.271  1.00  0.00     0.315 HD
ENDBRANCH   3  21
BRANCH   6  24
HETATM   24  N4  UNL     1      25.844   3.433  50.762  1.00  0.00    -0.382 N 
HETATM   25  C11 UNL     1      24.958   4.571  50.844  1.00  0.00     0.123 C 
HETATM   26  C12 UNL     1      24.676   4.952  49.384  1.00  0.00     0.020 C 
HETATM   27  C13 UNL     1      25.970   5.542  48.843  1.00  0.00     0.003 C 
HETATM   28  C14 UNL     1      27.092   4.561  48.986  1.00  0.00     0.020 C 
HETATM   29  C15 UNL     1      26.603   3.223  49.532  1.00  0.00     0.123 C 
ENDBRANCH   6  24
TORSDOF 5
ENDMDL
MODEL 6
REMARK VINA RESULT:      -7.3      3.426      5.831
REMARK  5 active torsions:
REMARK  status: ('A' for Active; 'I' for Inactive)
REMARK    1  A    between atoms: O1_2  and  C2_3 
REMARK    2  A    between atoms: C5_6  and  N1_7 
REMARK    3  A    between atoms: N1_7  and  C6_8 
REMARK    4  A    between atoms: C7_10  and  N3_11 
REMARK    5  A    between atoms: C10_14  and  N4_15 
ROOT
HETATM    1  C6  UNL     1      24.980   1.919  52.857  1.00  0.00     0.154 C 
HETATM    2  N2  UNL     1      26.276   2.087  52.541  1.00  0.00    -0.233 NA
HETATM    3  C7  UNL     1      27.091   1.567  53.785  1.00  0.00     0.363 C 
HETATM    4  C8  UNL     1      26.884   0.149  54.036  1.00  0.00     0.142 C 
HETATM    5  C9  UNL     1      25.749  -0.535  54.740  1.00  0.00     0.088 C 
HETATM    6  C10 UNL     1      24.558  -0.266  53.753  1.00  0.00     0.040 C 
HETATM    7  C16 UNL     1      25.420   0.461  52.915  1.00  0.00     0.097 C 
HETATM    8  N5  UNL     1      26.577  -0.391  52.695  1.00  0.00    -0.376 N 
HETATM    9  H23 UNL     1      26.978  -1.014  51.972  1.00  0.00     0.160 HD
ENDROOT
BRANCH   1  10
HETATM   10  N1  UNL     1      23.706   2.485  53.008  1.00  0.00    -0.339 N 
HETATM   11  H6  UNL     1      23.322   2.422  53.957  1.00  0.00     0.167 HD
BRANCH  10  12
HETATM   12  C5  UNL     1      23.317   2.979  51.770  1.00  0.00     0.035 A 
HETATM   13  C4  UNL     1      23.047   4.316  51.901  1.00  0.00     0.032 A 
HETATM   14  C3  UNL     1      22.634   5.034  50.770  1.00  0.00     0.041 A 
HETATM   15  C2  UNL     1      22.482   4.472  49.522  1.00  0.00     0.090 A 
HETATM   16  C18 UNL     1      22.768   3.128  49.452  1.00  0.00     0.069 A 
HETATM   17  C17 UNL     1      23.172   2.423  50.555  1.00  0.00     0.056 A 
HETATM   18 CL1  UNL     1      22.626   2.270  47.954  1.00  0.00    -0.081 Cl
BRANCH  15  19
HETATM   19  O1  UNL     1      22.078   5.143  48.384  1.00  0.00    -0.354 OA
HETATM   20  C1  UNL     1      22.886   5.929  47.563  1.00  0.00     0.210 C 
ENDBRANCH  15  19
ENDBRANCH  10  12
ENDBRANCH   1  10
BRANCH   3  21
HETATM   21  N3  UNL     1      28.440   1.736  53.259  1.00  0.00     0.105 N 
HETATM   22  H8  UNL     1      28.369   1.854  52.219  1.00  0.00     0.315 HD
HETATM   23  H9  UNL     1      28.736   2.694  53.603  1.00  0.00     0.315 HD
ENDBRANCH   3  21
BRANCH   6  24
HETATM   24  N4  UNL     1      23.164  -0.563  53.745  1.00  0.00    -0.382 N 
HETATM   25  C11 UNL     1      22.372  -0.754  54.938  1.00  0.00     0.123 C 
HETATM   26  C12 UNL     1      21.144  -1.547  54.467  1.00  0.00     0.020 C 
HETATM   27  C13 UNL     1      20.312  -0.584  53.633  1.00  0.00     0.003 C 
HETATM   28  C14 UNL     1      21.125  -0.037  52.501  1.00  0.00     0.020 C 
HETATM   29  C15 UNL     1      22.511  -0.674  52.445  1.00  0.00     0.123 C 
ENDBRANCH   6  24
TORSDOF 5
ENDMDL
MODEL 7
REMARK VINA RESULT:      -7.3      7.814     10.892
REMARK  5 active torsions:
REMARK  status: ('A' for Active; 'I' for Inactive)
REMARK    1  A    between atoms: O1_2  and  C2_3 
REMARK    2  A    between atoms: C5_6  and  N1_7 
REMARK    3  A    between atoms: N1_7  and  C6_8 
REMARK    4  A    between atoms: C7_10  and  N3_11 
REMARK    5  A    between atoms: C10_14  and  N4_15 
ROOT
HETATM    1  C6  UNL     1      30.720   5.958  47.972  1.00  0.00     0.154 C 
HETATM    2  N2  UNL     1      31.241   4.754  48.270  1.00  0.00    -0.233 NA
HETATM    3  C7  UNL     1      32.674   4.735  47.615  1.00  0.00     0.363 C 
HETATM    4  C8  UNL     1      33.558   5.743  48.177  1.00  0.00     0.142 C 
HETATM    5  C9  UNL     1      33.650   7.208  47.864  1.00  0.00     0.088 C 
HETATM    6  C10 UNL     1      32.274   7.732  48.409  1.00  0.00     0.040 C 
HETATM    7  C16 UNL     1      31.925   6.423  48.781  1.00  0.00     0.097 C 
HETATM    8  N5  UNL     1      33.047   5.915  49.552  1.00  0.00    -0.376 N 
HETATM    9  H23 UNL     1      33.320   5.741  50.536  1.00  0.00     0.160 HD
ENDROOT
BRANCH   1  10
HETATM   10  N1  UNL     1      29.673   6.697  47.405  1.00  0.00    -0.339 N 
HETATM   11  H6  UNL     1      29.970   7.409  46.729  1.00  0.00     0.167 HD
BRANCH  10  12
HETATM   12  C5  UNL     1      28.485   6.235  47.958  1.00  0.00     0.035 A 
HETATM   13  C4  UNL     1      27.565   7.249  47.924  1.00  0.00     0.032 A 
HETATM   14  C3  UNL     1      26.280   7.011  48.431  1.00  0.00     0.041 A 
HETATM   15  C2  UNL     1      25.881   5.807  48.966  1.00  0.00     0.090 A 
HETATM   16  C18 UNL     1      26.847   4.826  48.973  1.00  0.00     0.069 A 
HETATM   17  C17 UNL     1      28.104   5.055  48.478  1.00  0.00     0.056 A 
HETATM   18 CL1  UNL     1      26.507   3.253  49.613  1.00  0.00    -0.081 Cl
BRANCH  15  19
HETATM   19  O1  UNL     1      24.628   5.530  49.476  1.00  0.00    -0.354 OA
HETATM   20  C1  UNL     1      23.508   5.142  48.739  1.00  0.00     0.210 C 
ENDBRANCH  15  19
ENDBRANCH  10  12
ENDBRANCH   1  10
BRANCH   3  21
HETATM   21  N3  UNL     1      33.122   3.431  48.089  1.00  0.00     0.105 N 
HETATM   22  H8  UNL     1      32.543   3.175  48.926  1.00  0.00     0.315 HD
HETATM   23  H9  UNL     1      32.798   2.755  47.340  1.00  0.00     0.315 HD
ENDBRANCH   3  21
BRANCH   6  24
HETATM   24  N4  UNL     1      31.615   8.996  48.441  1.00  0.00    -0.382 N 
HETATM   25  C11 UNL     1      30.811   9.461  49.548  1.00  0.00     0.123 C 
HETATM   26  C12 UNL     1      29.914  10.551  48.946  1.00  0.00     0.020 C 
HETATM   27  C13 UNL     1      30.825  11.731  48.643  1.00  0.00     0.003 C 
HETATM   28  C14 UNL     1      31.933  11.313  47.727  1.00  0.00     0.020 C 
HETATM   29  C15 UNL     1      31.775   9.863  47.278  1.00  0.00     0.123 C 
ENDBRANCH   6  24
TORSDOF 5
ENDMDL
MODEL 8
REMARK VINA RESULT:      -7.1      3.728      6.561
REMARK  5 active torsions:
REMARK  status: ('A' for Active; 'I' for Inactive)
REMARK    1  A    between atoms: O1_2  and  C2_3 
REMARK    2  A    between atoms: C5_6  and  N1_7 
REMARK    3  A    between atoms: N1_7  and  C6_8 
REMARK    4  A    between atoms: C7_10  and  N3_11 
REMARK    5  A    between atoms: C10_14  and  N4_15 
ROOT
HETATM    1  C6  UNL     1      24.389   2.457  50.986  1.00  0.00     0.154 C 
HETATM    2  N2  UNL     1      23.086   2.756  50.835  1.00  0.00    -0.233 NA
HETATM    3  C7  UNL     1      22.326   1.375  50.856  1.00  0.00     0.363 C 
HETATM    4  C8  UNL     1      22.469   0.679  52.125  1.00  0.00     0.142 C 
HETATM    5  C9  UNL     1      23.607  -0.163  52.624  1.00  0.00     0.088 C 
HETATM    6  C10 UNL     1      24.744   0.908  52.782  1.00  0.00     0.040 C 
HETATM    7  C16 UNL     1      23.872   1.902  52.308  1.00  0.00     0.097 C 
HETATM    8  N5  UNL     1      22.658   1.777  53.096  1.00  0.00    -0.376 N 
HETATM    9  H23 UNL     1      22.176   2.235  53.890  1.00  0.00     0.160 HD
ENDROOT
BRANCH   1  10
HETATM   10  N1  UNL     1      25.700   2.557  50.499  1.00  0.00    -0.339 N 
HETATM   11  H6  UNL     1      26.238   1.685  50.544  1.00  0.00     0.167 HD
BRANCH  10  12
HETATM   12  C5  UNL     1      25.897   3.869  50.087  1.00  0.00     0.035 A 
HETATM   13  C4  UNL     1      26.951   3.898  49.213  1.00  0.00     0.032 A 
HETATM   14  C3  UNL     1      27.335   5.127  48.661  1.00  0.00     0.041 A 
HETATM   15  C2  UNL     1      26.710   6.320  48.944  1.00  0.00     0.090 A 
HETATM   16  C18 UNL     1      25.658   6.230  49.827  1.00  0.00     0.069 A 
HETATM   17  C17 UNL     1      25.280   5.029  50.370  1.00  0.00     0.056 A 
HETATM   18 CL1  UNL     1      24.766   7.640  50.290  1.00  0.00    -0.081 Cl
BRANCH  15  19
HETATM   19  O1  UNL     1      27.057   7.551  48.423  1.00  0.00    -0.354 OA
HETATM   20  C1  UNL     1      28.257   8.228  48.642  1.00  0.00     0.210 C 
ENDBRANCH  15  19
ENDBRANCH  10  12
ENDBRANCH   1  10
BRANCH   3  21
HETATM   21  N3  UNL     1      20.958   1.869  50.769  1.00  0.00     0.105 N 
HETATM   22  H8  UNL     1      20.312   1.045  50.823  1.00  0.00     0.315 HD
HETATM   23  H9  UNL     1      20.803   2.374  51.688  1.00  0.00     0.315 HD
ENDBRANCH   3  21
BRANCH   6  24
HETATM   24  N4  UNL     1      26.116   0.876  53.169  1.00  0.00    -0.382 N 
HETATM   25  C11 UNL     1      27.012  -0.220  52.881  1.00  0.00     0.123 C 
HETATM   26  C12 UNL     1      28.150  -0.070  53.900  1.00  0.00     0.020 C 
HETATM   27  C13 UNL     1      28.940   1.160  53.478  1.00  0.00     0.003 C 
HETATM   28  C14 UNL     1      28.045   2.360  53.419  1.00  0.00     0.020 C 
HETATM   29  C15 UNL     1      26.633   2.032  53.896  1.00  0.00     0.123 C 
ENDBRANCH   6  24
TORSDOF 5
ENDMDL
MODEL 9
REMARK VINA RESULT:      -7.0      1.829      2.269
REMARK  5 active torsions:
REMARK  status: ('A' for Active; 'I' for Inactive)
REMARK    1  A    between atoms: O1_2  and  C2_3 
REMARK    2  A    between atoms: C5_6  and  N1_7 
REMARK    3  A    between atoms: N1_7  and  C6_8 
REMARK    4  A    between atoms: C7_10  and  N3_11 
REMARK    5  A    between atoms: C10_14  and  N4_15 
ROOT
HETATM    1  C6  UNL     1      24.548   2.883  51.839  1.00  0.00     0.154 C 
HETATM    2  N2  UNL     1      25.530   3.694  51.406  1.00  0.00    -0.233 NA
HETATM    3  C7  UNL     1      25.732   3.346  49.882  1.00  0.00     0.363 C 
HETATM    4  C8  UNL     1      24.549   3.629  49.084  1.00  0.00     0.142 C 
HETATM    5  C9  UNL     1      23.305   2.809  48.904  1.00  0.00     0.088 C 
HETATM    6  C10 UNL     1      22.675   2.875  50.341  1.00  0.00     0.040 C 
HETATM    7  C16 UNL     1      23.763   3.648  50.780  1.00  0.00     0.097 C 
HETATM    8  N5  UNL     1      23.897   4.731  49.821  1.00  0.00    -0.376 N 
HETATM    9  H23 UNL     1      23.678   5.739  49.726  1.00  0.00     0.160 HD
ENDROOT
BRANCH   1  10
HETATM   10  N1  UNL     1      24.121   1.911  52.754  1.00  0.00    -0.339 N 
HETATM   11  H6  UNL     1      23.147   2.013  53.061  1.00  0.00     0.167 HD
BRANCH  10  12
HETATM   12  C5  UNL     1      25.193   1.061  52.996  1.00  0.00     0.035 A 
HETATM   13  C4  UNL     1      26.034   1.664  53.893  1.00  0.00     0.032 A 
HETATM   14  C3  UNL     1      27.193   0.987  54.291  1.00  0.00     0.041 A 
HETATM   15  C2  UNL     1      27.543  -0.263  53.832  1.00  0.00     0.090 A 
HETATM   16  C18 UNL     1      26.661  -0.820  52.934  1.00  0.00     0.069 A 
HETATM   17  C17 UNL     1      25.526  -0.160  52.542  1.00  0.00     0.056 A 
HETATM   18 CL1  UNL     1      26.956  -2.388  52.259  1.00  0.00    -0.081 Cl
BRANCH  15  19
HETATM   19  O1  UNL     1      28.675  -0.965  54.198  1.00  0.00    -0.354 OA
HETATM   20  C1  UNL     1      29.949  -0.815  53.648  1.00  0.00     0.210 C 
ENDBRANCH  15  19
ENDBRANCH  10  12
ENDBRANCH   1  10
BRANCH   3  21
HETATM   21  N3  UNL     1      26.742   4.344  49.555  1.00  0.00     0.105 N 
HETATM   22  H8  UNL     1      26.797   5.024  50.352  1.00  0.00     0.315 HD
HETATM   23  H9  UNL     1      27.659   3.816  49.609  1.00  0.00     0.315 HD
ENDBRANCH   3  21
BRANCH   6  24
HETATM   24  N4  UNL     1      21.521   2.318  50.965  1.00  0.00    -0.382 N 
HETATM   25  C11 UNL     1      20.701   3.022  51.924  1.00  0.00     0.123 C 
HETATM   26  C12 UNL     1      19.957   1.916  52.686  1.00  0.00     0.020 C 
HETATM   27  C13 UNL     1      18.947   1.333  51.708  1.00  0.00     0.003 C 
HETATM   28  C14 UNL     1      19.639   0.833  50.479  1.00  0.00     0.020 C 
HETATM   29  C15 UNL     1      21.156   0.953  50.599  1.00  0.00     0.123 C 
ENDBRANCH   6  24
TORSDOF 5
ENDMDL
