MODEL 1
REMARK VINA RESULT:      -8.4      0.000      0.000
REMARK  7 active torsions:
REMARK  status: ('A' for Active; 'I' for Inactive)
REMARK    1  A    between atoms: C3_3  and  C4_5 
REMARK    2  A    between atoms: C5_7  and  C6_8 
REMARK    3  A    between atoms: C6_8  and  N1_9 
REMARK    4  A    between atoms: N1_9  and  C7_10 
REMARK    5  A    between atoms: C11_16  and  O1_17 
REMARK    6  A    between atoms: C14_20  and  O2_21 
REMARK    7  A    between atoms: O2_21  and  C15_22 
ROOT
HETATM    1  C7  UNL     1      23.443   2.506  52.152  1.00  0.00     0.140 A 
HETATM    2  N2  UNL     1      22.288   3.138  52.036  1.00  0.00    -0.224 NA
HETATM    3  C8  UNL     1      22.098   4.150  51.188  1.00  0.00     0.236 A 
HETATM    4  N3  UNL     1      23.104   4.592  50.383  1.00  0.00    -0.241 NA
HETATM    5  C9  UNL     1      24.292   3.985  50.464  1.00  0.00     0.077 A 
HETATM    6  C10 UNL     1      25.286   4.462  49.636  1.00  0.00     0.069 A 
HETATM    7  C11 UNL     1      26.547   3.863  49.683  1.00  0.00     0.073 A 
HETATM    8  C13 UNL     1      26.686   2.807  50.593  1.00  0.00     0.074 A 
HETATM    9  C14 UNL     1      25.689   2.340  51.415  1.00  0.00     0.088 A 
HETATM   10  C20 UNL     1      24.454   2.943  51.350  1.00  0.00     0.072 A 
ENDROOT
BRANCH   1  11
HETATM   11  N1  UNL     1      23.502   1.446  53.077  1.00  0.00    -0.370 N 
HETATM   12  H8  UNL     1      23.775   1.315  54.071  1.00  0.00     0.161 HD
BRANCH  11  13
HETATM   13  C6  UNL     1      23.109   0.096  52.697  1.00  0.00     0.150 C 
BRANCH  13  14
HETATM   14  C5  UNL     1      21.632  -0.108  52.826  1.00  0.00     0.015 C 
HETATM   15  C4  UNL     1      20.995  -0.736  53.841  1.00  0.00     0.052 C 
HETATM   16 CL1  UNL     1      22.121  -1.313  55.089  1.00  0.00    -0.086 Cl
BRANCH  15  17
HETATM   17  C3  UNL     1      19.586  -0.623  53.408  1.00  0.00     0.170 A 
HETATM   18  C2  UNL     1      18.425  -1.202  53.288  1.00  0.00     0.171 A 
HETATM   19  C1  UNL     1      17.554  -2.359  53.448  1.00  0.00     0.045 C 
HETATM   20  F1  UNL     1      19.421  -1.917  53.808  1.00  0.00    -0.379 F 
ENDBRANCH  15  17
ENDBRANCH  13  14
ENDBRANCH  11  13
ENDBRANCH   1  11
BRANCH   9  21
HETATM   21  O2  UNL     1      25.925   1.312  52.269  1.00  0.00    -0.345 OA
BRANCH  21  22
HETATM   22  C15 UNL     1      27.116   0.723  52.654  1.00  0.00     0.133 C 
HETATM   23  C16 UNL     1      27.504   1.203  54.074  1.00  0.00     0.058 C 
HETATM   24  C17 UNL     1      28.504   0.265  54.709  1.00  0.00     0.170 C 
HETATM   25  O3  UNL     1      29.206  -0.443  53.732  1.00  0.00    -0.391 OA
HETATM   26  C18 UNL     1      28.339  -1.389  53.164  1.00  0.00     0.170 C 
HETATM   27  C19 UNL     1      27.019  -0.776  52.775  1.00  0.00     0.058 C 
ENDBRANCH  21  22
ENDBRANCH   9  21
BRANCH   7  28
HETATM   28  O1  UNL     1      27.581   4.300  48.868  1.00  0.00    -0.356 OA
HETATM   29  C12 UNL     1      27.651   5.643  48.503  1.00  0.00     0.210 C 
ENDBRANCH   7  28
TORSDOF 7
ENDMDL
MODEL 2
REMARK VINA RESULT:      -8.3      4.101      8.461
REMARK  7 active torsions:
REMARK  status: ('A' for Active; 'I' for Inactive)
REMARK    1  A    between atoms: C3_3  and  C4_5 
REMARK    2  A    between atoms: C5_7  and  C6_8 
REMARK    3  A    between atoms: C6_8  and  N1_9 
REMARK    4  A    between atoms: N1_9  and  C7_10 
REMARK    5  A    between atoms: C11_16  and  O1_17 
REMARK    6  A    between atoms: C14_20  and  O2_21 
REMARK    7  A    between atoms: O2_21  and  C15_22 
ROOT
HETATM    1  C7  UNL     1      26.601   2.365  52.007  1.00  0.00     0.140 A 
HETATM    2  N2  UNL     1      27.857   2.165  52.368  1.00  0.00    -0.224 NA
HETATM    3  C8  UNL     1      28.225   1.187  53.197  1.00  0.00     0.236 A 
HETATM    4  N3  UNL     1      27.309   0.328  53.723  1.00  0.00    -0.241 NA
HETATM    5  C9  UNL     1      26.025   0.490  53.388  1.00  0.00     0.077 A 
HETATM    6  C10 UNL     1      25.126  -0.396  53.943  1.00  0.00     0.069 A 
HETATM    7  C11 UNL     1      23.771  -0.269  53.627  1.00  0.00     0.073 A 
HETATM    8  C13 UNL     1      23.446   0.776  52.754  1.00  0.00     0.074 A 
HETATM    9  C14 UNL     1      24.349   1.655  52.207  1.00  0.00     0.088 A 
HETATM   10  C20 UNL     1      25.678   1.510  52.530  1.00  0.00     0.072 A 
ENDROOT
BRANCH   1  11
HETATM   11  N1  UNL     1      26.354   3.426  51.115  1.00  0.00    -0.370 N 
HETATM   12  H8  UNL     1      26.037   4.414  51.174  1.00  0.00     0.161 HD
BRANCH  11  13
HETATM   13  C6  UNL     1      26.542   3.259  49.681  1.00  0.00     0.150 C 
BRANCH  13  14
HETATM   14  C5  UNL     1      27.314   4.397  49.087  1.00  0.00     0.015 C 
HETATM   15  C4  UNL     1      26.805   5.577  48.666  1.00  0.00     0.052 C 
HETATM   16 CL1  UNL     1      25.048   5.680  48.909  1.00  0.00    -0.086 Cl
BRANCH  15  17
HETATM   17  C3  UNL     1      28.027   6.261  48.191  1.00  0.00     0.170 A 
HETATM   18  C2  UNL     1      28.542   7.181  47.426  1.00  0.00     0.171 A 
HETATM   19  C1  UNL     1      28.404   8.250  46.445  1.00  0.00     0.045 C 
HETATM   20  F1  UNL     1      27.220   7.027  47.401  1.00  0.00    -0.379 F 
ENDBRANCH  15  17
ENDBRANCH  13  14
ENDBRANCH  11  13
ENDBRANCH   1  11
BRANCH   9  21
HETATM   21  O2  UNL     1      23.933   2.641  51.372  1.00  0.00    -0.345 OA
BRANCH  21  22
HETATM   22  C15 UNL     1      22.729   3.322  51.321  1.00  0.00     0.133 C 
HETATM   23  C16 UNL     1      22.921   4.767  51.842  1.00  0.00     0.058 C 
HETATM   24  C17 UNL     1      21.796   5.664  51.380  1.00  0.00     0.170 C 
HETATM   25  O3  UNL     1      20.655   4.914  51.088  1.00  0.00    -0.391 OA
HETATM   26  C18 UNL     1      20.885   4.208  49.897  1.00  0.00     0.170 C 
HETATM   27  C19 UNL     1      22.210   3.492  49.916  1.00  0.00     0.058 C 
ENDBRANCH  21  22
ENDBRANCH   9  21
BRANCH   7  28
HETATM   28  O1  UNL     1      22.826  -1.137  54.153  1.00  0.00    -0.356 OA
HETATM   29  C12 UNL     1      21.671  -0.624  54.741  1.00  0.00     0.210 C 
ENDBRANCH   7  28
TORSDOF 7
ENDMDL
MODEL 3
REMARK VINA RESULT:      -8.2      3.663      7.231
REMARK  7 active torsions:
REMARK  status: ('A' for Active; 'I' for Inactive)
REMARK    1  A    between atoms: C3_3  and  C4_5 
REMARK    2  A    between atoms: C5_7  and  C6_8 
REMARK    3  A    between atoms: C6_8  and  N1_9 
REMARK    4  A    between atoms: N1_9  and  C7_10 
REMARK    5  A    between atoms: C11_16  and  O1_17 
REMARK    6  A    between atoms: C14_20  and  O2_21 
REMARK    7  A    between atoms: O2_21  and  C15_22 
ROOT
HETATM    1  C7  UNL     1      23.833   3.560  51.459  1.00  0.00     0.140 A 
HETATM    2  N2  UNL     1      23.153   4.642  51.120  1.00  0.00    -0.224 NA
HETATM    3  C8  UNL     1      21.854   4.793  51.379  1.00  0.00     0.236 A 
HETATM    4  N3  UNL     1      21.147   3.821  52.019  1.00  0.00    -0.241 NA
HETATM    5  C9  UNL     1      21.789   2.706  52.382  1.00  0.00     0.077 A 
HETATM    6  C10 UNL     1      21.039   1.744  53.025  1.00  0.00     0.069 A 
HETATM    7  C11 UNL     1      21.662   0.559  53.423  1.00  0.00     0.073 A 
HETATM    8  C13 UNL     1      23.026   0.457  53.122  1.00  0.00     0.074 A 
HETATM    9  C14 UNL     1      23.764   1.422  52.481  1.00  0.00     0.088 A 
HETATM   10  C20 UNL     1      23.131   2.582  52.099  1.00  0.00     0.072 A 
ENDROOT
BRANCH   1  11
HETATM   11  N1  UNL     1      25.203   3.537  51.136  1.00  0.00    -0.370 N 
HETATM   12  H8  UNL     1      26.103   3.733  51.617  1.00  0.00     0.161 HD
BRANCH  11  13
HETATM   13  C6  UNL     1      25.653   3.159  49.804  1.00  0.00     0.150 C 
BRANCH  13  14
HETATM   14  C5  UNL     1      26.841   3.961  49.372  1.00  0.00     0.015 C 
HETATM   15  C4  UNL     1      26.815   5.182  48.791  1.00  0.00     0.052 C 
HETATM   16 CL1  UNL     1      25.160   5.799  48.591  1.00  0.00    -0.086 Cl
BRANCH  15  17
HETATM   17  C3  UNL     1      28.258   5.440  48.603  1.00  0.00     0.170 A 
HETATM   18  C2  UNL     1      29.179   6.150  48.015  1.00  0.00     0.171 A 
HETATM   19  C1  UNL     1      29.582   7.213  47.104  1.00  0.00     0.045 C 
HETATM   20  F1  UNL     1      27.908   6.430  47.732  1.00  0.00    -0.379 F 
ENDBRANCH  15  17
ENDBRANCH  13  14
ENDBRANCH  11  13
ENDBRANCH   1  11
BRANCH   9  21
HETATM   21  O2  UNL     1      25.084   1.227  52.229  1.00  0.00    -0.345 OA
BRANCH  21  22
HETATM   22  C15 UNL     1      26.071   0.660  53.016  1.00  0.00     0.133 C 
HETATM   23  C16 UNL     1      26.440  -0.739  52.467  1.00  0.00     0.058 C 
HETATM   24  C17 UNL     1      27.790  -1.184  52.981  1.00  0.00     0.170 C 
HETATM   25  O3  UNL     1      28.106  -0.529  54.173  1.00  0.00    -0.391 OA
HETATM   26  C18 UNL     1      28.407   0.809  53.874  1.00  0.00     0.170 C 
HETATM   27  C19 UNL     1      27.365   1.433  52.983  1.00  0.00     0.058 C 
ENDBRANCH  21  22
ENDBRANCH   9  21
BRANCH   7  28
HETATM   28  O1  UNL     1      20.956  -0.440  54.078  1.00  0.00    -0.356 OA
HETATM   29  C12 UNL     1      21.629  -1.572  54.537  1.00  0.00     0.210 C 
ENDBRANCH   7  28
TORSDOF 7
ENDMDL
MODEL 4
REMARK VINA RESULT:      -8.1      3.607      7.770
REMARK  7 active torsions:
REMARK  status: ('A' for Active; 'I' for Inactive)
REMARK    1  A    between atoms: C3_3  and  C4_5 
REMARK    2  A    between atoms: C5_7  and  C6_8 
REMARK    3  A    between atoms: C6_8  and  N1_9 
REMARK    4  A    between atoms: N1_9  and  C7_10 
REMARK    5  A    between atoms: C11_16  and  O1_17 
REMARK    6  A    between atoms: C14_20  and  O2_21 
REMARK    7  A    between atoms: O2_21  and  C15_22 
ROOT
HETATM    1  C7  UNL     1      22.979  -0.101  53.257  1.00  0.00     0.140 A 
HETATM    2  N2  UNL     1      23.294  -0.717  54.383  1.00  0.00    -0.224 NA
HETATM    3  C8  UNL     1      22.396  -1.353  55.136  1.00  0.00     0.236 A 
HETATM    4  N3  UNL     1      21.083  -1.401  54.777  1.00  0.00    -0.241 NA
HETATM    5  C9  UNL     1      20.714  -0.792  53.646  1.00  0.00     0.077 A 
HETATM    6  C10 UNL     1      19.377  -0.859  53.317  1.00  0.00     0.069 A 
HETATM    7  C11 UNL     1      18.939  -0.237  52.146  1.00  0.00     0.073 A 
HETATM    8  C13 UNL     1      19.926   0.416  51.397  1.00  0.00     0.074 A 
HETATM    9  C14 UNL     1      21.257   0.478  51.735  1.00  0.00     0.088 A 
HETATM   10  C20 UNL     1      21.666  -0.144  52.891  1.00  0.00     0.072 A 
ENDROOT
BRANCH   1  11
HETATM   11  N1  UNL     1      24.028   0.520  52.552  1.00  0.00    -0.370 N 
HETATM   12  H8  UNL     1      24.540   0.372  51.660  1.00  0.00     0.161 HD
BRANCH  11  13
HETATM   13  C6  UNL     1      24.687   1.706  53.080  1.00  0.00     0.150 C 
BRANCH  13  14
HETATM   14  C5  UNL     1      26.089   1.414  53.514  1.00  0.00     0.015 C 
HETATM   15  C4  UNL     1      27.206   1.545  52.761  1.00  0.00     0.052 C 
HETATM   16 CL1  UNL     1      26.850   2.149  51.128  1.00  0.00    -0.086 Cl
BRANCH  15  17
HETATM   17  C3  UNL     1      28.247   1.113  53.717  1.00  0.00     0.170 A 
HETATM   18  C2  UNL     1      29.202   0.271  53.993  1.00  0.00     0.171 A 
HETATM   19  C1  UNL     1      30.021  -0.886  53.653  1.00  0.00     0.045 C 
HETATM   20  F1  UNL     1      28.553   0.114  52.841  1.00  0.00    -0.379 F 
ENDBRANCH  15  17
ENDBRANCH  13  14
ENDBRANCH  11  13
ENDBRANCH   1  11
BRANCH   9  21
HETATM   21  O2  UNL     1      22.138   1.141  50.943  1.00  0.00    -0.345 OA
BRANCH  21  22
HETATM   22  C15 UNL     1      21.926   2.135  50.005  1.00  0.00     0.133 C 
HETATM   23  C16 UNL     1      23.124   3.117  50.001  1.00  0.00     0.058 C 
HETATM   24  C17 UNL     1      23.166   3.915  48.718  1.00  0.00     0.170 C 
HETATM   25  O3  UNL     1      21.900   3.974  48.131  1.00  0.00    -0.391 OA
HETATM   26  C18 UNL     1      21.601   2.709  47.600  1.00  0.00     0.170 C 
HETATM   27  C19 UNL     1      21.864   1.608  48.594  1.00  0.00     0.058 C 
ENDBRANCH  21  22
ENDBRANCH   9  21
BRANCH   7  28
HETATM   28  O1  UNL     1      17.605  -0.279  51.765  1.00  0.00    -0.356 OA
HETATM   29  C12 UNL     1      17.267  -0.123  50.421  1.00  0.00     0.210 C 
ENDBRANCH   7  28
TORSDOF 7
ENDMDL
MODEL 5
REMARK VINA RESULT:      -8.1      2.747      5.282
REMARK  7 active torsions:
REMARK  status: ('A' for Active; 'I' for Inactive)
REMARK    1  A    between atoms: C3_3  and  C4_5 
REMARK    2  A    between atoms: C5_7  and  C6_8 
REMARK    3  A    between atoms: C6_8  and  N1_9 
REMARK    4  A    between atoms: N1_9  and  C7_10 
REMARK    5  A    between atoms: C11_16  and  O1_17 
REMARK    6  A    between atoms: C14_20  and  O2_21 
REMARK    7  A    between atoms: O2_21  and  C15_22 
ROOT
HETATM    1  C7  UNL     1      23.243  -0.481  53.811  1.00  0.00     0.140 A 
HETATM    2  N2  UNL     1      22.999  -1.191  54.899  1.00  0.00    -0.224 NA
HETATM    3  C8  UNL     1      23.939  -1.484  55.799  1.00  0.00     0.236 A 
HETATM    4  N3  UNL     1      25.223  -1.058  55.639  1.00  0.00    -0.241 NA
HETATM    5  C9  UNL     1      25.520  -0.337  54.554  1.00  0.00     0.077 A 
HETATM    6  C10 UNL     1      26.830   0.074  54.425  1.00  0.00     0.069 A 
HETATM    7  C11 UNL     1      27.193   0.828  53.308  1.00  0.00     0.073 A 
HETATM    8  C13 UNL     1      26.164   1.102  52.398  1.00  0.00     0.074 A 
HETATM    9  C14 UNL     1      24.862   0.688  52.535  1.00  0.00     0.088 A 
HETATM   10  C20 UNL     1      24.526  -0.052  53.644  1.00  0.00     0.072 A 
ENDROOT
BRANCH   1  11
HETATM   11  N1  UNL     1      22.155  -0.234  52.951  1.00  0.00    -0.370 N 
HETATM   12  H8  UNL     1      21.984  -0.207  51.927  1.00  0.00     0.161 HD
BRANCH  11  13
HETATM   13  C6  UNL     1      20.839   0.090  53.482  1.00  0.00     0.150 C 
BRANCH  13  14
HETATM   14  C5  UNL     1      19.835   0.289  52.389  1.00  0.00     0.015 C 
HETATM   15  C4  UNL     1      18.673  -0.386  52.235  1.00  0.00     0.052 C 
HETATM   16 CL1  UNL     1      18.413  -1.583  53.523  1.00  0.00    -0.086 Cl
BRANCH  15  17
HETATM   17  C3  UNL     1      18.139   0.241  51.008  1.00  0.00     0.170 A 
HETATM   18  C2  UNL     1      17.297   0.168  50.015  1.00  0.00     0.171 A 
HETATM   19  C1  UNL     1      16.239  -0.520  49.288  1.00  0.00     0.045 C 
HETATM   20  F1  UNL     1      17.304  -0.832  50.894  1.00  0.00    -0.379 F 
ENDBRANCH  15  17
ENDBRANCH  13  14
ENDBRANCH  11  13
ENDBRANCH   1  11
BRANCH   9  21
HETATM   21  O2  UNL     1      23.936   1.001  51.593  1.00  0.00    -0.345 OA
BRANCH  21  22
HETATM   22  C15 UNL     1      23.616   2.221  51.023  1.00  0.00     0.133 C 
HETATM   23  C16 UNL     1      22.543   2.022  49.924  1.00  0.00     0.058 C 
HETATM   24  C17 UNL     1      21.838   3.321  49.613  1.00  0.00     0.170 C 
HETATM   25  O3  UNL     1      22.639   4.412  49.958  1.00  0.00    -0.391 OA
HETATM   26  C18 UNL     1      22.677   4.506  51.358  1.00  0.00     0.170 C 
HETATM   27  C19 UNL     1      22.983   3.178  52.000  1.00  0.00     0.058 C 
ENDBRANCH  21  22
ENDBRANCH   9  21
BRANCH   7  28
HETATM   28  O1  UNL     1      28.496   1.272  53.132  1.00  0.00    -0.356 OA
HETATM   29  C12 UNL     1      28.908   2.458  53.737  1.00  0.00     0.210 C 
ENDBRANCH   7  28
TORSDOF 7
ENDMDL
MODEL 6
REMARK VINA RESULT:      -8.1      4.243      8.371
REMARK  7 active torsions:
REMARK  status: ('A' for Active; 'I' for Inactive)
REMARK    1  A    between atoms: C3_3  and  C4_5 
REMARK    2  A    between atoms: C5_7  and  C6_8 
REMARK    3  A    between atoms: C6_8  and  N1_9 
REMARK    4  A    between atoms: N1_9  and  C7_10 
REMARK    5  A    between atoms: C11_16  and  O1_17 
REMARK    6  A    between atoms: C14_20  and  O2_21 
REMARK    7  A    between atoms: O2_21  and  C15_22 
ROOT
HETATM    1  C7  UNL     1      26.302   2.416  51.918  1.00  0.00     0.140 A 
HETATM    2  N2  UNL     1      27.543   2.079  52.225  1.00  0.00    -0.224 NA
HETATM    3  C8  UNL     1      27.846   0.972  52.903  1.00  0.00     0.236 A 
HETATM    4  N3  UNL     1      26.874   0.115  53.323  1.00  0.00    -0.241 NA
HETATM    5  C9  UNL     1      25.602   0.413  53.039  1.00  0.00     0.077 A 
HETATM    6  C10 UNL     1      24.646  -0.476  53.483  1.00  0.00     0.069 A 
HETATM    7  C11 UNL     1      23.302  -0.210  53.213  1.00  0.00     0.073 A 
HETATM    8  C13 UNL     1      23.046   0.967  52.499  1.00  0.00     0.074 A 
HETATM    9  C14 UNL     1      24.006   1.847  52.062  1.00  0.00     0.088 A 
HETATM   10  C20 UNL     1      25.323   1.564  52.337  1.00  0.00     0.072 A 
ENDROOT
BRANCH   1  11
HETATM   11  N1  UNL     1      26.124   3.606  51.186  1.00  0.00    -0.370 N 
HETATM   12  H8  UNL     1      25.699   4.541  51.342  1.00  0.00     0.161 HD
BRANCH  11  13
HETATM   13  C6  UNL     1      26.609   3.724  49.819  1.00  0.00     0.150 C 
BRANCH  13  14
HETATM   14  C5  UNL     1      26.223   5.033  49.205  1.00  0.00     0.015 C 
HETATM   15  C4  UNL     1      27.036   5.869  48.520  1.00  0.00     0.052 C 
HETATM   16 CL1  UNL     1      28.691   5.237  48.383  1.00  0.00    -0.086 Cl
BRANCH  15  17
HETATM   17  C3  UNL     1      26.102   6.963  48.181  1.00  0.00     0.170 A 
HETATM   18  C2  UNL     1      25.822   7.964  47.393  1.00  0.00     0.171 A 
HETATM   19  C1  UNL     1      26.141   8.823  46.261  1.00  0.00     0.045 C 
HETATM   20  F1  UNL     1      26.947   7.289  47.161  1.00  0.00    -0.379 F 
ENDBRANCH  15  17
ENDBRANCH  13  14
ENDBRANCH  11  13
ENDBRANCH   1  11
BRANCH   9  21
HETATM   21  O2  UNL     1      23.655   2.967  51.379  1.00  0.00    -0.345 OA
BRANCH  21  22
HETATM   22  C15 UNL     1      22.712   3.150  50.383  1.00  0.00     0.133 C 
HETATM   23  C16 UNL     1      22.536   4.662  50.099  1.00  0.00     0.058 C 
HETATM   24  C17 UNL     1      21.899   4.889  48.748  1.00  0.00     0.170 C 
HETATM   25  O3  UNL     1      21.168   3.767  48.352  1.00  0.00    -0.391 OA
HETATM   26  C18 UNL     1      22.073   2.750  48.007  1.00  0.00     0.170 C 
HETATM   27  C19 UNL     1      23.133   2.563  49.060  1.00  0.00     0.058 C 
ENDBRANCH  21  22
ENDBRANCH   9  21
BRANCH   7  28
HETATM   28  O1  UNL     1      22.300  -1.073  53.631  1.00  0.00    -0.356 OA
HETATM   29  C12 UNL     1      21.470  -0.705  54.690  1.00  0.00     0.210 C 
ENDBRANCH   7  28
TORSDOF 7
ENDMDL
MODEL 7
REMARK VINA RESULT:      -8.0      1.967      2.465
REMARK  7 active torsions:
REMARK  status: ('A' for Active; 'I' for Inactive)
REMARK    1  A    between atoms: C3_3  and  C4_5 
REMARK    2  A    between atoms: C5_7  and  C6_8 
REMARK    3  A    between atoms: C6_8  and  N1_9 
REMARK    4  A    between atoms: N1_9  and  C7_10 
REMARK    5  A    between atoms: C11_16  and  O1_17 
REMARK    6  A    between atoms: C14_20  and  O2_21 
REMARK    7  A    between atoms: O2_21  and  C15_22 
ROOT
HETATM    1  C7  UNL     1      23.060   4.450  51.169  1.00  0.00     0.140 A 
HETATM    2  N2  UNL     1      22.192   5.370  50.786  1.00  0.00    -0.224 NA
HETATM    3  C8  UNL     1      22.460   6.268  49.837  1.00  0.00     0.236 A 
HETATM    4  N3  UNL     1      23.664   6.283  49.202  1.00  0.00    -0.241 NA
HETATM    5  C9  UNL     1      24.577   5.372  49.555  1.00  0.00     0.077 A 
HETATM    6  C10 UNL     1      25.785   5.421  48.892  1.00  0.00     0.069 A 
HETATM    7  C11 UNL     1      26.773   4.492  49.224  1.00  0.00     0.073 A 
HETATM    8  C13 UNL     1      26.435   3.575  50.228  1.00  0.00     0.074 A 
HETATM    9  C14 UNL     1      25.228   3.536  50.883  1.00  0.00     0.088 A 
HETATM   10  C20 UNL     1      24.268   4.459  50.538  1.00  0.00     0.072 A 
ENDROOT
BRANCH   1  11
HETATM   11  N1  UNL     1      22.643   3.554  52.173  1.00  0.00    -0.370 N 
HETATM   12  H8  UNL     1      23.033   3.154  53.048  1.00  0.00     0.161 HD
BRANCH  11  13
HETATM   13  C6  UNL     1      21.331   2.925  52.117  1.00  0.00     0.150 C 
BRANCH  13  14
HETATM   14  C5  UNL     1      21.270   1.696  52.970  1.00  0.00     0.015 C 
HETATM   15  C4  UNL     1      21.339   0.416  52.537  1.00  0.00     0.052 C 
HETATM   16 CL1  UNL     1      21.542   0.310  50.775  1.00  0.00    -0.086 Cl
BRANCH  15  17
HETATM   17  C3  UNL     1      21.221  -0.323  53.812  1.00  0.00     0.170 A 
HETATM   18  C2  UNL     1      21.833  -0.936  54.786  1.00  0.00     0.171 A 
HETATM   19  C1  UNL     1      23.052  -1.406  55.432  1.00  0.00     0.045 C 
HETATM   20  F1  UNL     1      22.581  -0.427  53.809  1.00  0.00    -0.379 F 
ENDBRANCH  15  17
ENDBRANCH  13  14
ENDBRANCH  11  13
ENDBRANCH   1  11
BRANCH   9  21
HETATM   21  O2  UNL     1      24.997   2.610  51.848  1.00  0.00    -0.345 OA
BRANCH  21  22
HETATM   22  C15 UNL     1      25.842   1.662  52.400  1.00  0.00     0.133 C 
HETATM   23  C16 UNL     1      25.950   1.883  53.928  1.00  0.00     0.058 C 
HETATM   24  C17 UNL     1      26.457   0.639  54.620  1.00  0.00     0.170 C 
HETATM   25  O3  UNL     1      27.180  -0.161  53.732  1.00  0.00    -0.391 OA
HETATM   26  C18 UNL     1      26.275  -0.753  52.837  1.00  0.00     0.170 C 
HETATM   27  C19 UNL     1      25.320   0.256  52.256  1.00  0.00     0.058 C 
ENDBRANCH  21  22
ENDBRANCH   9  21
BRANCH   7  28
HETATM   28  O1  UNL     1      28.005   4.492  48.585  1.00  0.00    -0.356 OA
HETATM   29  C12 UNL     1      28.628   5.704  48.289  1.00  0.00     0.210 C 
ENDBRANCH   7  28
TORSDOF 7
ENDMDL
MODEL 8
REMARK VINA RESULT:      -7.7      3.240      5.579
REMARK  7 active torsions:
REMARK  status: ('A' for Active; 'I' for Inactive)
REMARK    1  A    between atoms: C3_3  and  C4_5 
REMARK    2  A    between atoms: C5_7  and  C6_8 
REMARK    3  A    between atoms: C6_8  and  N1_9 
REMARK    4  A    between atoms: N1_9  and  C7_10 
REMARK    5  A    between atoms: C11_16  and  O1_17 
REMARK    6  A    between atoms: C14_20  and  O2_21 
REMARK    7  A    between atoms: O2_21  and  C15_22 
ROOT
HETATM    1  C7  UNL     1      26.282   3.981  49.446  1.00  0.00     0.140 A 
HETATM    2  N2  UNL     1      27.521   4.191  49.037  1.00  0.00    -0.224 NA
HETATM    3  C8  UNL     1      27.919   5.342  48.494  1.00  0.00     0.236 A 
HETATM    4  N3  UNL     1      27.053   6.379  48.328  1.00  0.00    -0.241 NA
HETATM    5  C9  UNL     1      25.787   6.215  48.724  1.00  0.00     0.077 A 
HETATM    6  C10 UNL     1      24.938   7.286  48.538  1.00  0.00     0.069 A 
HETATM    7  C11 UNL     1      23.604   7.165  48.933  1.00  0.00     0.073 A 
HETATM    8  C13 UNL     1      23.245   5.934  49.496  1.00  0.00     0.074 A 
HETATM    9  C14 UNL     1      24.098   4.873  49.677  1.00  0.00     0.088 A 
HETATM   10  C20 UNL     1      25.408   5.014  49.282  1.00  0.00     0.072 A 
ENDROOT
BRANCH   1  11
HETATM   11  N1  UNL     1      26.000   2.724  50.014  1.00  0.00    -0.370 N 
HETATM   12  H8  UNL     1      25.467   1.871  49.753  1.00  0.00     0.161 HD
BRANCH  11  13
HETATM   13  C6  UNL     1      26.519   2.361  51.325  1.00  0.00     0.150 C 
BRANCH  13  14
HETATM   14  C5  UNL     1      25.680   1.310  51.982  1.00  0.00     0.015 C 
HETATM   15  C4  UNL     1      24.781   1.506  52.974  1.00  0.00     0.052 C 
HETATM   16 CL1  UNL     1      24.657   3.215  53.443  1.00  0.00    -0.086 Cl
BRANCH  15  17
HETATM   17  C3  UNL     1      24.293   0.128  53.194  1.00  0.00     0.170 A 
HETATM   18  C2  UNL     1      23.278  -0.651  53.442  1.00  0.00     0.171 A 
HETATM   19  C1  UNL     1      21.859  -0.852  53.704  1.00  0.00     0.045 C 
HETATM   20  F1  UNL     1      23.047   0.658  53.358  1.00  0.00    -0.379 F 
ENDBRANCH  15  17
ENDBRANCH  13  14
ENDBRANCH  11  13
ENDBRANCH   1  11
BRANCH   9  21
HETATM   21  O2  UNL     1      23.652   3.716  50.228  1.00  0.00    -0.345 OA
BRANCH  21  22
HETATM   22  C15 UNL     1      22.383   3.163  50.247  1.00  0.00     0.133 C 
HETATM   23  C16 UNL     1      22.472   1.637  50.004  1.00  0.00     0.058 C 
HETATM   24  C17 UNL     1      21.215   0.940  50.470  1.00  0.00     0.170 C 
HETATM   25  O3  UNL     1      20.137   1.828  50.490  1.00  0.00    -0.391 OA
HETATM   26  C18 UNL     1      20.314   2.714  51.563  1.00  0.00     0.170 C 
HETATM   27  C19 UNL     1      21.704   3.295  51.586  1.00  0.00     0.058 C 
ENDBRANCH  21  22
ENDBRANCH   9  21
BRANCH   7  28
HETATM   28  O1  UNL     1      22.709   8.213  48.773  1.00  0.00    -0.356 OA
HETATM   29  C12 UNL     1      21.619   8.326  49.635  1.00  0.00     0.210 C 
ENDBRANCH   7  28
TORSDOF 7
ENDMDL
MODEL 9
REMARK VINA RESULT:      -7.6      3.752      7.513
REMARK  7 active torsions:
REMARK  status: ('A' for Active; 'I' for Inactive)
REMARK    1  A    between atoms: C3_3  and  C4_5 
REMARK    2  A    between atoms: C5_7  and  C6_8 
REMARK    3  A    between atoms: C6_8  and  N1_9 
REMARK    4  A    between atoms: N1_9  and  C7_10 
REMARK    5  A    between atoms: C11_16  and  O1_17 
REMARK    6  A    between atoms: C14_20  and  O2_21 
REMARK    7  A    between atoms: O2_21  and  C15_22 
ROOT
HETATM    1  C7  UNL     1      26.239   2.306  52.219  1.00  0.00     0.140 A 
HETATM    2  N2  UNL     1      27.527   2.040  52.356  1.00  0.00    -0.224 NA
HETATM    3  C8  UNL     1      27.980   0.953  52.981  1.00  0.00     0.236 A 
HETATM    4  N3  UNL     1      27.123   0.044  53.522  1.00  0.00    -0.241 NA
HETATM    5  C9  UNL     1      25.810   0.268  53.411  1.00  0.00     0.077 A 
HETATM    6  C10 UNL     1      24.974  -0.673  53.974  1.00  0.00     0.069 A 
HETATM    7  C11 UNL     1      23.592  -0.484  53.887  1.00  0.00     0.073 A 
HETATM    8  C13 UNL     1      23.177   0.675  53.220  1.00  0.00     0.074 A 
HETATM    9  C14 UNL     1      24.019   1.607  52.664  1.00  0.00     0.088 A 
HETATM   10  C20 UNL     1      25.375   1.400  52.759  1.00  0.00     0.072 A 
ENDROOT
BRANCH   1  11
HETATM   11  N1  UNL     1      25.899   3.482  51.524  1.00  0.00    -0.370 N 
HETATM   12  H8  UNL     1      25.400   4.371  51.727  1.00  0.00     0.161 HD
BRANCH  11  13
HETATM   13  C6  UNL     1      26.270   3.662  50.128  1.00  0.00     0.150 C 
BRANCH  13  14
HETATM   14  C5  UNL     1      25.109   4.117  49.300  1.00  0.00     0.015 C 
HETATM   15  C4  UNL     1      24.648   5.384  49.192  1.00  0.00     0.052 C 
HETATM   16 CL1  UNL     1      25.604   6.533  50.153  1.00  0.00    -0.086 Cl
BRANCH  15  17
HETATM   17  C3  UNL     1      23.514   5.198  48.261  1.00  0.00     0.170 A 
HETATM   18  C2  UNL     1      22.395   5.667  47.788  1.00  0.00     0.171 A 
HETATM   19  C1  UNL     1      21.352   6.684  47.751  1.00  0.00     0.045 C 
HETATM   20  F1  UNL     1      23.015   6.379  48.727  1.00  0.00    -0.379 F 
ENDBRANCH  15  17
ENDBRANCH  13  14
ENDBRANCH  11  13
ENDBRANCH   1  11
BRANCH   9  21
HETATM   21  O2  UNL     1      23.517   2.704  52.041  1.00  0.00    -0.345 OA
BRANCH  21  22
HETATM   22  C15 UNL     1      22.210   3.045  51.743  1.00  0.00     0.133 C 
HETATM   23  C16 UNL     1      22.044   4.584  51.793  1.00  0.00     0.058 C 
HETATM   24  C17 UNL     1      20.809   5.021  51.040  1.00  0.00     0.170 C 
HETATM   25  O3  UNL     1      19.884   3.978  50.962  1.00  0.00    -0.391 OA
HETATM   26  C18 UNL     1      20.373   3.022  50.058  1.00  0.00     0.170 C 
HETATM   27  C19 UNL     1      21.809   2.667  50.340  1.00  0.00     0.058 C 
ENDBRANCH  21  22
ENDBRANCH   9  21
BRANCH   7  28
HETATM   28  O1  UNL     1      22.706  -1.403  54.431  1.00  0.00    -0.356 OA
HETATM   29  C12 UNL     1      21.384  -1.029  54.665  1.00  0.00     0.210 C 
ENDBRANCH   7  28
TORSDOF 7
ENDMDL
