MODEL 1
REMARK VINA RESULT:      -7.9      0.000      0.000
REMARK  5 active torsions:
REMARK  status: ('A' for Active; 'I' for Inactive)
REMARK    1  A    between atoms: C2_2  and  C3_3 
REMARK       I    between atoms: C3_3  and  N1_5 
REMARK    2  A    between atoms: N1_5  and  C4_6 
REMARK    3  A    between atoms: C5_7  and  C6_8 
REMARK    4  A    between atoms: C9_13  and  O2_14 
REMARK    5  A    between atoms: O2_14  and  C10_15 
ROOT
HETATM    1  C6  UNL     1      26.313   5.268  48.960  1.00  0.00     0.065 C 
HETATM    2  N2  UNL     1      27.024   4.270  49.274  1.00  0.00    -0.178 NA
HETATM    3  N3  UNL     1      26.720   3.008  49.726  1.00  0.00    -0.277 N 
HETATM    4  C7  UNL     1      25.826   2.833  50.800  1.00  0.00     0.069 A 
HETATM    5  C8  UNL     1      26.016   1.637  51.504  1.00  0.00     0.069 A 
HETATM    6  C9  UNL     1      25.276   1.226  52.593  1.00  0.00     0.078 A 
HETATM    7  C15 UNL     1      24.267   2.054  53.028  1.00  0.00     0.039 A 
HETATM    8  C16 UNL     1      24.011   3.251  52.393  1.00  0.00     0.024 A 
HETATM    9  C17 UNL     1      24.788   3.619  51.299  1.00  0.00     0.029 A 
HETATM   10  S1  UNL     1      24.217   5.201  50.705  1.00  0.00    -0.121 SA
HETATM   11  C18 UNL     1      24.834   5.384  48.987  1.00  0.00     0.140 C 
HETATM   12  H9  UNL     1      27.106   2.102  49.338  1.00  0.00     0.189 HD
ENDROOT
BRANCH   1  13
HETATM   13  C5  UNL     1      27.106   6.411  48.527  1.00  0.00     0.047 C 
HETATM   14  C4  UNL     1      28.343   6.679  48.210  1.00  0.00     0.093 C 
BRANCH  14  15
HETATM   15  N1  UNL     1      29.131   7.750  47.795  1.00  0.00    -0.337 N 
HETATM   16  C3  UNL     1      29.392   8.964  48.471  1.00  0.00     0.221 C 
HETATM   17  O1  UNL     1      28.874   9.156  49.597  1.00  0.00    -0.273 OA
HETATM   18  H6  UNL     1      29.603   7.681  46.870  1.00  0.00     0.168 HD
BRANCH  16  19
HETATM   19  C2  UNL     1      30.274  10.034  47.882  1.00  0.00     0.098 C 
HETATM   20  C1  UNL     1      30.630  11.042  48.954  1.00  0.00     0.014 C 
ENDBRANCH  16  19
ENDBRANCH  14  15
ENDBRANCH   1  13
BRANCH   6  21
HETATM   21  O2  UNL     1      25.575   0.011  53.196  1.00  0.00    -0.309 OA
BRANCH  21  22
HETATM   22  C10 UNL     1      26.887  -0.203  53.594  1.00  0.00     0.093 A 
HETATM   23  C11 UNL     1      27.444  -1.257  52.860  1.00  0.00     0.040 A 
HETATM   24  C12 UNL     1      28.764  -1.651  53.093  1.00  0.00     0.022 A 
HETATM   25  C13 UNL     1      29.473  -0.963  54.061  1.00  0.00     0.116 A 
HETATM   26  N4  UNL     1      28.916   0.041  54.751  1.00  0.00    -0.270 NA
HETATM   27  C14 UNL     1      27.654   0.438  54.546  1.00  0.00     0.153 A 
ENDBRANCH  21  22
ENDBRANCH   6  21
TORSDOF 5
ENDMDL
MODEL 2
REMARK VINA RESULT:      -7.8      6.715     10.132
REMARK  5 active torsions:
REMARK  status: ('A' for Active; 'I' for Inactive)
REMARK    1  A    between atoms: C2_2  and  C3_3 
REMARK       I    between atoms: C3_3  and  N1_5 
REMARK    2  A    between atoms: N1_5  and  C4_6 
REMARK    3  A    between atoms: C5_7  and  C6_8 
REMARK    4  A    between atoms: C9_13  and  O2_14 
REMARK    5  A    between atoms: O2_14  and  C10_15 
ROOT
HETATM    1  C6  UNL     1      23.219   0.037  53.568  1.00  0.00     0.065 C 
HETATM    2  N2  UNL     1      22.731   0.833  52.715  1.00  0.00    -0.178 NA
HETATM    3  N3  UNL     1      21.489   1.402  52.567  1.00  0.00    -0.277 N 
HETATM    4  C7  UNL     1      20.329   0.606  52.632  1.00  0.00     0.069 A 
HETATM    5  C8  UNL     1      19.233   1.147  51.947  1.00  0.00     0.069 A 
HETATM    6  C9  UNL     1      17.984   0.569  51.856  1.00  0.00     0.078 A 
HETATM    7  C15 UNL     1      17.793  -0.638  52.488  1.00  0.00     0.039 A 
HETATM    8  C16 UNL     1      18.817  -1.241  53.187  1.00  0.00     0.024 A 
HETATM    9  C17 UNL     1      20.058  -0.616  53.247  1.00  0.00     0.029 A 
HETATM   10  S1  UNL     1      21.160  -1.635  54.211  1.00  0.00    -0.121 SA
HETATM   11  C18 UNL     1      22.548  -0.563  54.749  1.00  0.00     0.140 C 
HETATM   12  H9  UNL     1      21.295   2.429  52.398  1.00  0.00     0.189 HD
ENDROOT
BRANCH   1  13
HETATM   13  C5  UNL     1      24.613  -0.290  53.303  1.00  0.00     0.047 C 
HETATM   14  C4  UNL     1      25.700  -0.557  53.975  1.00  0.00     0.093 C 
BRANCH  14  15
HETATM   15  N1  UNL     1      27.039  -0.872  53.757  1.00  0.00    -0.337 N 
HETATM   16  C3  UNL     1      28.189  -0.186  54.213  1.00  0.00     0.221 C 
HETATM   17  O1  UNL     1      28.044   0.846  54.909  1.00  0.00    -0.273 OA
HETATM   18  H6  UNL     1      27.257  -1.715  53.189  1.00  0.00     0.168 HD
BRANCH  16  19
HETATM   19  C2  UNL     1      29.583  -0.659  53.889  1.00  0.00     0.098 C 
HETATM   20  C1  UNL     1      29.520  -2.059  53.315  1.00  0.00     0.014 C 
ENDBRANCH  16  19
ENDBRANCH  14  15
ENDBRANCH   1  13
BRANCH   6  21
HETATM   21  O2  UNL     1      16.987   1.218  51.140  1.00  0.00    -0.309 OA
BRANCH  21  22
HETATM   22  C10 UNL     1      16.334   2.275  51.760  1.00  0.00     0.093 A 
HETATM   23  C11 UNL     1      15.109   1.841  52.281  1.00  0.00     0.040 A 
HETATM   24  C12 UNL     1      14.277   2.740  52.953  1.00  0.00     0.022 A 
HETATM   25  C13 UNL     1      14.716   4.047  53.073  1.00  0.00     0.116 A 
HETATM   26  N4  UNL     1      15.893   4.436  52.564  1.00  0.00    -0.270 NA
HETATM   27  C14 UNL     1      16.708   3.594  51.918  1.00  0.00     0.153 A 
ENDBRANCH  21  22
ENDBRANCH   6  21
TORSDOF 5
ENDMDL
MODEL 3
REMARK VINA RESULT:      -7.6      6.282     10.688
REMARK  5 active torsions:
REMARK  status: ('A' for Active; 'I' for Inactive)
REMARK    1  A    between atoms: C2_2  and  C3_3 
REMARK       I    between atoms: C3_3  and  N1_5 
REMARK    2  A    between atoms: N1_5  and  C4_6 
REMARK    3  A    between atoms: C5_7  and  C6_8 
REMARK    4  A    between atoms: C9_13  and  O2_14 
REMARK    5  A    between atoms: O2_14  and  C10_15 
ROOT
HETATM    1  C6  UNL     1      19.697  -0.487  53.413  1.00  0.00     0.065 C 
HETATM    2  N2  UNL     1      20.438  -1.247  54.101  1.00  0.00    -0.178 NA
HETATM    3  N3  UNL     1      21.670  -1.077  54.684  1.00  0.00    -0.277 N 
HETATM    4  C7  UNL     1      22.741  -0.543  53.942  1.00  0.00     0.069 A 
HETATM    5  C8  UNL     1      24.003  -0.919  54.419  1.00  0.00     0.069 A 
HETATM    6  C9  UNL     1      25.210  -0.534  53.874  1.00  0.00     0.078 A 
HETATM    7  C15 UNL     1      25.179   0.288  52.771  1.00  0.00     0.039 A 
HETATM    8  C16 UNL     1      23.979   0.708  52.236  1.00  0.00     0.024 A 
HETATM    9  C17 UNL     1      22.790   0.289  52.824  1.00  0.00     0.029 A 
HETATM   10  S1  UNL     1      21.428   0.992  51.911  1.00  0.00    -0.121 SA
HETATM   11  C18 UNL     1      19.955   0.915  53.000  1.00  0.00     0.140 C 
HETATM   12  H9  UNL     1      21.921  -1.318  55.684  1.00  0.00     0.189 HD
ENDROOT
BRANCH   1  13
HETATM   13  C5  UNL     1      18.452  -1.128  53.008  1.00  0.00     0.047 C 
HETATM   14  C4  UNL     1      17.601  -1.996  53.482  1.00  0.00     0.093 C 
BRANCH  14  15
HETATM   15  N1  UNL     1      16.411  -2.627  53.127  1.00  0.00    -0.337 N 
HETATM   16  C3  UNL     1      16.125  -4.011  53.096  1.00  0.00     0.221 C 
HETATM   17  O1  UNL     1      17.022  -4.825  53.422  1.00  0.00    -0.273 OA
HETATM   18  H6  UNL     1      15.607  -2.031  52.842  1.00  0.00     0.168 HD
BRANCH  16  19
HETATM   19  C2  UNL     1      14.774  -4.540  52.685  1.00  0.00     0.098 C 
HETATM   20  C1  UNL     1      13.861  -4.584  53.892  1.00  0.00     0.014 C 
ENDBRANCH  16  19
ENDBRANCH  14  15
ENDBRANCH   1  13
BRANCH   6  21
HETATM   21  O2  UNL     1      26.390  -0.985  54.452  1.00  0.00    -0.309 OA
BRANCH  21  22
HETATM   22  C10 UNL     1      27.527  -0.206  54.284  1.00  0.00     0.093 A 
HETATM   23  C11 UNL     1      28.515  -0.939  53.616  1.00  0.00     0.040 A 
HETATM   24  C12 UNL     1      29.752  -0.353  53.337  1.00  0.00     0.022 A 
HETATM   25  C13 UNL     1      29.944   0.955  53.744  1.00  0.00     0.116 A 
HETATM   26  N4  UNL     1      28.982   1.634  54.383  1.00  0.00    -0.270 NA
HETATM   27  C14 UNL     1      27.788   1.096  54.661  1.00  0.00     0.153 A 
ENDBRANCH  21  22
ENDBRANCH   6  21
TORSDOF 5
ENDMDL
MODEL 4
REMARK VINA RESULT:      -7.3      3.271      4.237
REMARK  5 active torsions:
REMARK  status: ('A' for Active; 'I' for Inactive)
REMARK    1  A    between atoms: C2_2  and  C3_3 
REMARK       I    between atoms: C3_3  and  N1_5 
REMARK    2  A    between atoms: N1_5  and  C4_6 
REMARK    3  A    between atoms: C5_7  and  C6_8 
REMARK    4  A    between atoms: C9_13  and  O2_14 
REMARK    5  A    between atoms: O2_14  and  C10_15 
ROOT
HETATM    1  C6  UNL     1      28.257   5.921  48.278  1.00  0.00     0.065 C 
HETATM    2  N2  UNL     1      27.958   4.774  48.718  1.00  0.00    -0.178 NA
HETATM    3  N3  UNL     1      26.761   4.169  49.020  1.00  0.00    -0.277 N 
HETATM    4  C7  UNL     1      25.811   4.832  49.821  1.00  0.00     0.069 A 
HETATM    5  C8  UNL     1      24.939   3.967  50.495  1.00  0.00     0.069 A 
HETATM    6  C9  UNL     1      23.920   4.359  51.339  1.00  0.00     0.078 A 
HETATM    7  C15 UNL     1      23.742   5.709  51.538  1.00  0.00     0.039 A 
HETATM    8  C16 UNL     1      24.555   6.631  50.913  1.00  0.00     0.024 A 
HETATM    9  C17 UNL     1      25.568   6.181  50.072  1.00  0.00     0.029 A 
HETATM   10  S1  UNL     1      26.436   7.599  49.423  1.00  0.00    -0.121 SA
HETATM   11  C18 UNL     1      27.341   7.036  47.930  1.00  0.00     0.140 C 
HETATM   12  H9  UNL     1      26.457   3.205  48.703  1.00  0.00     0.189 HD
ENDROOT
BRANCH   1  13
HETATM   13  C5  UNL     1      29.693   6.106  48.113  1.00  0.00     0.047 C 
HETATM   14  C4  UNL     1      30.754   5.376  47.903  1.00  0.00     0.093 C 
BRANCH  14  15
HETATM   15  N1  UNL     1      32.131   5.515  47.741  1.00  0.00    -0.337 N 
HETATM   16  C3  UNL     1      33.125   4.510  47.761  1.00  0.00     0.221 C 
HETATM   17  O1  UNL     1      32.780   3.318  47.943  1.00  0.00    -0.273 OA
HETATM   18  H6  UNL     1      32.510   6.471  47.584  1.00  0.00     0.168 HD
BRANCH  16  19
HETATM   19  C2  UNL     1      34.586   4.826  47.569  1.00  0.00     0.098 C 
HETATM   20  C1  UNL     1      35.104   5.573  48.781  1.00  0.00     0.014 C 
ENDBRANCH  16  19
ENDBRANCH  14  15
ENDBRANCH   1  13
BRANCH   6  21
HETATM   21  O2  UNL     1      23.130   3.391  51.944  1.00  0.00    -0.309 OA
BRANCH  21  22
HETATM   22  C10 UNL     1      23.776   2.333  52.569  1.00  0.00     0.093 A 
HETATM   23  C11 UNL     1      23.000   1.172  52.466  1.00  0.00     0.040 A 
HETATM   24  C12 UNL     1      23.455  -0.025  53.027  1.00  0.00     0.022 A 
HETATM   25  C13 UNL     1      24.679  -0.001  53.673  1.00  0.00     0.116 A 
HETATM   26  N4  UNL     1      25.400   1.124  53.758  1.00  0.00    -0.270 NA
HETATM   27  C14 UNL     1      24.987   2.282  53.228  1.00  0.00     0.153 A 
ENDBRANCH  21  22
ENDBRANCH   6  21
TORSDOF 5
ENDMDL
MODEL 5
REMARK VINA RESULT:      -7.2      4.398      4.935
REMARK  5 active torsions:
REMARK  status: ('A' for Active; 'I' for Inactive)
REMARK    1  A    between atoms: C2_2  and  C3_3 
REMARK       I    between atoms: C3_3  and  N1_5 
REMARK    2  A    between atoms: N1_5  and  C4_6 
REMARK    3  A    between atoms: C5_7  and  C6_8 
REMARK    4  A    between atoms: C9_13  and  O2_14 
REMARK    5  A    between atoms: O2_14  and  C10_15 
ROOT
HETATM    1  C6  UNL     1      23.135   5.498  50.456  1.00  0.00     0.065 C 
HETATM    2  N2  UNL     1      23.772   5.243  51.519  1.00  0.00    -0.178 NA
HETATM    3  N3  UNL     1      24.400   4.114  51.986  1.00  0.00    -0.277 N 
HETATM    4  C7  UNL     1      23.737   2.871  51.969  1.00  0.00     0.069 A 
HETATM    5  C8  UNL     1      24.212   1.964  52.925  1.00  0.00     0.069 A 
HETATM    6  C9  UNL     1      23.736   0.683  53.115  1.00  0.00     0.078 A 
HETATM    7  C15 UNL     1      22.711   0.257  52.303  1.00  0.00     0.039 A 
HETATM    8  C16 UNL     1      22.184   1.085  51.335  1.00  0.00     0.024 A 
HETATM    9  C17 UNL     1      22.700   2.368  51.185  1.00  0.00     0.029 A 
HETATM   10  S1  UNL     1      21.817   3.183  49.866  1.00  0.00    -0.121 SA
HETATM   11  C18 UNL     1      22.856   4.591  49.315  1.00  0.00     0.140 C 
HETATM   12  H9  UNL     1      25.381   4.070  52.382  1.00  0.00     0.189 HD
ENDROOT
BRANCH   1  13
HETATM   13  C5  UNL     1      22.641   6.868  50.409  1.00  0.00     0.047 C 
HETATM   14  C4  UNL     1      22.100   7.683  49.545  1.00  0.00     0.093 C 
BRANCH  14  15
HETATM   15  N1  UNL     1      21.619   8.988  49.465  1.00  0.00    -0.337 N 
HETATM   16  C3  UNL     1      20.279   9.436  49.516  1.00  0.00     0.221 C 
HETATM   17  O1  UNL     1      19.361   8.593  49.654  1.00  0.00    -0.273 OA
HETATM   18  H6  UNL     1      22.310   9.757  49.350  1.00  0.00     0.168 HD
BRANCH  16  19
HETATM   19  C2  UNL     1      19.919  10.896  49.414  1.00  0.00     0.098 C 
HETATM   20  C1  UNL     1      20.954  11.612  48.571  1.00  0.00     0.014 C 
ENDBRANCH  16  19
ENDBRANCH  14  15
ENDBRANCH   1  13
BRANCH   6  21
HETATM   21  O2  UNL     1      24.303  -0.110  54.104  1.00  0.00    -0.309 OA
BRANCH  21  22
HETATM   22  C10 UNL     1      25.684  -0.251  54.104  1.00  0.00     0.093 A 
HETATM   23  C11 UNL     1      26.090  -0.969  52.972  1.00  0.00     0.040 A 
HETATM   24  C12 UNL     1      27.446  -1.232  52.762  1.00  0.00     0.022 A 
HETATM   25  C13 UNL     1      28.341  -0.759  53.705  1.00  0.00     0.116 A 
HETATM   26  N4  UNL     1      27.925  -0.076  54.779  1.00  0.00    -0.270 NA
HETATM   27  C14 UNL     1      26.633   0.191  55.003  1.00  0.00     0.153 A 
ENDBRANCH  21  22
ENDBRANCH   6  21
TORSDOF 5
ENDMDL
MODEL 6
REMARK VINA RESULT:      -7.1      5.281      8.422
REMARK  5 active torsions:
REMARK  status: ('A' for Active; 'I' for Inactive)
REMARK    1  A    between atoms: C2_2  and  C3_3 
REMARK       I    between atoms: C3_3  and  N1_5 
REMARK    2  A    between atoms: N1_5  and  C4_6 
REMARK    3  A    between atoms: C5_7  and  C6_8 
REMARK    4  A    between atoms: C9_13  and  O2_14 
REMARK    5  A    between atoms: O2_14  and  C10_15 
ROOT
HETATM    1  C6  UNL     1      20.506   3.730  51.642  1.00  0.00     0.065 C 
HETATM    2  N2  UNL     1      21.328   3.018  52.288  1.00  0.00    -0.178 NA
HETATM    3  N3  UNL     1      22.679   3.119  52.515  1.00  0.00    -0.277 N 
HETATM    4  C7  UNL     1      23.566   3.344  51.445  1.00  0.00     0.069 A 
HETATM    5  C8  UNL     1      24.869   2.889  51.685  1.00  0.00     0.069 A 
HETATM    6  C9  UNL     1      25.924   2.988  50.803  1.00  0.00     0.078 A 
HETATM    7  C15 UNL     1      25.684   3.582  49.585  1.00  0.00     0.039 A 
HETATM    8  C16 UNL     1      24.430   4.058  49.266  1.00  0.00     0.024 A 
HETATM    9  C17 UNL     1      23.400   3.933  50.192  1.00  0.00     0.029 A 
HETATM   10  S1  UNL     1      21.918   4.636  49.490  1.00  0.00    -0.121 SA
HETATM   11  C18 UNL     1      20.775   4.978  50.883  1.00  0.00     0.140 C 
HETATM   12  H9  UNL     1      23.156   3.039  53.457  1.00  0.00     0.189 HD
ENDROOT
BRANCH   1  13
HETATM   13  C5  UNL     1      19.147   3.209  51.690  1.00  0.00     0.047 C 
HETATM   14  C4  UNL     1      17.930   3.632  51.485  1.00  0.00     0.093 C 
BRANCH  14  15
HETATM   15  N1  UNL     1      16.617   3.167  51.520  1.00  0.00    -0.337 N 
HETATM   16  C3  UNL     1      15.558   3.585  52.359  1.00  0.00     0.221 C 
HETATM   17  O1  UNL     1      15.770   4.491  53.199  1.00  0.00    -0.273 OA
HETATM   18  H6  UNL     1      16.347   2.413  50.856  1.00  0.00     0.168 HD
BRANCH  16  19
HETATM   19  C2  UNL     1      14.182   2.976  52.273  1.00  0.00     0.098 C 
HETATM   20  C1  UNL     1      13.326   3.503  53.405  1.00  0.00     0.014 C 
ENDBRANCH  16  19
ENDBRANCH  14  15
ENDBRANCH   1  13
BRANCH   6  21
HETATM   21  O2  UNL     1      27.168   2.492  51.174  1.00  0.00    -0.309 OA
BRANCH  21  22
HETATM   22  C10 UNL     1      27.245   1.774  52.359  1.00  0.00     0.093 A 
HETATM   23  C11 UNL     1      26.842   0.451  52.144  1.00  0.00     0.040 A 
HETATM   24  C12 UNL     1      26.839  -0.461  53.203  1.00  0.00     0.022 A 
HETATM   25  C13 UNL     1      27.245   0.002  54.442  1.00  0.00     0.116 A 
HETATM   26  N4  UNL     1      27.625   1.274  54.621  1.00  0.00    -0.270 NA
HETATM   27  C14 UNL     1      27.638   2.165  53.623  1.00  0.00     0.153 A 
ENDBRANCH  21  22
ENDBRANCH   6  21
TORSDOF 5
ENDMDL
MODEL 7
REMARK VINA RESULT:      -7.0      5.526      8.451
REMARK  5 active torsions:
REMARK  status: ('A' for Active; 'I' for Inactive)
REMARK    1  A    between atoms: C2_2  and  C3_3 
REMARK       I    between atoms: C3_3  and  N1_5 
REMARK    2  A    between atoms: N1_5  and  C4_6 
REMARK    3  A    between atoms: C5_7  and  C6_8 
REMARK    4  A    between atoms: C9_13  and  O2_14 
REMARK    5  A    between atoms: O2_14  and  C10_15 
ROOT
HETATM    1  C6  UNL     1      20.134   2.777  52.134  1.00  0.00     0.065 C 
HETATM    2  N2  UNL     1      20.347   1.621  52.601  1.00  0.00    -0.178 NA
HETATM    3  N3  UNL     1      21.410   1.062  53.268  1.00  0.00    -0.277 N 
HETATM    4  C7  UNL     1      22.719   1.209  52.771  1.00  0.00     0.069 A 
HETATM    5  C8  UNL     1      23.595   0.194  53.177  1.00  0.00     0.069 A 
HETATM    6  C9  UNL     1      24.928   0.104  52.831  1.00  0.00     0.078 A 
HETATM    7  C15 UNL     1      25.444   1.090  52.022  1.00  0.00     0.039 A 
HETATM    8  C16 UNL     1      24.652   2.128  51.577  1.00  0.00     0.024 A 
HETATM    9  C17 UNL     1      23.314   2.170  51.955  1.00  0.00     0.029 A 
HETATM   10  S1  UNL     1      22.566   3.616  51.226  1.00  0.00    -0.121 SA
HETATM   11  C18 UNL     1      21.031   3.959  52.170  1.00  0.00     0.140 C 
HETATM   12  H9  UNL     1      21.352   0.498  54.162  1.00  0.00     0.189 HD
ENDROOT
BRANCH   1  13
HETATM   13  C5  UNL     1      18.829   2.897  51.497  1.00  0.00     0.047 C 
HETATM   14  C4  UNL     1      17.680   2.279  51.499  1.00  0.00     0.093 C 
BRANCH  14  15
HETATM   15  N1  UNL     1      16.421   2.363  50.909  1.00  0.00    -0.337 N 
HETATM   16  C3  UNL     1      15.464   3.397  51.022  1.00  0.00     0.221 C 
HETATM   17  O1  UNL     1      15.729   4.395  51.734  1.00  0.00    -0.273 OA
HETATM   18  H6  UNL     1      16.113   1.579  50.298  1.00  0.00     0.168 HD
BRANCH  16  19
HETATM   19  C2  UNL     1      14.135   3.339  50.314  1.00  0.00     0.098 C 
HETATM   20  C1  UNL     1      13.017   3.396  51.334  1.00  0.00     0.014 C 
ENDBRANCH  16  19
ENDBRANCH  14  15
ENDBRANCH   1  13
BRANCH   6  21
HETATM   21  O2  UNL     1      25.681  -0.962  53.306  1.00  0.00    -0.309 OA
BRANCH  21  22
HETATM   22  C10 UNL     1      26.987  -0.701  53.698  1.00  0.00     0.093 A 
HETATM   23  C11 UNL     1      27.874  -1.505  52.971  1.00  0.00     0.040 A 
HETATM   24  C12 UNL     1      29.249  -1.413  53.200  1.00  0.00     0.022 A 
HETATM   25  C13 UNL     1      29.676  -0.510  54.157  1.00  0.00     0.116 A 
HETATM   26  N4  UNL     1      28.807   0.247  54.839  1.00  0.00    -0.270 NA
HETATM   27  C14 UNL     1      27.485   0.178  54.637  1.00  0.00     0.153 A 
ENDBRANCH  21  22
ENDBRANCH   6  21
TORSDOF 5
ENDMDL
MODEL 8
REMARK VINA RESULT:      -7.0      2.092      2.279
REMARK  5 active torsions:
REMARK  status: ('A' for Active; 'I' for Inactive)
REMARK    1  A    between atoms: C2_2  and  C3_3 
REMARK       I    between atoms: C3_3  and  N1_5 
REMARK    2  A    between atoms: N1_5  and  C4_6 
REMARK    3  A    between atoms: C5_7  and  C6_8 
REMARK    4  A    between atoms: C9_13  and  O2_14 
REMARK    5  A    between atoms: O2_14  and  C10_15 
ROOT
HETATM    1  C6  UNL     1      24.780   5.164  49.268  1.00  0.00     0.065 C 
HETATM    2  N2  UNL     1      25.669   4.960  50.145  1.00  0.00    -0.178 NA
HETATM    3  N3  UNL     1      26.097   3.830  50.800  1.00  0.00    -0.277 N 
HETATM    4  C7  UNL     1      25.167   2.960  51.400  1.00  0.00     0.069 A 
HETATM    5  C8  UNL     1      25.698   2.206  52.455  1.00  0.00     0.069 A 
HETATM    6  C9  UNL     1      25.000   1.283  53.206  1.00  0.00     0.078 A 
HETATM    7  C15 UNL     1      23.674   1.082  52.898  1.00  0.00     0.039 A 
HETATM    8  C16 UNL     1      23.072   1.782  51.874  1.00  0.00     0.024 A 
HETATM    9  C17 UNL     1      23.821   2.702  51.148  1.00  0.00     0.029 A 
HETATM   10  S1  UNL     1      22.769   3.435  49.907  1.00  0.00    -0.121 SA
HETATM   11  C18 UNL     1      23.870   4.174  48.640  1.00  0.00     0.140 C 
HETATM   12  H9  UNL     1      27.105   3.525  50.913  1.00  0.00     0.189 HD
ENDROOT
BRANCH   1  13
HETATM   13  C5  UNL     1      24.691   6.562  48.869  1.00  0.00     0.047 C 
HETATM   14  C4  UNL     1      25.420   7.449  48.248  1.00  0.00     0.093 C 
BRANCH  14  15
HETATM   15  N1  UNL     1      25.369   8.784  47.851  1.00  0.00    -0.337 N 
HETATM   16  C3  UNL     1      25.695   9.937  48.601  1.00  0.00     0.221 C 
HETATM   17  O1  UNL     1      26.089   9.802  49.784  1.00  0.00    -0.273 OA
HETATM   18  H6  UNL     1      25.053   8.994  46.883  1.00  0.00     0.168 HD
BRANCH  16  19
HETATM   19  C2  UNL     1      25.585  11.325  48.023  1.00  0.00     0.098 C 
HETATM   20  C1  UNL     1      26.972  11.880  47.777  1.00  0.00     0.014 C 
ENDBRANCH  16  19
ENDBRANCH  14  15
ENDBRANCH   1  13
BRANCH   6  21
HETATM   21  O2  UNL     1      25.655   0.605  54.226  1.00  0.00    -0.309 OA
BRANCH  21  22
HETATM   22  C10 UNL     1      26.716  -0.218  53.874  1.00  0.00     0.093 A 
HETATM   23  C11 UNL     1      26.272  -1.225  53.007  1.00  0.00     0.040 A 
HETATM   24  C12 UNL     1      27.174  -2.174  52.520  1.00  0.00     0.022 A 
HETATM   25  C13 UNL     1      28.492  -2.071  52.928  1.00  0.00     0.116 A 
HETATM   26  N4  UNL     1      28.889  -1.098  53.759  1.00  0.00    -0.270 NA
HETATM   27  C14 UNL     1      28.046  -0.176  54.239  1.00  0.00     0.153 A 
ENDBRANCH  21  22
ENDBRANCH   6  21
TORSDOF 5
ENDMDL
MODEL 9
REMARK VINA RESULT:      -6.9      3.829      8.681
REMARK  5 active torsions:
REMARK  status: ('A' for Active; 'I' for Inactive)
REMARK    1  A    between atoms: C2_2  and  C3_3 
REMARK       I    between atoms: C3_3  and  N1_5 
REMARK    2  A    between atoms: N1_5  and  C4_6 
REMARK    3  A    between atoms: C5_7  and  C6_8 
REMARK    4  A    between atoms: C9_13  and  O2_14 
REMARK    5  A    between atoms: O2_14  and  C10_15 
ROOT
HETATM    1  C6  UNL     1      24.107   4.206  51.015  1.00  0.00     0.065 C 
HETATM    2  N2  UNL     1      25.209   3.779  50.563  1.00  0.00    -0.178 NA
HETATM    3  N3  UNL     1      26.379   4.403  50.204  1.00  0.00    -0.277 N 
HETATM    4  C7  UNL     1      26.356   5.528  49.358  1.00  0.00     0.069 A 
HETATM    5  C8  UNL     1      27.546   5.723  48.644  1.00  0.00     0.069 A 
HETATM    6  C9  UNL     1      27.782   6.747  47.751  1.00  0.00     0.078 A 
HETATM    7  C15 UNL     1      26.771   7.656  47.541  1.00  0.00     0.039 A 
HETATM    8  C16 UNL     1      25.566   7.540  48.203  1.00  0.00     0.024 A 
HETATM    9  C17 UNL     1      25.380   6.487  49.093  1.00  0.00     0.029 A 
HETATM   10  S1  UNL     1      23.738   6.611  49.779  1.00  0.00    -0.121 SA
HETATM   11  C18 UNL     1      23.722   5.608  51.315  1.00  0.00     0.140 C 
HETATM   12  H9  UNL     1      27.352   4.116  50.509  1.00  0.00     0.189 HD
ENDROOT
BRANCH   1  13
HETATM   13  C5  UNL     1      23.141   3.141  51.248  1.00  0.00     0.047 C 
HETATM   14  C4  UNL     1      22.442   2.655  52.237  1.00  0.00     0.093 C 
BRANCH  14  15
HETATM   15  N1  UNL     1      21.517   1.646  52.496  1.00  0.00    -0.337 N 
HETATM   16  C3  UNL     1      21.685   0.477  53.272  1.00  0.00     0.221 C 
HETATM   17  O1  UNL     1      22.791   0.269  53.826  1.00  0.00    -0.273 OA
HETATM   18  H6  UNL     1      20.568   1.733  52.077  1.00  0.00     0.168 HD
BRANCH  16  19
HETATM   19  C2  UNL     1      20.576  -0.527  53.457  1.00  0.00     0.098 C 
HETATM   20  C1  UNL     1      21.075  -1.680  54.303  1.00  0.00     0.014 C 
ENDBRANCH  16  19
ENDBRANCH  14  15
ENDBRANCH   1  13
BRANCH   6  21
HETATM   21  O2  UNL     1      29.013   6.818  47.111  1.00  0.00    -0.309 OA
BRANCH  21  22
HETATM   22  C10 UNL     1      30.132   6.405  47.821  1.00  0.00     0.093 A 
HETATM   23  C11 UNL     1      30.576   7.438  48.656  1.00  0.00     0.040 A 
HETATM   24  C12 UNL     1      31.696   7.247  49.469  1.00  0.00     0.022 A 
HETATM   25  C13 UNL     1      32.326   6.016  49.408  1.00  0.00     0.116 A 
HETATM   26  N4  UNL     1      31.881   5.046  48.599  1.00  0.00    -0.270 NA
HETATM   27  C14 UNL     1      30.810   5.204  47.811  1.00  0.00     0.153 A 
ENDBRANCH  21  22
ENDBRANCH   6  21
TORSDOF 5
ENDMDL
