MODEL 1
REMARK VINA RESULT:      -7.2      0.000      0.000
REMARK  5 active torsions:
REMARK  status: ('A' for Active; 'I' for Inactive)
REMARK    1  A    between atoms: C4_4  and  C5_5 
REMARK    2  A    between atoms: C5_5  and  C6_6 
REMARK    3  A    between atoms: C6_6  and  N2_9 
REMARK    4  A    between atoms: N2_9  and  C8_10 
REMARK    5  A    between atoms: C9_12  and  C10_13 
ROOT
HETATM    1  C1  UNL     1      26.505   3.812  49.716  1.00  0.00     0.017 C 
HETATM    2  C2  UNL     1      26.285   2.888  50.460  1.00  0.00    -0.090 C 
HETATM    3  C3  UNL     1      26.012   1.790  51.344  1.00  0.00     0.059 C 
HETATM    4  C4  UNL     1      26.895   0.800  51.565  1.00  0.00    -0.015 C 
ENDROOT
BRANCH   4   5
HETATM    5  C5  UNL     1      26.621  -0.316  52.460  1.00  0.00     0.068 C 
BRANCH   5   6
HETATM    6  C6  UNL     1      26.224   0.069  53.849  1.00  0.00     0.194 C 
HETATM    7  C7  UNL     1      27.421   0.122  54.712  1.00  0.00     0.085 C 
HETATM    8  N1  UNL     1      28.368   0.167  55.378  1.00  0.00    -0.195 NA
BRANCH   6   9
HETATM    9  N2  UNL     1      25.289  -0.823  54.463  1.00  0.00    -0.352 N 
HETATM   10  H7  UNL     1      25.469  -1.547  55.190  1.00  0.00     0.163 HD
BRANCH   9  11
HETATM   11  C8  UNL     1      23.974  -0.587  53.916  1.00  0.00     0.168 A 
HETATM   12  N3  UNL     1      23.471  -0.112  53.005  1.00  0.00    -0.224 NA
HETATM   13  C9  UNL     1      22.206   0.003  52.683  1.00  0.00     0.076 A 
HETATM   14  C16 UNL     1      21.323  -0.596  53.696  1.00  0.00     0.085 A 
HETATM   15  S1  UNL     1      22.503  -1.219  54.936  1.00  0.00    -0.062 SA
BRANCH  13  16
HETATM   16  C10 UNL     1      21.673   0.632  51.489  1.00  0.00    -0.007 A 
HETATM   17  C11 UNL     1      20.365   0.506  51.087  1.00  0.00     0.015 A 
HETATM   18  C12 UNL     1      19.848   1.103  49.947  1.00  0.00     0.024 A 
HETATM   19  C13 UNL     1      20.670   1.874  49.152  1.00  0.00     0.034 A 
HETATM   20 CL1  UNL     1      20.026   2.626  47.719  1.00  0.00    -0.084 Cl
HETATM   21  C14 UNL     1      22.001   2.035  49.511  1.00  0.00     0.024 A 
HETATM   22  C15 UNL     1      22.443   1.410  50.657  1.00  0.00     0.015 A 
ENDBRANCH  13  16
ENDBRANCH   9  11
ENDBRANCH   6   9
ENDBRANCH   5   6
ENDBRANCH   4   5
TORSDOF 5
ENDMDL
MODEL 2
REMARK VINA RESULT:      -6.9      4.164      6.762
REMARK  5 active torsions:
REMARK  status: ('A' for Active; 'I' for Inactive)
REMARK    1  A    between atoms: C4_4  and  C5_5 
REMARK    2  A    between atoms: C5_5  and  C6_6 
REMARK    3  A    between atoms: C6_6  and  N2_9 
REMARK    4  A    between atoms: N2_9  and  C8_10 
REMARK    5  A    between atoms: C9_12  and  C10_13 
ROOT
HETATM    1  C1  UNL     1      28.453   5.483  48.208  1.00  0.00     0.017 C 
HETATM    2  C2  UNL     1      27.324   5.645  48.601  1.00  0.00    -0.090 C 
HETATM    3  C3  UNL     1      25.979   5.827  49.066  1.00  0.00     0.059 C 
HETATM    4  C4  UNL     1      25.667   6.653  50.082  1.00  0.00    -0.015 C 
ENDROOT
BRANCH   4   5
HETATM    5  C5  UNL     1      24.303   6.840  50.558  1.00  0.00     0.068 C 
BRANCH   5   6
HETATM    6  C6  UNL     1      23.586   5.583  50.931  1.00  0.00     0.194 C 
HETATM    7  C7  UNL     1      22.156   5.705  50.584  1.00  0.00     0.085 C 
HETATM    8  N1  UNL     1      21.037   5.807  50.300  1.00  0.00    -0.195 NA
BRANCH   6   9
HETATM    9  N2  UNL     1      23.665   5.251  52.320  1.00  0.00    -0.352 N 
HETATM   10  H7  UNL     1      23.520   5.874  53.143  1.00  0.00     0.163 HD
BRANCH   9  11
HETATM   11  C8  UNL     1      23.997   3.853  52.460  1.00  0.00     0.168 A 
HETATM   12  N3  UNL     1      24.900   3.176  52.647  1.00  0.00    -0.224 NA
HETATM   13  C9  UNL     1      24.993   1.872  52.742  1.00  0.00     0.076 A 
HETATM   14  C16 UNL     1      23.689   1.213  52.570  1.00  0.00     0.085 A 
HETATM   15  S1  UNL     1      22.563   2.619  52.302  1.00  0.00    -0.062 SA
BRANCH  13  16
HETATM   16  C10 UNL     1      26.203   1.109  52.985  1.00  0.00    -0.007 A 
HETATM   17  C11 UNL     1      26.303  -0.243  52.759  1.00  0.00     0.015 A 
HETATM   18  C12 UNL     1      27.454  -0.980  52.989  1.00  0.00     0.024 A 
HETATM   19  C13 UNL     1      28.580  -0.347  53.472  1.00  0.00     0.034 A 
HETATM   20 CL1  UNL     1      30.029  -1.267  53.764  1.00  0.00    -0.084 Cl
HETATM   21  C14 UNL     1      28.535   1.018  53.720  1.00  0.00     0.024 A 
HETATM   22  C15 UNL     1      27.355   1.684  53.467  1.00  0.00     0.015 A 
ENDBRANCH  13  16
ENDBRANCH   9  11
ENDBRANCH   6   9
ENDBRANCH   5   6
ENDBRANCH   4   5
TORSDOF 5
ENDMDL
MODEL 3
REMARK VINA RESULT:      -6.7      2.698      3.111
REMARK  5 active torsions:
REMARK  status: ('A' for Active; 'I' for Inactive)
REMARK    1  A    between atoms: C4_4  and  C5_5 
REMARK    2  A    between atoms: C5_5  and  C6_6 
REMARK    3  A    between atoms: C6_6  and  N2_9 
REMARK    4  A    between atoms: N2_9  and  C8_10 
REMARK    5  A    between atoms: C9_12  and  C10_13 
ROOT
HETATM    1  C1  UNL     1      26.567   3.256  49.865  1.00  0.00     0.017 C 
HETATM    2  C2  UNL     1      26.450   2.523  50.816  1.00  0.00    -0.090 C 
HETATM    3  C3  UNL     1      26.305   1.659  51.953  1.00  0.00     0.059 C 
HETATM    4  C4  UNL     1      26.231   0.320  51.842  1.00  0.00    -0.015 C 
ENDROOT
BRANCH   4   5
HETATM    5  C5  UNL     1      26.083  -0.560  52.993  1.00  0.00     0.068 C 
BRANCH   5   6
HETATM    6  C6  UNL     1      24.944  -0.226  53.903  1.00  0.00     0.194 C 
HETATM    7  C7  UNL     1      25.203  -0.779  55.247  1.00  0.00     0.085 C 
HETATM    8  N1  UNL     1      25.419  -1.211  56.301  1.00  0.00    -0.195 NA
BRANCH   6   9
HETATM    9  N2  UNL     1      23.677  -0.726  53.467  1.00  0.00    -0.352 N 
HETATM   10  H7  UNL     1      23.360  -1.717  53.405  1.00  0.00     0.163 HD
BRANCH   9  11
HETATM   11  C8  UNL     1      22.829   0.381  53.095  1.00  0.00     0.168 A 
HETATM   12  N3  UNL     1      22.902   1.457  52.713  1.00  0.00    -0.224 NA
HETATM   13  C9  UNL     1      21.970   2.333  52.425  1.00  0.00     0.076 A 
HETATM   14  C16 UNL     1      20.619   1.793  52.647  1.00  0.00     0.085 A 
HETATM   15  S1  UNL     1      20.956   0.103  53.237  1.00  0.00    -0.062 SA
BRANCH  13  16
HETATM   16  C10 UNL     1      22.176   3.685  51.942  1.00  0.00    -0.007 A 
HETATM   17  C11 UNL     1      21.175   4.457  51.403  1.00  0.00     0.015 A 
HETATM   18  C12 UNL     1      21.364   5.750  50.938  1.00  0.00     0.024 A 
HETATM   19  C13 UNL     1      22.618   6.320  51.009  1.00  0.00     0.034 A 
HETATM   20 CL1  UNL     1      22.861   7.943  50.427  1.00  0.00    -0.084 Cl
HETATM   21  C14 UNL     1      23.667   5.585  51.544  1.00  0.00     0.024 A 
HETATM   22  C15 UNL     1      23.402   4.306  51.985  1.00  0.00     0.015 A 
ENDBRANCH  13  16
ENDBRANCH   9  11
ENDBRANCH   6   9
ENDBRANCH   5   6
ENDBRANCH   4   5
TORSDOF 5
ENDMDL
MODEL 4
REMARK VINA RESULT:      -6.6      3.273      6.066
REMARK  5 active torsions:
REMARK  status: ('A' for Active; 'I' for Inactive)
REMARK    1  A    between atoms: C4_4  and  C5_5 
REMARK    2  A    between atoms: C5_5  and  C6_6 
REMARK    3  A    between atoms: C6_6  and  N2_9 
REMARK    4  A    between atoms: N2_9  and  C8_10 
REMARK    5  A    between atoms: C9_12  and  C10_13 
ROOT
HETATM    1  C1  UNL     1      19.311  -0.455  52.987  1.00  0.00     0.017 C 
HETATM    2  C2  UNL     1      20.512  -0.418  52.875  1.00  0.00    -0.090 C 
HETATM    3  C3  UNL     1      21.939  -0.367  52.732  1.00  0.00     0.059 C 
HETATM    4  C4  UNL     1      22.774  -0.334  53.788  1.00  0.00    -0.015 C 
ENDROOT
BRANCH   4   5
HETATM    5  C5  UNL     1      24.222  -0.282  53.647  1.00  0.00     0.068 C 
BRANCH   5   6
HETATM    6  C6  UNL     1      24.756   0.987  53.065  1.00  0.00     0.194 C 
HETATM    7  C7  UNL     1      25.983   1.385  53.784  1.00  0.00     0.085 C 
HETATM    8  N1  UNL     1      26.949   1.685  54.350  1.00  0.00    -0.195 NA
BRANCH   6   9
HETATM    9  N2  UNL     1      23.846   2.089  53.123  1.00  0.00    -0.352 N 
HETATM   10  H7  UNL     1      23.188   2.344  53.889  1.00  0.00     0.163 HD
BRANCH   9  11
HETATM   11  C8  UNL     1      23.952   2.860  51.907  1.00  0.00     0.168 A 
HETATM   12  N3  UNL     1      24.725   3.442  51.298  1.00  0.00    -0.224 NA
HETATM   13  C9  UNL     1      24.613   4.101  50.170  1.00  0.00     0.076 A 
HETATM   14  C16 UNL     1      23.242   4.055  49.638  1.00  0.00     0.085 A 
HETATM   15  S1  UNL     1      22.365   3.056  50.883  1.00  0.00    -0.062 SA
BRANCH  13  16
HETATM   16  C10 UNL     1      25.672   4.811  49.477  1.00  0.00    -0.007 A 
HETATM   17  C11 UNL     1      25.546   6.102  49.024  1.00  0.00     0.015 A 
HETATM   18  C12 UNL     1      26.552   6.788  48.361  1.00  0.00     0.024 A 
HETATM   19  C13 UNL     1      27.760   6.164  48.128  1.00  0.00     0.034 A 
HETATM   20 CL1  UNL     1      29.027   7.020  47.295  1.00  0.00    -0.084 Cl
HETATM   21  C14 UNL     1      27.942   4.859  48.564  1.00  0.00     0.024 A 
HETATM   22  C15 UNL     1      26.896   4.242  49.216  1.00  0.00     0.015 A 
ENDBRANCH  13  16
ENDBRANCH   9  11
ENDBRANCH   6   9
ENDBRANCH   5   6
ENDBRANCH   4   5
TORSDOF 5
ENDMDL
MODEL 5
REMARK VINA RESULT:      -6.5      3.665      7.092
REMARK  5 active torsions:
REMARK  status: ('A' for Active; 'I' for Inactive)
REMARK    1  A    between atoms: C4_4  and  C5_5 
REMARK    2  A    between atoms: C5_5  and  C6_6 
REMARK    3  A    between atoms: C6_6  and  N2_9 
REMARK    4  A    between atoms: N2_9  and  C8_10 
REMARK    5  A    between atoms: C9_12  and  C10_13 
ROOT
HETATM    1  C1  UNL     1      17.205   2.141  48.983  1.00  0.00     0.017 C 
HETATM    2  C2  UNL     1      17.500   1.421  49.905  1.00  0.00    -0.090 C 
HETATM    3  C3  UNL     1      17.843   0.555  50.997  1.00  0.00     0.059 C 
HETATM    4  C4  UNL     1      19.011   0.651  51.660  1.00  0.00    -0.015 C 
ENDROOT
BRANCH   4   5
HETATM    5  C5  UNL     1      19.363  -0.226  52.768  1.00  0.00     0.068 C 
BRANCH   5   6
HETATM    6  C6  UNL     1      20.822  -0.286  53.088  1.00  0.00     0.194 C 
HETATM    7  C7  UNL     1      21.060  -1.297  54.138  1.00  0.00     0.085 C 
HETATM    8  N1  UNL     1      21.236  -2.097  54.957  1.00  0.00    -0.195 NA
BRANCH   6   9
HETATM    9  N2  UNL     1      21.375   0.951  53.547  1.00  0.00    -0.352 N 
HETATM   10  H7  UNL     1      20.940   1.660  54.175  1.00  0.00     0.163 HD
BRANCH   9  11
HETATM   11  C8  UNL     1      22.700   1.115  52.999  1.00  0.00     0.168 A 
HETATM   12  N3  UNL     1      23.776   0.770  53.177  1.00  0.00    -0.224 NA
HETATM   13  C9  UNL     1      24.886   1.047  52.536  1.00  0.00     0.076 A 
HETATM   14  C16 UNL     1      24.656   1.960  51.406  1.00  0.00     0.085 A 
HETATM   15  S1  UNL     1      22.860   2.248  51.484  1.00  0.00    -0.062 SA
BRANCH  13  16
HETATM   16  C10 UNL     1      26.211   0.548  52.851  1.00  0.00    -0.007 A 
HETATM   17  C11 UNL     1      27.194   1.320  53.425  1.00  0.00     0.015 A 
HETATM   18  C12 UNL     1      28.463   0.851  53.729  1.00  0.00     0.024 A 
HETATM   19  C13 UNL     1      28.787  -0.460  53.451  1.00  0.00     0.034 A 
HETATM   20 CL1  UNL     1      30.379  -1.054  53.830  1.00  0.00    -0.084 Cl
HETATM   21  C14 UNL     1      27.832  -1.285  52.871  1.00  0.00     0.024 A 
HETATM   22  C15 UNL     1      26.593  -0.748  52.598  1.00  0.00     0.015 A 
ENDBRANCH  13  16
ENDBRANCH   9  11
ENDBRANCH   6   9
ENDBRANCH   5   6
ENDBRANCH   4   5
TORSDOF 5
ENDMDL
MODEL 6
REMARK VINA RESULT:      -6.4      3.817      7.259
REMARK  5 active torsions:
REMARK  status: ('A' for Active; 'I' for Inactive)
REMARK    1  A    between atoms: C4_4  and  C5_5 
REMARK    2  A    between atoms: C5_5  and  C6_6 
REMARK    3  A    between atoms: C6_6  and  N2_9 
REMARK    4  A    between atoms: N2_9  and  C8_10 
REMARK    5  A    between atoms: C9_12  and  C10_13 
ROOT
HETATM    1  C1  UNL     1      21.564  -0.583  54.886  1.00  0.00     0.017 C 
HETATM    2  C2  UNL     1      20.879  -0.093  54.023  1.00  0.00    -0.090 C 
HETATM    3  C3  UNL     1      20.069   0.500  52.996  1.00  0.00     0.059 C 
HETATM    4  C4  UNL     1      19.504  -0.220  52.011  1.00  0.00    -0.015 C 
ENDROOT
BRANCH   4   5
HETATM    5  C5  UNL     1      18.683   0.378  50.967  1.00  0.00     0.068 C 
BRANCH   5   6
HETATM    6  C6  UNL     1      19.284   1.570  50.294  1.00  0.00     0.194 C 
HETATM    7  C7  UNL     1      18.215   2.393  49.693  1.00  0.00     0.085 C 
HETATM    8  N1  UNL     1      17.369   3.035  49.231  1.00  0.00    -0.195 NA
BRANCH   6   9
HETATM    9  N2  UNL     1      20.218   1.252  49.259  1.00  0.00    -0.352 N 
HETATM   10  H7  UNL     1      20.036   0.782  48.346  1.00  0.00     0.163 HD
BRANCH   9  11
HETATM   11  C8  UNL     1      21.536   1.687  49.654  1.00  0.00     0.168 A 
HETATM   12  N3  UNL     1      22.365   1.423  50.397  1.00  0.00    -0.224 NA
HETATM   13  C9  UNL     1      23.539   1.968  50.605  1.00  0.00     0.076 A 
HETATM   14  C16 UNL     1      23.784   3.108  49.708  1.00  0.00     0.085 A 
HETATM   15  S1  UNL     1      22.255   3.178  48.723  1.00  0.00    -0.062 SA
BRANCH  13  16
HETATM   16  C10 UNL     1      24.524   1.547  51.584  1.00  0.00    -0.007 A 
HETATM   17  C11 UNL     1      24.224   0.753  52.666  1.00  0.00     0.015 A 
HETATM   18  C12 UNL     1      25.158   0.347  53.606  1.00  0.00     0.024 A 
HETATM   19  C13 UNL     1      26.472   0.746  53.474  1.00  0.00     0.034 A 
HETATM   20 CL1  UNL     1      27.650   0.239  54.652  1.00  0.00    -0.084 Cl
HETATM   21  C14 UNL     1      26.831   1.549  52.400  1.00  0.00     0.024 A 
HETATM   22  C15 UNL     1      25.847   1.913  51.506  1.00  0.00     0.015 A 
ENDBRANCH  13  16
ENDBRANCH   9  11
ENDBRANCH   6   9
ENDBRANCH   5   6
ENDBRANCH   4   5
TORSDOF 5
ENDMDL
MODEL 7
REMARK VINA RESULT:      -6.2      3.688      5.163
REMARK  5 active torsions:
REMARK  status: ('A' for Active; 'I' for Inactive)
REMARK    1  A    between atoms: C4_4  and  C5_5 
REMARK    2  A    between atoms: C5_5  and  C6_6 
REMARK    3  A    between atoms: C6_6  and  N2_9 
REMARK    4  A    between atoms: N2_9  and  C8_10 
REMARK    5  A    between atoms: C9_12  and  C10_13 
ROOT
HETATM    1  C1  UNL     1      26.742  -0.275  52.653  1.00  0.00     0.017 C 
HETATM    2  C2  UNL     1      26.532   0.588  51.837  1.00  0.00    -0.090 C 
HETATM    3  C3  UNL     1      26.277   1.607  50.859  1.00  0.00     0.059 C 
HETATM    4  C4  UNL     1      26.024   2.886  51.192  1.00  0.00    -0.015 C 
ENDROOT
BRANCH   4   5
HETATM    5  C5  UNL     1      25.764   3.923  50.203  1.00  0.00     0.068 C 
BRANCH   5   6
HETATM    6  C6  UNL     1      24.678   4.885  50.564  1.00  0.00     0.194 C 
HETATM    7  C7  UNL     1      25.177   6.268  50.436  1.00  0.00     0.085 C 
HETATM    8  N1  UNL     1      25.576   7.351  50.326  1.00  0.00    -0.195 NA
BRANCH   6   9
HETATM    9  N2  UNL     1      24.173   4.729  51.893  1.00  0.00    -0.352 N 
HETATM   10  H7  UNL     1      24.648   4.946  52.795  1.00  0.00     0.163 HD
BRANCH   9  11
HETATM   11  C8  UNL     1      22.832   4.197  51.835  1.00  0.00     0.168 A 
HETATM   12  N3  UNL     1      22.246   3.255  52.113  1.00  0.00    -0.224 NA
HETATM   13  C9  UNL     1      20.977   2.957  51.970  1.00  0.00     0.076 A 
HETATM   14  C16 UNL     1      20.222   4.053  51.340  1.00  0.00     0.085 A 
HETATM   15  S1  UNL     1      21.504   5.318  51.072  1.00  0.00    -0.062 SA
BRANCH  13  16
HETATM   16  C10 UNL     1      20.332   1.718  52.362  1.00  0.00    -0.007 A 
HETATM   17  C11 UNL     1      19.194   1.235  51.762  1.00  0.00     0.015 A 
HETATM   18  C12 UNL     1      18.570   0.053  52.131  1.00  0.00     0.024 A 
HETATM   19  C13 UNL     1      19.100  -0.703  53.156  1.00  0.00     0.034 A 
HETATM   20 CL1  UNL     1      18.322  -2.188  53.624  1.00  0.00    -0.084 Cl
HETATM   21  C14 UNL     1      20.249  -0.261  53.798  1.00  0.00     0.024 A 
HETATM   22  C15 UNL     1      20.812   0.924  53.376  1.00  0.00     0.015 A 
ENDBRANCH  13  16
ENDBRANCH   9  11
ENDBRANCH   6   9
ENDBRANCH   5   6
ENDBRANCH   4   5
TORSDOF 5
ENDMDL
MODEL 8
REMARK VINA RESULT:      -6.1      2.834      5.272
REMARK  5 active torsions:
REMARK  status: ('A' for Active; 'I' for Inactive)
REMARK    1  A    between atoms: C4_4  and  C5_5 
REMARK    2  A    between atoms: C5_5  and  C6_6 
REMARK    3  A    between atoms: C6_6  and  N2_9 
REMARK    4  A    between atoms: N2_9  and  C8_10 
REMARK    5  A    between atoms: C9_12  and  C10_13 
ROOT
HETATM    1  C1  UNL     1      17.034  -0.572  51.486  1.00  0.00     0.017 C 
HETATM    2  C2  UNL     1      18.049  -0.471  52.129  1.00  0.00    -0.090 C 
HETATM    3  C3  UNL     1      19.258  -0.362  52.895  1.00  0.00     0.059 C 
HETATM    4  C4  UNL     1      20.154   0.623  52.702  1.00  0.00    -0.015 C 
ENDROOT
BRANCH   4   5
HETATM    5  C5  UNL     1      21.382   0.736  53.477  1.00  0.00     0.068 C 
BRANCH   5   6
HETATM    6  C6  UNL     1      22.362  -0.375  53.276  1.00  0.00     0.194 C 
HETATM    7  C7  UNL     1      22.335  -1.280  54.441  1.00  0.00     0.085 C 
HETATM    8  N1  UNL     1      22.300  -1.988  55.358  1.00  0.00    -0.195 NA
BRANCH   6   9
HETATM    9  N2  UNL     1      23.714   0.059  53.098  1.00  0.00    -0.352 N 
HETATM   10  H7  UNL     1      24.585  -0.366  53.481  1.00  0.00     0.163 HD
BRANCH   9  11
HETATM   11  C8  UNL     1      23.732   1.240  52.268  1.00  0.00     0.168 A 
HETATM   12  N3  UNL     1      23.390   1.598  51.237  1.00  0.00    -0.224 NA
HETATM   13  C9  UNL     1      23.508   2.762  50.646  1.00  0.00     0.076 A 
HETATM   14  C16 UNL     1      24.208   3.740  51.494  1.00  0.00     0.085 A 
HETATM   15  S1  UNL     1      24.565   2.781  53.000  1.00  0.00    -0.062 SA
BRANCH  13  16
HETATM   16  C10 UNL     1      23.032   3.110  49.321  1.00  0.00    -0.007 A 
HETATM   17  C11 UNL     1      22.525   2.190  48.434  1.00  0.00     0.015 A 
HETATM   18  C12 UNL     1      22.068   2.513  47.166  1.00  0.00     0.024 A 
HETATM   19  C13 UNL     1      22.111   3.825  46.742  1.00  0.00     0.034 A 
HETATM   20 CL1  UNL     1      21.539   4.237  45.150  1.00  0.00    -0.084 Cl
HETATM   21  C14 UNL     1      22.614   4.796  47.598  1.00  0.00     0.024 A 
HETATM   22  C15 UNL     1      23.050   4.399  48.843  1.00  0.00     0.015 A 
ENDBRANCH  13  16
ENDBRANCH   9  11
ENDBRANCH   6   9
ENDBRANCH   5   6
ENDBRANCH   4   5
TORSDOF 5
ENDMDL
MODEL 9
REMARK VINA RESULT:      -6.0      2.997      5.992
REMARK  5 active torsions:
REMARK  status: ('A' for Active; 'I' for Inactive)
REMARK    1  A    between atoms: C4_4  and  C5_5 
REMARK    2  A    between atoms: C5_5  and  C6_6 
REMARK    3  A    between atoms: C6_6  and  N2_9 
REMARK    4  A    between atoms: N2_9  and  C8_10 
REMARK    5  A    between atoms: C9_12  and  C10_13 
ROOT
HETATM    1  C1  UNL     1      17.589   2.007  49.207  1.00  0.00     0.017 C 
HETATM    2  C2  UNL     1      17.924   1.312  50.134  1.00  0.00    -0.090 C 
HETATM    3  C3  UNL     1      18.315   0.475  51.232  1.00  0.00     0.059 C 
HETATM    4  C4  UNL     1      19.536   0.540  51.795  1.00  0.00    -0.015 C 
ENDROOT
BRANCH   4   5
HETATM    5  C5  UNL     1      19.937  -0.308  52.909  1.00  0.00     0.068 C 
BRANCH   5   6
HETATM    6  C6  UNL     1      21.398  -0.285  53.228  1.00  0.00     0.194 C 
HETATM    7  C7  UNL     1      21.685  -1.246  54.311  1.00  0.00     0.085 C 
HETATM    8  N1  UNL     1      21.901  -2.008  55.157  1.00  0.00    -0.195 NA
BRANCH   6   9
HETATM    9  N2  UNL     1      21.890   0.992  53.642  1.00  0.00    -0.352 N 
HETATM   10  H7  UNL     1      21.468   1.657  54.325  1.00  0.00     0.163 HD
BRANCH   9  11
HETATM   11  C8  UNL     1      23.126   1.275  52.953  1.00  0.00     0.168 A 
HETATM   12  N3  UNL     1      23.595   2.066  52.273  1.00  0.00    -0.224 NA
HETATM   13  C9  UNL     1      24.787   2.139  51.731  1.00  0.00     0.076 A 
HETATM   14  C16 UNL     1      25.625   0.984  52.088  1.00  0.00     0.085 A 
HETATM   15  S1  UNL     1      24.521   0.001  53.151  1.00  0.00    -0.062 SA
BRANCH  13  16
HETATM   16  C10 UNL     1      25.281   3.200  50.875  1.00  0.00    -0.007 A 
HETATM   17  C11 UNL     1      26.398   3.075  50.083  1.00  0.00     0.015 A 
HETATM   18  C12 UNL     1      26.877   4.084  49.262  1.00  0.00     0.024 A 
HETATM   19  C13 UNL     1      26.217   5.294  49.217  1.00  0.00     0.034 A 
HETATM   20 CL1  UNL     1      26.816   6.566  48.189  1.00  0.00    -0.084 Cl
HETATM   21  C14 UNL     1      25.084   5.476  49.998  1.00  0.00     0.024 A 
HETATM   22  C15 UNL     1      24.667   4.427  50.788  1.00  0.00     0.015 A 
ENDBRANCH  13  16
ENDBRANCH   9  11
ENDBRANCH   6   9
ENDBRANCH   5   6
ENDBRANCH   4   5
TORSDOF 5
ENDMDL
