MODEL 1
REMARK VINA RESULT:      -8.2      0.000      0.000
REMARK  9 active torsions:
REMARK  status: ('A' for Active; 'I' for Inactive)
REMARK    1  A    between atoms: C2_2  and  C3_3 
REMARK    2  A    between atoms: C3_3  and  C4_4 
REMARK    3  A    between atoms: C5_5  and  C6_6 
REMARK    4  A    between atoms: C6_6  and  C7_7 
REMARK    5  A    between atoms: C7_7  and  N1_8 
REMARK       I    between atoms: N1_8  and  C8_9 
REMARK    6  A    between atoms: C8_9  and  C9_11 
REMARK    7  A    between atoms: C9_11  and  O2_12 
REMARK    8  A    between atoms: O2_12  and  C10_13 
REMARK    9  A    between atoms: C12_15  and  O3_16 
ROOT
HETATM    1  C10 UNL     1      25.990   2.239  51.950  1.00  0.00     0.074 C 
HETATM    2  C11 UNL     1      27.280   2.148  52.279  1.00  0.00     0.073 C 
HETATM    3  C12 UNL     1      28.074   1.282  53.179  1.00  0.00     0.072 C 
HETATM    4  C13 UNL     1      27.650   0.624  54.241  1.00  0.00    -0.027 C 
HETATM    5  C14 UNL     1      28.811  -0.116  54.836  1.00  0.00     0.048 C 
HETATM    6  C15 UNL     1      26.433   0.389  55.013  1.00  0.00     0.212 C 
HETATM    7  O4  UNL     1      25.279   0.095  54.275  1.00  0.00    -0.346 OA
HETATM    8  C16 UNL     1      24.449   0.603  53.289  1.00  0.00     0.082 C 
HETATM    9  C17 UNL     1      23.105   0.106  53.310  1.00  0.00    -0.003 A 
HETATM   10  C18 UNL     1      22.042   0.395  52.504  1.00  0.00     0.014 A 
HETATM   11  C19 UNL     1      20.779  -0.144  52.607  1.00  0.00     0.001 A 
HETATM   12  C20 UNL     1      20.525  -1.060  53.601  1.00  0.00     0.000 A 
HETATM   13  C21 UNL     1      21.552  -1.389  54.441  1.00  0.00     0.001 A 
HETATM   14  C22 UNL     1      22.787  -0.816  54.283  1.00  0.00     0.014 A 
HETATM   15  C23 UNL     1      24.835   1.469  52.393  1.00  0.00     0.074 C 
ENDROOT
BRANCH   1  16
HETATM   16  O2  UNL     1      25.686   3.233  51.033  1.00  0.00    -0.342 OA
BRANCH  16  17
HETATM   17  C9  UNL     1      26.414   3.488  49.874  1.00  0.00     0.278 C 
BRANCH  17  18
HETATM   18  C8  UNL     1      26.284   4.936  49.582  1.00  0.00     0.241 C 
HETATM   19  N1  UNL     1      25.554   5.836  50.369  1.00  0.00    -0.359 N 
HETATM   20  H16 UNL     1      25.101   5.364  51.202  1.00  0.00     0.162 HD
HETATM   21  O1  UNL     1      26.902   5.279  48.544  1.00  0.00    -0.271 OA
BRANCH  19  22
HETATM   22  C7  UNL     1      25.436   7.288  50.061  1.00  0.00     0.122 C 
BRANCH  22  23
HETATM   23  C6  UNL     1      24.306   7.898  50.771  1.00  0.00     0.020 C 
BRANCH  23  24
HETATM   24  C5  UNL     1      22.918   7.657  50.379  1.00  0.00     0.002 C 
HETATM   25  C4  UNL     1      22.005   6.653  50.860  1.00  0.00     0.000 C 
BRANCH  25  26
HETATM   26  C3  UNL     1      22.061   5.215  50.680  1.00  0.00    -0.000 C 
BRANCH  26  27
HETATM   27  C2  UNL     1      22.347   4.233  51.726  1.00  0.00    -0.005 C 
HETATM   28  C1  UNL     1      23.215   4.791  52.859  1.00  0.00     0.005 C 
ENDBRANCH  26  27
ENDBRANCH  25  26
ENDBRANCH  23  24
ENDBRANCH  22  23
ENDBRANCH  19  22
ENDBRANCH  17  18
ENDBRANCH  16  17
ENDBRANCH   1  16
BRANCH   3  29
HETATM   29  O3  UNL     1      29.411   1.191  52.817  1.00  0.00    -0.360 OA
HETATM   30  H20 UNL     1      30.146   1.737  53.195  1.00  0.00     0.217 HD
ENDBRANCH   3  29
TORSDOF 9
ENDMDL
MODEL 2
REMARK VINA RESULT:      -8.1      1.811      5.159
REMARK  9 active torsions:
REMARK  status: ('A' for Active; 'I' for Inactive)
REMARK    1  A    between atoms: C2_2  and  C3_3 
REMARK    2  A    between atoms: C3_3  and  C4_4 
REMARK    3  A    between atoms: C5_5  and  C6_6 
REMARK    4  A    between atoms: C6_6  and  C7_7 
REMARK    5  A    between atoms: C7_7  and  N1_8 
REMARK       I    between atoms: N1_8  and  C8_9 
REMARK    6  A    between atoms: C8_9  and  C9_11 
REMARK    7  A    between atoms: C9_11  and  O2_12 
REMARK    8  A    between atoms: O2_12  and  C10_13 
REMARK    9  A    between atoms: C12_15  and  O3_16 
ROOT
HETATM    1  C10 UNL     1      23.293   2.574  52.546  1.00  0.00     0.074 C 
HETATM    2  C11 UNL     1      22.110   1.986  52.732  1.00  0.00     0.073 C 
HETATM    3  C12 UNL     1      21.648   0.745  53.392  1.00  0.00     0.072 C 
HETATM    4  C13 UNL     1      22.344  -0.353  53.617  1.00  0.00    -0.027 C 
HETATM    5  C14 UNL     1      21.459  -1.344  54.311  1.00  0.00     0.048 C 
HETATM    6  C15 UNL     1      23.680  -0.905  53.409  1.00  0.00     0.212 C 
HETATM    7  O4  UNL     1      24.754  -0.066  53.731  1.00  0.00    -0.346 OA
HETATM    8  C16 UNL     1      25.314   1.165  53.428  1.00  0.00     0.082 C 
HETATM    9  C17 UNL     1      26.720   1.271  53.677  1.00  0.00    -0.003 A 
HETATM   10  C18 UNL     1      27.576   2.318  53.488  1.00  0.00     0.014 A 
HETATM   11  C19 UNL     1      28.925   2.320  53.764  1.00  0.00     0.001 A 
HETATM   12  C20 UNL     1      29.501   1.182  54.279  1.00  0.00     0.000 A 
HETATM   13  C21 UNL     1      28.694   0.100  54.490  1.00  0.00     0.001 A 
HETATM   14  C22 UNL     1      27.356   0.165  54.194  1.00  0.00     0.014 A 
HETATM   15  C23 UNL     1      24.634   2.171  52.951  1.00  0.00     0.074 C 
ENDROOT
BRANCH   1  16
HETATM   16  O2  UNL     1      23.252   3.770  51.847  1.00  0.00    -0.342 OA
BRANCH  16  17
HETATM   17  C9  UNL     1      23.196   5.029  52.440  1.00  0.00     0.278 C 
BRANCH  17  18
HETATM   18  C8  UNL     1      23.498   6.026  51.385  1.00  0.00     0.241 C 
HETATM   19  N1  UNL     1      24.721   6.697  51.262  1.00  0.00    -0.359 N 
HETATM   20  H16 UNL     1      25.411   6.413  52.013  1.00  0.00     0.162 HD
HETATM   21  O1  UNL     1      22.534   6.211  50.601  1.00  0.00    -0.271 OA
BRANCH  19  22
HETATM   22  C7  UNL     1      25.008   7.695  50.194  1.00  0.00     0.122 C 
BRANCH  22  23
HETATM   23  C6  UNL     1      26.444   7.982  50.098  1.00  0.00     0.020 C 
BRANCH  23  24
HETATM   24  C5  UNL     1      27.252   7.540  48.963  1.00  0.00     0.002 C 
HETATM   25  C4  UNL     1      27.167   6.309  48.219  1.00  0.00     0.000 C 
BRANCH  25  26
HETATM   26  C3  UNL     1      27.470   4.961  48.660  1.00  0.00    -0.000 C 
BRANCH  26  27
HETATM   27  C2  UNL     1      26.790   4.242  49.737  1.00  0.00    -0.005 C 
HETATM   28  C1  UNL     1      25.461   3.614  49.302  1.00  0.00     0.005 C 
ENDBRANCH  26  27
ENDBRANCH  25  26
ENDBRANCH  23  24
ENDBRANCH  22  23
ENDBRANCH  19  22
ENDBRANCH  17  18
ENDBRANCH  16  17
ENDBRANCH   1  16
BRANCH   3  29
HETATM   29  O3  UNL     1      20.322   0.798  53.798  1.00  0.00    -0.360 OA
HETATM   30  H20 UNL     1      19.947   0.343  54.595  1.00  0.00     0.217 HD
ENDBRANCH   3  29
TORSDOF 9
ENDMDL
MODEL 3
REMARK VINA RESULT:      -7.9      1.931      3.522
REMARK  9 active torsions:
REMARK  status: ('A' for Active; 'I' for Inactive)
REMARK    1  A    between atoms: C2_2  and  C3_3 
REMARK    2  A    between atoms: C3_3  and  C4_4 
REMARK    3  A    between atoms: C5_5  and  C6_6 
REMARK    4  A    between atoms: C6_6  and  C7_7 
REMARK    5  A    between atoms: C7_7  and  N1_8 
REMARK       I    between atoms: N1_8  and  C8_9 
REMARK    6  A    between atoms: C8_9  and  C9_11 
REMARK    7  A    between atoms: C9_11  and  O2_12 
REMARK    8  A    between atoms: O2_12  and  C10_13 
REMARK    9  A    between atoms: C12_15  and  O3_16 
ROOT
HETATM    1  C10 UNL     1      25.885   2.252  52.050  1.00  0.00     0.074 C 
HETATM    2  C11 UNL     1      27.186   2.187  52.340  1.00  0.00     0.073 C 
HETATM    3  C12 UNL     1      28.026   1.323  53.198  1.00  0.00     0.072 C 
HETATM    4  C13 UNL     1      27.650   0.631  54.257  1.00  0.00    -0.027 C 
HETATM    5  C14 UNL     1      28.846  -0.091  54.802  1.00  0.00     0.048 C 
HETATM    6  C15 UNL     1      26.462   0.348  55.057  1.00  0.00     0.212 C 
HETATM    7  O4  UNL     1      25.295   0.040  54.346  1.00  0.00    -0.346 OA
HETATM    8  C16 UNL     1      24.424   0.548  53.394  1.00  0.00     0.082 C 
HETATM    9  C17 UNL     1      23.095   0.016  53.443  1.00  0.00    -0.003 A 
HETATM   10  C18 UNL     1      22.003   0.294  52.673  1.00  0.00     0.014 A 
HETATM   11  C19 UNL     1      20.757  -0.279  52.800  1.00  0.00     0.001 A 
HETATM   12  C20 UNL     1      20.555  -1.223  53.780  1.00  0.00     0.000 A 
HETATM   13  C21 UNL     1      21.614  -1.543  54.583  1.00  0.00     0.001 A 
HETATM   14  C22 UNL     1      22.829  -0.935  54.403  1.00  0.00     0.014 A 
HETATM   15  C23 UNL     1      24.763   1.442  52.508  1.00  0.00     0.074 C 
ENDROOT
BRANCH   1  16
HETATM   16  O2  UNL     1      25.529   3.257  51.164  1.00  0.00    -0.342 OA
BRANCH  16  17
HETATM   17  C9  UNL     1      24.239   3.759  51.017  1.00  0.00     0.278 C 
BRANCH  17  18
HETATM   18  C8  UNL     1      24.362   5.150  50.518  1.00  0.00     0.241 C 
HETATM   19  N1  UNL     1      25.510   5.939  50.658  1.00  0.00    -0.359 N 
HETATM   20  H16 UNL     1      26.288   5.428  51.165  1.00  0.00     0.162 HD
HETATM   21  O1  UNL     1      23.318   5.556  49.949  1.00  0.00    -0.271 OA
BRANCH  19  22
HETATM   22  C7  UNL     1      25.617   7.334  50.149  1.00  0.00     0.122 C 
BRANCH  22  23
HETATM   23  C6  UNL     1      26.799   7.507  49.297  1.00  0.00     0.020 C 
BRANCH  23  24
HETATM   24  C5  UNL     1      27.175   6.526  48.280  1.00  0.00     0.002 C 
HETATM   25  C4  UNL     1      28.234   5.549  48.315  1.00  0.00     0.000 C 
BRANCH  25  26
HETATM   26  C3  UNL     1      29.668   5.765  48.303  1.00  0.00    -0.000 C 
BRANCH  26  27
HETATM   27  C2  UNL     1      30.388   6.662  47.400  1.00  0.00    -0.005 C 
HETATM   28  C1  UNL     1      30.614   8.060  47.987  1.00  0.00     0.005 C 
ENDBRANCH  26  27
ENDBRANCH  25  26
ENDBRANCH  23  24
ENDBRANCH  22  23
ENDBRANCH  19  22
ENDBRANCH  17  18
ENDBRANCH  16  17
ENDBRANCH   1  16
BRANCH   3  29
HETATM   29  O3  UNL     1      29.355   1.274  52.797  1.00  0.00    -0.360 OA
HETATM   30  H20 UNL     1      30.111   1.715  53.261  1.00  0.00     0.217 HD
ENDBRANCH   3  29
TORSDOF 9
ENDMDL
MODEL 4
REMARK VINA RESULT:      -7.8      2.547      5.746
REMARK  9 active torsions:
REMARK  status: ('A' for Active; 'I' for Inactive)
REMARK    1  A    between atoms: C2_2  and  C3_3 
REMARK    2  A    between atoms: C3_3  and  C4_4 
REMARK    3  A    between atoms: C5_5  and  C6_6 
REMARK    4  A    between atoms: C6_6  and  C7_7 
REMARK    5  A    between atoms: C7_7  and  N1_8 
REMARK       I    between atoms: N1_8  and  C8_9 
REMARK    6  A    between atoms: C8_9  and  C9_11 
REMARK    7  A    between atoms: C9_11  and  O2_12 
REMARK    8  A    between atoms: O2_12  and  C10_13 
REMARK    9  A    between atoms: C12_15  and  O3_16 
ROOT
HETATM    1  C10 UNL     1      24.465  -0.035  53.664  1.00  0.00     0.074 C 
HETATM    2  C11 UNL     1      25.682  -0.461  54.005  1.00  0.00     0.073 C 
HETATM    3  C12 UNL     1      27.044   0.115  53.964  1.00  0.00     0.072 C 
HETATM    4  C13 UNL     1      27.489   1.073  53.173  1.00  0.00    -0.027 C 
HETATM    5  C14 UNL     1      28.932   1.322  53.493  1.00  0.00     0.048 C 
HETATM    6  C15 UNL     1      27.034   1.953  52.101  1.00  0.00     0.212 C 
HETATM    7  O4  UNL     1      25.800   2.585  52.300  1.00  0.00    -0.346 OA
HETATM    8  C16 UNL     1      24.459   2.324  52.533  1.00  0.00     0.082 C 
HETATM    9  C17 UNL     1      23.558   3.355  52.113  1.00  0.00    -0.003 A 
HETATM   10  C18 UNL     1      22.196   3.422  52.182  1.00  0.00     0.014 A 
HETATM   11  C19 UNL     1      21.414   4.469  51.748  1.00  0.00     0.001 A 
HETATM   12  C20 UNL     1      22.024   5.567  51.187  1.00  0.00     0.000 A 
HETATM   13  C21 UNL     1      23.388   5.558  51.090  1.00  0.00     0.001 A 
HETATM   14  C22 UNL     1      24.107   4.482  51.543  1.00  0.00     0.014 A 
HETATM   15  C23 UNL     1      24.022   1.231  53.093  1.00  0.00     0.074 C 
ENDROOT
BRANCH   1  16
HETATM   16  O2  UNL     1      23.440  -0.941  53.886  1.00  0.00    -0.342 OA
BRANCH  16  17
HETATM   17  C9  UNL     1      22.387  -0.741  54.774  1.00  0.00     0.278 C 
BRANCH  17  18
HETATM   18  C8  UNL     1      21.132  -0.779  53.984  1.00  0.00     0.241 C 
HETATM   19  N1  UNL     1      20.704   0.247  53.134  1.00  0.00    -0.359 N 
HETATM   20  H16 UNL     1      21.380   1.063  53.118  1.00  0.00     0.162 HD
HETATM   21  O1  UNL     1      20.483  -1.841  54.157  1.00  0.00    -0.271 OA
BRANCH  19  22
HETATM   22  C7  UNL     1      19.441   0.190  52.347  1.00  0.00     0.122 C 
BRANCH  22  23
HETATM   23  C6  UNL     1      19.393   1.248  51.331  1.00  0.00     0.020 C 
BRANCH  23  24
HETATM   24  C5  UNL     1      19.790   1.014  49.944  1.00  0.00     0.002 C 
HETATM   25  C4  UNL     1      21.104   0.764  49.410  1.00  0.00     0.000 C 
BRANCH  25  26
HETATM   26  C3  UNL     1      22.240   1.663  49.339  1.00  0.00    -0.000 C 
BRANCH  26  27
HETATM   27  C2  UNL     1      22.509   2.615  48.261  1.00  0.00    -0.005 C 
HETATM   28  C1  UNL     1      21.395   3.652  48.077  1.00  0.00     0.005 C 
ENDBRANCH  26  27
ENDBRANCH  25  26
ENDBRANCH  23  24
ENDBRANCH  22  23
ENDBRANCH  19  22
ENDBRANCH  17  18
ENDBRANCH  16  17
ENDBRANCH   1  16
BRANCH   3  29
HETATM   29  O3  UNL     1      27.912  -0.457  54.884  1.00  0.00    -0.360 OA
HETATM   30  H20 UNL     1      27.855  -0.355  55.868  1.00  0.00     0.217 HD
ENDBRANCH   3  29
TORSDOF 9
ENDMDL
MODEL 5
REMARK VINA RESULT:      -7.7      2.633      6.365
REMARK  9 active torsions:
REMARK  status: ('A' for Active; 'I' for Inactive)
REMARK    1  A    between atoms: C2_2  and  C3_3 
REMARK    2  A    between atoms: C3_3  and  C4_4 
REMARK    3  A    between atoms: C5_5  and  C6_6 
REMARK    4  A    between atoms: C6_6  and  C7_7 
REMARK    5  A    between atoms: C7_7  and  N1_8 
REMARK       I    between atoms: N1_8  and  C8_9 
REMARK    6  A    between atoms: C8_9  and  C9_11 
REMARK    7  A    between atoms: C9_11  and  O2_12 
REMARK    8  A    between atoms: O2_12  and  C10_13 
REMARK    9  A    between atoms: C12_15  and  O3_16 
ROOT
HETATM    1  C10 UNL     1      23.974   2.901  50.446  1.00  0.00     0.074 C 
HETATM    2  C11 UNL     1      23.842   3.551  49.289  1.00  0.00     0.073 C 
HETATM    3  C12 UNL     1      22.762   3.704  48.289  1.00  0.00     0.072 C 
HETATM    4  C13 UNL     1      21.756   2.882  48.059  1.00  0.00    -0.027 C 
HETATM    5  C14 UNL     1      20.918   3.452  46.955  1.00  0.00     0.048 C 
HETATM    6  C15 UNL     1      21.206   1.613  48.528  1.00  0.00     0.212 C 
HETATM    7  O4  UNL     1      21.124   1.448  49.916  1.00  0.00    -0.346 OA
HETATM    8  C16 UNL     1      21.898   1.435  51.067  1.00  0.00     0.082 C 
HETATM    9  C17 UNL     1      21.354   0.678  52.155  1.00  0.00    -0.003 A 
HETATM   10  C18 UNL     1      21.847   0.451  53.407  1.00  0.00     0.014 A 
HETATM   11  C19 UNL     1      21.240  -0.297  54.392  1.00  0.00     0.001 A 
HETATM   12  C20 UNL     1      20.025  -0.885  54.128  1.00  0.00     0.000 A 
HETATM   13  C21 UNL     1      19.481  -0.692  52.889  1.00  0.00     0.001 A 
HETATM   14  C22 UNL     1      20.138   0.065  51.954  1.00  0.00     0.014 A 
HETATM   15  C23 UNL     1      23.038   2.057  51.179  1.00  0.00     0.074 C 
ENDROOT
BRANCH   1  16
HETATM   16  O2  UNL     1      25.205   3.044  51.065  1.00  0.00    -0.342 OA
BRANCH  16  17
HETATM   17  C9  UNL     1      25.421   2.912  52.434  1.00  0.00     0.278 C 
BRANCH  17  18
HETATM   18  C8  UNL     1      26.804   2.408  52.616  1.00  0.00     0.241 C 
HETATM   19  N1  UNL     1      27.506   2.452  53.826  1.00  0.00    -0.359 N 
HETATM   20  H16 UNL     1      26.937   2.890  54.604  1.00  0.00     0.162 HD
HETATM   21  O1  UNL     1      27.289   1.931  51.559  1.00  0.00    -0.271 OA
BRANCH  19  22
HETATM   22  C7  UNL     1      28.894   1.938  53.990  1.00  0.00     0.122 C 
BRANCH  22  23
HETATM   23  C6  UNL     1      28.910   0.640  54.673  1.00  0.00     0.020 C 
BRANCH  23  24
HETATM   24  C5  UNL     1      29.092  -0.618  53.950  1.00  0.00     0.002 C 
HETATM   25  C4  UNL     1      28.296  -1.170  52.884  1.00  0.00     0.000 C 
BRANCH  25  26
HETATM   26  C3  UNL     1      26.934  -1.665  52.932  1.00  0.00    -0.000 C 
BRANCH  26  27
HETATM   27  C2  UNL     1      25.730  -0.842  53.042  1.00  0.00    -0.005 C 
HETATM   28  C1  UNL     1      25.345  -0.522  54.491  1.00  0.00     0.005 C 
ENDBRANCH  26  27
ENDBRANCH  25  26
ENDBRANCH  23  24
ENDBRANCH  22  23
ENDBRANCH  19  22
ENDBRANCH  17  18
ENDBRANCH  16  17
ENDBRANCH   1  16
BRANCH   3  29
HETATM   29  O3  UNL     1      22.872   4.864  47.534  1.00  0.00    -0.360 OA
HETATM   30  H20 UNL     1      23.679   5.435  47.472  1.00  0.00     0.217 HD
ENDBRANCH   3  29
TORSDOF 9
ENDMDL
MODEL 6
REMARK VINA RESULT:      -7.6      4.586      9.491
REMARK  9 active torsions:
REMARK  status: ('A' for Active; 'I' for Inactive)
REMARK    1  A    between atoms: C2_2  and  C3_3 
REMARK    2  A    between atoms: C3_3  and  C4_4 
REMARK    3  A    between atoms: C5_5  and  C6_6 
REMARK    4  A    between atoms: C6_6  and  C7_7 
REMARK    5  A    between atoms: C7_7  and  N1_8 
REMARK       I    between atoms: N1_8  and  C8_9 
REMARK    6  A    between atoms: C8_9  and  C9_11 
REMARK    7  A    between atoms: C9_11  and  O2_12 
REMARK    8  A    between atoms: O2_12  and  C10_13 
REMARK    9  A    between atoms: C12_15  and  O3_16 
ROOT
HETATM    1  C10 UNL     1      28.677   5.983  48.380  1.00  0.00     0.074 C 
HETATM    2  C11 UNL     1      28.300   7.229  48.672  1.00  0.00     0.073 C 
HETATM    3  C12 UNL     1      28.990   8.533  48.787  1.00  0.00     0.072 C 
HETATM    4  C13 UNL     1      30.265   8.749  49.045  1.00  0.00    -0.027 C 
HETATM    5  C14 UNL     1      30.503  10.229  49.063  1.00  0.00     0.048 C 
HETATM    6  C15 UNL     1      31.501   8.020  49.317  1.00  0.00     0.212 C 
HETATM    7  O4  UNL     1      31.775   6.932  48.479  1.00  0.00    -0.346 OA
HETATM    8  C16 UNL     1      31.259   5.719  48.051  1.00  0.00     0.082 C 
HETATM    9  C17 UNL     1      32.232   4.772  47.595  1.00  0.00    -0.003 A 
HETATM   10  C18 UNL     1      32.076   3.501  47.121  1.00  0.00     0.014 A 
HETATM   11  C19 UNL     1      33.085   2.664  46.702  1.00  0.00     0.001 A 
HETATM   12  C20 UNL     1      34.385   3.113  46.748  1.00  0.00     0.000 A 
HETATM   13  C21 UNL     1      34.604   4.379  47.214  1.00  0.00     0.001 A 
HETATM   14  C22 UNL     1      33.553   5.161  47.617  1.00  0.00     0.014 A 
HETATM   15  C23 UNL     1      29.987   5.434  48.052  1.00  0.00     0.074 C 
ENDROOT
BRANCH   1  16
HETATM   16  O2  UNL     1      27.659   5.043  48.389  1.00  0.00    -0.342 OA
BRANCH  16  17
HETATM   17  C9  UNL     1      26.339   5.312  48.741  1.00  0.00     0.278 C 
BRANCH  17  18
HETATM   18  C8  UNL     1      25.896   4.228  49.651  1.00  0.00     0.241 C 
HETATM   19  N1  UNL     1      26.643   3.757  50.737  1.00  0.00    -0.359 N 
HETATM   20  H16 UNL     1      27.568   4.263  50.837  1.00  0.00     0.162 HD
HETATM   21  O1  UNL     1      24.767   3.769  49.345  1.00  0.00    -0.271 OA
BRANCH  19  22
HETATM   22  C7  UNL     1      26.181   2.668  51.642  1.00  0.00     0.122 C 
BRANCH  22  23
HETATM   23  C6  UNL     1      26.780   1.378  51.282  1.00  0.00     0.020 C 
BRANCH  23  24
HETATM   24  C5  UNL     1      26.500   0.154  52.031  1.00  0.00     0.002 C 
HETATM   25  C4  UNL     1      26.544  -0.064  53.454  1.00  0.00     0.000 C 
BRANCH  25  26
HETATM   26  C3  UNL     1      27.694  -0.064  54.337  1.00  0.00    -0.000 C 
BRANCH  26  27
HETATM   27  C2  UNL     1      29.016   0.475  54.018  1.00  0.00    -0.005 C 
HETATM   28  C1  UNL     1      30.013  -0.595  53.561  1.00  0.00     0.005 C 
ENDBRANCH  26  27
ENDBRANCH  25  26
ENDBRANCH  23  24
ENDBRANCH  22  23
ENDBRANCH  19  22
ENDBRANCH  17  18
ENDBRANCH  16  17
ENDBRANCH   1  16
BRANCH   3  29
HETATM   29  O3  UNL     1      28.148   9.620  48.591  1.00  0.00    -0.360 OA
HETATM   30  H20 UNL     1      27.359   9.842  49.147  1.00  0.00     0.217 HD
ENDBRANCH   3  29
TORSDOF 9
ENDMDL
MODEL 7
REMARK VINA RESULT:      -7.5      2.893      6.160
REMARK  9 active torsions:
REMARK  status: ('A' for Active; 'I' for Inactive)
REMARK    1  A    between atoms: C2_2  and  C3_3 
REMARK    2  A    between atoms: C3_3  and  C4_4 
REMARK    3  A    between atoms: C5_5  and  C6_6 
REMARK    4  A    between atoms: C6_6  and  C7_7 
REMARK    5  A    between atoms: C7_7  and  N1_8 
REMARK       I    between atoms: N1_8  and  C8_9 
REMARK    6  A    between atoms: C8_9  and  C9_11 
REMARK    7  A    between atoms: C9_11  and  O2_12 
REMARK    8  A    between atoms: O2_12  and  C10_13 
REMARK    9  A    between atoms: C12_15  and  O3_16 
ROOT
HETATM    1  C10 UNL     1      23.112   2.206  52.204  1.00  0.00     0.074 C 
HETATM    2  C11 UNL     1      21.937   1.625  52.452  1.00  0.00     0.073 C 
HETATM    3  C12 UNL     1      21.480   0.510  53.310  1.00  0.00     0.072 C 
HETATM    4  C13 UNL     1      22.193  -0.506  53.757  1.00  0.00    -0.027 C 
HETATM    5  C14 UNL     1      21.304  -1.382  54.588  1.00  0.00     0.048 C 
HETATM    6  C15 UNL     1      23.550  -1.044  53.702  1.00  0.00     0.212 C 
HETATM    7  O4  UNL     1      24.588  -0.126  53.904  1.00  0.00    -0.346 OA
HETATM    8  C16 UNL     1      25.129   1.047  53.401  1.00  0.00     0.082 C 
HETATM    9  C17 UNL     1      26.521   1.241  53.677  1.00  0.00    -0.003 A 
HETATM   10  C18 UNL     1      27.357   2.263  53.331  1.00  0.00     0.014 A 
HETATM   11  C19 UNL     1      28.694   2.358  53.650  1.00  0.00     0.001 A 
HETATM   12  C20 UNL     1      29.276   1.351  54.384  1.00  0.00     0.000 A 
HETATM   13  C21 UNL     1      28.488   0.300  54.761  1.00  0.00     0.001 A 
HETATM   14  C22 UNL     1      27.163   0.267  54.410  1.00  0.00     0.014 A 
HETATM   15  C23 UNL     1      24.444   1.927  52.725  1.00  0.00     0.074 C 
ENDROOT
BRANCH   1  16
HETATM   16  O2  UNL     1      23.071   3.254  51.298  1.00  0.00    -0.342 OA
BRANCH  16  17
HETATM   17  C9  UNL     1      23.547   3.187  49.991  1.00  0.00     0.278 C 
BRANCH  17  18
HETATM   18  C8  UNL     1      24.400   4.381  49.772  1.00  0.00     0.241 C 
HETATM   19  N1  UNL     1      25.683   4.340  49.214  1.00  0.00    -0.359 N 
HETATM   20  H16 UNL     1      25.981   3.355  48.965  1.00  0.00     0.162 HD
HETATM   21  O1  UNL     1      23.847   5.447  50.143  1.00  0.00    -0.271 OA
BRANCH  19  22
HETATM   22  C7  UNL     1      26.525   5.550  48.999  1.00  0.00     0.122 C 
BRANCH  22  23
HETATM   23  C6  UNL     1      27.856   5.196  48.493  1.00  0.00     0.020 C 
BRANCH  23  24
HETATM   24  C5  UNL     1      28.809   6.206  48.037  1.00  0.00     0.002 C 
HETATM   25  C4  UNL     1      30.213   6.059  47.749  1.00  0.00     0.000 C 
BRANCH  25  26
HETATM   26  C3  UNL     1      31.302   5.781  48.665  1.00  0.00    -0.000 C 
BRANCH  26  27
HETATM   27  C2  UNL     1      32.528   5.053  48.338  1.00  0.00    -0.005 C 
HETATM   28  C1  UNL     1      33.804   5.838  48.664  1.00  0.00     0.005 C 
ENDBRANCH  26  27
ENDBRANCH  25  26
ENDBRANCH  23  24
ENDBRANCH  22  23
ENDBRANCH  19  22
ENDBRANCH  17  18
ENDBRANCH  16  17
ENDBRANCH   1  16
BRANCH   3  29
HETATM   29  O3  UNL     1      20.137   0.594  53.652  1.00  0.00    -0.360 OA
HETATM   30  H20 UNL     1      19.754   1.208  54.329  1.00  0.00     0.217 HD
ENDBRANCH   3  29
TORSDOF 9
ENDMDL
MODEL 8
REMARK VINA RESULT:      -7.3      1.962      5.073
REMARK  9 active torsions:
REMARK  status: ('A' for Active; 'I' for Inactive)
REMARK    1  A    between atoms: C2_2  and  C3_3 
REMARK    2  A    between atoms: C3_3  and  C4_4 
REMARK    3  A    between atoms: C5_5  and  C6_6 
REMARK    4  A    between atoms: C6_6  and  C7_7 
REMARK    5  A    between atoms: C7_7  and  N1_8 
REMARK       I    between atoms: N1_8  and  C8_9 
REMARK    6  A    between atoms: C8_9  and  C9_11 
REMARK    7  A    between atoms: C9_11  and  O2_12 
REMARK    8  A    between atoms: O2_12  and  C10_13 
REMARK    9  A    between atoms: C12_15  and  O3_16 
ROOT
HETATM    1  C10 UNL     1      23.135   2.389  52.264  1.00  0.00     0.074 C 
HETATM    2  C11 UNL     1      21.949   1.823  52.496  1.00  0.00     0.073 C 
HETATM    3  C12 UNL     1      21.473   0.681  53.307  1.00  0.00     0.072 C 
HETATM    4  C13 UNL     1      22.167  -0.369  53.704  1.00  0.00    -0.027 C 
HETATM    5  C14 UNL     1      21.266  -1.262  54.502  1.00  0.00     0.048 C 
HETATM    6  C15 UNL     1      23.512  -0.933  53.614  1.00  0.00     0.212 C 
HETATM    7  O4  UNL     1      24.572  -0.048  53.848  1.00  0.00    -0.346 OA
HETATM    8  C16 UNL     1      25.134   1.134  53.393  1.00  0.00     0.082 C 
HETATM    9  C17 UNL     1      26.532   1.286  53.666  1.00  0.00    -0.003 A 
HETATM   10  C18 UNL     1      27.388   2.304  53.359  1.00  0.00     0.014 A 
HETATM   11  C19 UNL     1      28.729   2.356  53.671  1.00  0.00     0.001 A 
HETATM   12  C20 UNL     1      29.293   1.306  54.356  1.00  0.00     0.000 A 
HETATM   13  C21 UNL     1      28.485   0.256  54.692  1.00  0.00     0.001 A 
HETATM   14  C22 UNL     1      27.157   0.268  54.350  1.00  0.00     0.014 A 
HETATM   15  C23 UNL     1      24.464   2.058  52.762  1.00  0.00     0.074 C 
ENDROOT
BRANCH   1  16
HETATM   16  O2  UNL     1      23.110   3.476  51.405  1.00  0.00    -0.342 OA
BRANCH  16  17
HETATM   17  C9  UNL     1      24.150   4.391  51.259  1.00  0.00     0.278 C 
BRANCH  17  18
HETATM   18  C8  UNL     1      23.540   5.740  51.172  1.00  0.00     0.241 C 
HETATM   19  N1  UNL     1      22.216   5.983  50.787  1.00  0.00    -0.359 N 
HETATM   20  H16 UNL     1      21.694   5.089  50.562  1.00  0.00     0.162 HD
HETATM   21  O1  UNL     1      24.343   6.656  51.481  1.00  0.00    -0.271 OA
BRANCH  19  22
HETATM   22  C7  UNL     1      21.620   7.345  50.707  1.00  0.00     0.122 C 
BRANCH  22  23
HETATM   23  C6  UNL     1      21.824   7.945  49.383  1.00  0.00     0.020 C 
BRANCH  23  24
HETATM   24  C5  UNL     1      23.051   8.657  49.032  1.00  0.00     0.002 C 
HETATM   25  C4  UNL     1      23.983   8.380  47.968  1.00  0.00     0.000 C 
BRANCH  25  26
HETATM   26  C3  UNL     1      24.874   7.247  47.816  1.00  0.00    -0.000 C 
BRANCH  26  27
HETATM   27  C2  UNL     1      26.212   7.128  48.394  1.00  0.00    -0.005 C 
HETATM   28  C1  UNL     1      26.566   5.698  48.817  1.00  0.00     0.005 C 
ENDBRANCH  26  27
ENDBRANCH  25  26
ENDBRANCH  23  24
ENDBRANCH  22  23
ENDBRANCH  19  22
ENDBRANCH  17  18
ENDBRANCH  16  17
ENDBRANCH   1  16
BRANCH   3  29
HETATM   29  O3  UNL     1      20.135   0.779  53.663  1.00  0.00    -0.360 OA
HETATM   30  H20 UNL     1      19.378   0.375  53.167  1.00  0.00     0.217 HD
ENDBRANCH   3  29
TORSDOF 9
ENDMDL
MODEL 9
REMARK VINA RESULT:      -7.2      4.565      9.010
REMARK  9 active torsions:
REMARK  status: ('A' for Active; 'I' for Inactive)
REMARK    1  A    between atoms: C2_2  and  C3_3 
REMARK    2  A    between atoms: C3_3  and  C4_4 
REMARK    3  A    between atoms: C5_5  and  C6_6 
REMARK    4  A    between atoms: C6_6  and  C7_7 
REMARK    5  A    between atoms: C7_7  and  N1_8 
REMARK       I    between atoms: N1_8  and  C8_9 
REMARK    6  A    between atoms: C8_9  and  C9_11 
REMARK    7  A    between atoms: C9_11  and  O2_12 
REMARK    8  A    between atoms: O2_12  and  C10_13 
REMARK    9  A    between atoms: C12_15  and  O3_16 
ROOT
HETATM    1  C10 UNL     1      28.552   6.022  48.361  1.00  0.00     0.074 C 
HETATM    2  C11 UNL     1      28.175   7.262  48.676  1.00  0.00     0.073 C 
HETATM    3  C12 UNL     1      28.860   8.569  48.788  1.00  0.00     0.072 C 
HETATM    4  C13 UNL     1      30.140   8.789  49.020  1.00  0.00    -0.027 C 
HETATM    5  C14 UNL     1      30.371  10.270  49.049  1.00  0.00     0.048 C 
HETATM    6  C15 UNL     1      31.385   8.063  49.255  1.00  0.00     0.212 C 
HETATM    7  O4  UNL     1      31.646   6.986  48.398  1.00  0.00    -0.346 OA
HETATM    8  C16 UNL     1      31.127   5.775  47.969  1.00  0.00     0.082 C 
HETATM    9  C17 UNL     1      32.094   4.839  47.480  1.00  0.00    -0.003 A 
HETATM   10  C18 UNL     1      31.933   3.573  46.996  1.00  0.00     0.014 A 
HETATM   11  C19 UNL     1      32.937   2.746  46.543  1.00  0.00     0.001 A 
HETATM   12  C20 UNL     1      34.235   3.201  46.565  1.00  0.00     0.000 A 
HETATM   13  C21 UNL     1      34.458   4.463  47.040  1.00  0.00     0.001 A 
HETATM   14  C22 UNL     1      33.412   5.235  47.475  1.00  0.00     0.014 A 
HETATM   15  C23 UNL     1      29.856   5.484  47.996  1.00  0.00     0.074 C 
ENDROOT
BRANCH   1  16
HETATM   16  O2  UNL     1      27.539   5.076  48.383  1.00  0.00    -0.342 OA
BRANCH  16  17
HETATM   17  C9  UNL     1      26.334   5.225  49.066  1.00  0.00     0.278 C 
BRANCH  17  18
HETATM   18  C8  UNL     1      26.044   3.932  49.733  1.00  0.00     0.241 C 
HETATM   19  N1  UNL     1      26.789   3.409  50.796  1.00  0.00    -0.359 N 
HETATM   20  H16 UNL     1      27.591   4.043  51.073  1.00  0.00     0.162 HD
HETATM   21  O1  UNL     1      25.048   3.346  49.241  1.00  0.00    -0.271 OA
BRANCH  19  22
HETATM   22  C7  UNL     1      26.481   2.110  51.455  1.00  0.00     0.122 C 
BRANCH  22  23
HETATM   23  C6  UNL     1      25.893   2.308  52.785  1.00  0.00     0.020 C 
BRANCH  23  24
HETATM   24  C5  UNL     1      24.502   2.720  52.967  1.00  0.00     0.002 C 
HETATM   25  C4  UNL     1      23.298   2.031  52.578  1.00  0.00     0.000 C 
BRANCH  25  26
HETATM   26  C3  UNL     1      22.799   1.761  51.244  1.00  0.00    -0.000 C 
BRANCH  26  27
HETATM   27  C2  UNL     1      21.783   0.767  50.897  1.00  0.00    -0.005 C 
HETATM   28  C1  UNL     1      21.131   1.017  49.533  1.00  0.00     0.005 C 
ENDBRANCH  26  27
ENDBRANCH  25  26
ENDBRANCH  23  24
ENDBRANCH  22  23
ENDBRANCH  19  22
ENDBRANCH  17  18
ENDBRANCH  16  17
ENDBRANCH   1  16
BRANCH   3  29
HETATM   29  O3  UNL     1      28.008   9.653  48.624  1.00  0.00    -0.360 OA
HETATM   30  H20 UNL     1      28.138  10.551  49.023  1.00  0.00     0.217 HD
ENDBRANCH   3  29
TORSDOF 9
ENDMDL
