MODEL 1
REMARK VINA RESULT:      -8.9      0.000      0.000
REMARK  8 active torsions:
REMARK  status: ('A' for Active; 'I' for Inactive)
REMARK    1  A    between atoms: C2_2  and  C3_3 
REMARK    2  A    between atoms: C3_3  and  O1_4 
REMARK    3  A    between atoms: C4_5  and  C5_6 
REMARK    4  A    between atoms: C6_7  and  C7_8 
REMARK    5  A    between atoms: C10_11  and  N1_12 
REMARK    6  A    between atoms: N1_12  and  C11_13 
REMARK    7  A    between atoms: C11_13  and  C13_15 
REMARK    8  A    between atoms: C16_18  and  C17_19 
ROOT
HETATM    1  C7  UNL     1      24.421   0.869  53.102  1.00  0.00     0.054 C 
HETATM    2  C8  UNL     1      24.950   2.048  52.858  1.00  0.00     0.012 C 
HETATM    3  C9  UNL     1      24.385   3.414  52.684  1.00  0.00     0.107 C 
HETATM    4  C10 UNL     1      23.147   3.339  51.864  1.00  0.00     0.105 C 
HETATM    5  N2  UNL     1      22.139   2.543  51.834  1.00  0.00    -0.229 NA
HETATM    6  C20 UNL     1      22.026   1.416  52.729  1.00  0.00     0.235 C 
HETATM    7  N3  UNL     1      23.002   0.718  53.257  1.00  0.00    -0.242 NA
ENDROOT
BRANCH   4   8
HETATM    8  N1  UNL     1      23.017   4.377  50.875  1.00  0.00    -0.370 N 
HETATM    9  H13 UNL     1      22.610   5.295  51.221  1.00  0.00     0.161 HD
BRANCH   8  10
HETATM   10  C11 UNL     1      23.421   4.162  49.518  1.00  0.00     0.112 C 
HETATM   11  C12 UNL     1      23.133   2.753  49.077  1.00  0.00     0.037 C 
BRANCH  10  12
HETATM   12  C13 UNL     1      24.802   4.606  49.215  1.00  0.00    -0.036 A 
HETATM   13  C14 UNL     1      25.988   3.917  49.343  1.00  0.00     0.010 A 
HETATM   14  C15 UNL     1      27.176   4.529  49.001  1.00  0.00     0.017 A 
HETATM   15  C16 UNL     1      27.238   5.824  48.527  1.00  0.00     0.047 A 
HETATM   16  C18 UNL     1      26.045   6.508  48.400  1.00  0.00     0.017 A 
HETATM   17  C19 UNL     1      24.836   5.919  48.738  1.00  0.00     0.010 A 
BRANCH  15  18
HETATM   18  C17 UNL     1      28.567   6.402  48.181  1.00  0.00     0.417 C 
HETATM   19  F1  UNL     1      29.567   5.478  48.276  1.00  0.00    -0.166 F 
HETATM   20  F2  UNL     1      28.435   6.976  46.933  1.00  0.00    -0.166 F 
HETATM   21  F3  UNL     1      28.806   7.458  49.066  1.00  0.00    -0.166 F 
ENDBRANCH  15  18
ENDBRANCH  10  12
ENDBRANCH   8  10
ENDBRANCH   4   8
BRANCH   1  22
HETATM   22  C6  UNL     1      25.156  -0.346  53.236  1.00  0.00     0.031 C 
HETATM   23  C5  UNL     1      26.187  -0.797  52.594  1.00  0.00     0.005 C 
BRANCH  23  24
HETATM   24  C4  UNL     1      26.954  -2.025  52.709  1.00  0.00     0.032 C 
HETATM   25  C3  UNL     1      28.195  -2.216  53.027  1.00  0.00     0.043 C 
BRANCH  25  26
HETATM   26  C2  UNL     1      29.434  -1.523  53.410  1.00  0.00     0.060 C 
HETATM   27  C1  UNL     1      29.202  -0.184  54.088  1.00  0.00     0.012 C 
ENDBRANCH  25  26
BRANCH  25  28
HETATM   28  O1  UNL     1      28.597  -3.572  53.034  1.00  0.00    -0.365 OA
HETATM   29  H6  UNL     1      28.007  -4.177  52.479  1.00  0.00     0.217 HD
ENDBRANCH  25  28
ENDBRANCH  23  24
ENDBRANCH   1  22
TORSDOF 8
ENDMDL
MODEL 2
REMARK VINA RESULT:      -8.9      4.299      7.488
REMARK  8 active torsions:
REMARK  status: ('A' for Active; 'I' for Inactive)
REMARK    1  A    between atoms: C2_2  and  C3_3 
REMARK    2  A    between atoms: C3_3  and  O1_4 
REMARK    3  A    between atoms: C4_5  and  C5_6 
REMARK    4  A    between atoms: C6_7  and  C7_8 
REMARK    5  A    between atoms: C10_11  and  N1_12 
REMARK    6  A    between atoms: N1_12  and  C11_13 
REMARK    7  A    between atoms: C11_13  and  C13_15 
REMARK    8  A    between atoms: C16_18  and  C17_19 
ROOT
HETATM    1  C7  UNL     1      27.286   5.589  48.623  1.00  0.00     0.054 C 
HETATM    2  C8  UNL     1      27.007   4.335  48.899  1.00  0.00     0.012 C 
HETATM    3  C9  UNL     1      25.797   3.638  49.415  1.00  0.00     0.107 C 
HETATM    4  C10 UNL     1      25.185   4.445  50.503  1.00  0.00     0.105 C 
HETATM    5  N2  UNL     1      24.958   5.698  50.669  1.00  0.00    -0.229 NA
HETATM    6  C20 UNL     1      25.316   6.680  49.674  1.00  0.00     0.235 C 
HETATM    7  N3  UNL     1      26.305   6.619  48.815  1.00  0.00    -0.242 NA
ENDROOT
BRANCH   4   8
HETATM    8  N1  UNL     1      24.734   3.681  51.636  1.00  0.00    -0.370 N 
HETATM    9  H13 UNL     1      24.390   4.248  52.466  1.00  0.00     0.161 HD
BRANCH   8  10
HETATM   10  C11 UNL     1      24.757   2.249  51.622  1.00  0.00     0.112 C 
HETATM   11  C12 UNL     1      23.497   1.674  52.206  1.00  0.00     0.037 C 
BRANCH  10  12
HETATM   12  C13 UNL     1      25.994   1.655  52.183  1.00  0.00    -0.036 A 
HETATM   13  C14 UNL     1      27.130   2.282  52.648  1.00  0.00     0.010 A 
HETATM   14  C15 UNL     1      28.179   1.528  53.133  1.00  0.00     0.017 A 
HETATM   15  C16 UNL     1      28.146   0.149  53.177  1.00  0.00     0.047 A 
HETATM   16  C18 UNL     1      27.005  -0.473  52.711  1.00  0.00     0.017 A 
HETATM   17  C19 UNL     1      25.936   0.259  52.216  1.00  0.00     0.010 A 
BRANCH  15  18
HETATM   18  C17 UNL     1      29.327  -0.583  53.719  1.00  0.00     0.417 C 
HETATM   19  F1  UNL     1      30.505  -0.041  53.290  1.00  0.00    -0.166 F 
HETATM   20  F2  UNL     1      29.177  -0.612  55.090  1.00  0.00    -0.166 F 
HETATM   21  F3  UNL     1      29.227  -1.911  53.293  1.00  0.00    -0.166 F 
ENDBRANCH  15  18
ENDBRANCH  10  12
ENDBRANCH   8  10
ENDBRANCH   4   8
BRANCH   1  22
HETATM   22  C6  UNL     1      28.537   6.061  48.124  1.00  0.00     0.031 C 
HETATM   23  C5  UNL     1      29.705   5.502  48.081  1.00  0.00     0.005 C 
BRANCH  23  24
HETATM   24  C4  UNL     1      30.991   5.955  47.581  1.00  0.00     0.032 C 
HETATM   25  C3  UNL     1      32.091   5.302  47.375  1.00  0.00     0.043 C 
BRANCH  25  26
HETATM   26  C2  UNL     1      32.707   3.970  47.465  1.00  0.00     0.060 C 
HETATM   27  C1  UNL     1      32.088   2.946  46.530  1.00  0.00     0.012 C 
ENDBRANCH  25  26
BRANCH  25  28
HETATM   28  O1  UNL     1      33.154   6.089  46.874  1.00  0.00    -0.365 OA
HETATM   29  H6  UNL     1      34.039   5.600  46.827  1.00  0.00     0.217 HD
ENDBRANCH  25  28
ENDBRANCH  23  24
ENDBRANCH   1  22
TORSDOF 8
ENDMDL
MODEL 3
REMARK VINA RESULT:      -8.8      4.280      7.784
REMARK  8 active torsions:
REMARK  status: ('A' for Active; 'I' for Inactive)
REMARK    1  A    between atoms: C2_2  and  C3_3 
REMARK    2  A    between atoms: C3_3  and  O1_4 
REMARK    3  A    between atoms: C4_5  and  C5_6 
REMARK    4  A    between atoms: C6_7  and  C7_8 
REMARK    5  A    between atoms: C10_11  and  N1_12 
REMARK    6  A    between atoms: N1_12  and  C11_13 
REMARK    7  A    between atoms: C11_13  and  C13_15 
REMARK    8  A    between atoms: C16_18  and  C17_19 
ROOT
HETATM    1  C7  UNL     1      27.345   5.588  48.584  1.00  0.00     0.054 C 
HETATM    2  C8  UNL     1      27.163   4.333  48.928  1.00  0.00     0.012 C 
HETATM    3  C9  UNL     1      25.996   3.565  49.442  1.00  0.00     0.107 C 
HETATM    4  C10 UNL     1      25.272   4.379  50.454  1.00  0.00     0.105 C 
HETATM    5  N2  UNL     1      24.933   5.616  50.533  1.00  0.00    -0.229 NA
HETATM    6  C20 UNL     1      25.248   6.564  49.491  1.00  0.00     0.235 C 
HETATM    7  N3  UNL     1      26.273   6.538  48.675  1.00  0.00    -0.242 NA
ENDROOT
BRANCH   4   8
HETATM    8  N1  UNL     1      24.841   3.648  51.617  1.00  0.00    -0.370 N 
HETATM    9  H13 UNL     1      24.551   4.239  52.451  1.00  0.00     0.161 HD
BRANCH   8  10
HETATM   10  C11 UNL     1      24.813   2.216  51.624  1.00  0.00     0.112 C 
HETATM   11  C12 UNL     1      23.537   1.696  52.226  1.00  0.00     0.037 C 
BRANCH  10  12
HETATM   12  C13 UNL     1      26.031   1.587  52.185  1.00  0.00    -0.036 A 
HETATM   13  C14 UNL     1      27.141   2.180  52.747  1.00  0.00     0.010 A 
HETATM   14  C15 UNL     1      28.176   1.395  53.211  1.00  0.00     0.017 A 
HETATM   15  C16 UNL     1      28.157   0.017  53.140  1.00  0.00     0.047 A 
HETATM   16  C18 UNL     1      27.042  -0.571  52.576  1.00  0.00     0.017 A 
HETATM   17  C19 UNL     1      25.987   0.192  52.100  1.00  0.00     0.010 A 
BRANCH  15  18
HETATM   18  C17 UNL     1      29.321  -0.748  53.668  1.00  0.00     0.417 C 
HETATM   19  F1  UNL     1      29.266  -2.068  53.322  1.00  0.00    -0.166 F 
HETATM   20  F2  UNL     1      30.454  -0.091  53.235  1.00  0.00    -0.166 F 
HETATM   21  F3  UNL     1      29.310  -0.617  55.061  1.00  0.00    -0.166 F 
ENDBRANCH  15  18
ENDBRANCH  10  12
ENDBRANCH   8  10
ENDBRANCH   4   8
BRANCH   1  22
HETATM   22  C6  UNL     1      28.571   6.136  48.102  1.00  0.00     0.031 C 
HETATM   23  C5  UNL     1      29.782   5.675  48.130  1.00  0.00     0.005 C 
BRANCH  23  24
HETATM   24  C4  UNL     1      31.045   6.208  47.648  1.00  0.00     0.032 C 
HETATM   25  C3  UNL     1      31.815   7.124  48.144  1.00  0.00     0.043 C 
BRANCH  25  26
HETATM   26  C2  UNL     1      31.960   8.064  49.266  1.00  0.00     0.060 C 
HETATM   27  C1  UNL     1      30.867   9.117  49.326  1.00  0.00     0.012 C 
ENDBRANCH  25  26
BRANCH  25  28
HETATM   28  O1  UNL     1      32.981   7.383  47.386  1.00  0.00    -0.365 OA
HETATM   29  H6  UNL     1      32.855   8.085  46.668  1.00  0.00     0.217 HD
ENDBRANCH  25  28
ENDBRANCH  23  24
ENDBRANCH   1  22
TORSDOF 8
ENDMDL
MODEL 4
REMARK VINA RESULT:      -8.7      3.785      7.186
REMARK  8 active torsions:
REMARK  status: ('A' for Active; 'I' for Inactive)
REMARK    1  A    between atoms: C2_2  and  C3_3 
REMARK    2  A    between atoms: C3_3  and  O1_4 
REMARK    3  A    between atoms: C4_5  and  C5_6 
REMARK    4  A    between atoms: C6_7  and  C7_8 
REMARK    5  A    between atoms: C10_11  and  N1_12 
REMARK    6  A    between atoms: N1_12  and  C11_13 
REMARK    7  A    between atoms: C11_13  and  C13_15 
REMARK    8  A    between atoms: C16_18  and  C17_19 
ROOT
HETATM    1  C7  UNL     1      24.823   4.596  49.879  1.00  0.00     0.054 C 
HETATM    2  C8  UNL     1      24.340   3.378  49.777  1.00  0.00     0.012 C 
HETATM    3  C9  UNL     1      23.202   2.665  50.420  1.00  0.00     0.107 C 
HETATM    4  C10 UNL     1      23.151   3.010  51.865  1.00  0.00     0.105 C 
HETATM    5  N2  UNL     1      23.296   4.098  52.532  1.00  0.00    -0.229 NA
HETATM    6  C20 UNL     1      23.576   5.359  51.888  1.00  0.00     0.235 C 
HETATM    7  N3  UNL     1      24.224   5.553  50.765  1.00  0.00    -0.242 NA
ENDROOT
BRANCH   4   8
HETATM    8  N1  UNL     1      22.880   1.899  52.739  1.00  0.00    -0.370 N 
HETATM    9  H13 UNL     1      22.298   2.121  53.600  1.00  0.00     0.161 HD
BRANCH   8  10
HETATM   10  C11 UNL     1      23.372   0.586  52.445  1.00  0.00     0.112 C 
HETATM   11  C12 UNL     1      22.520  -0.475  53.082  1.00  0.00     0.037 C 
BRANCH  10  12
HETATM   12  C13 UNL     1      24.823   0.411  52.695  1.00  0.00    -0.036 A 
HETATM   13  C14 UNL     1      25.890   0.685  51.868  1.00  0.00     0.010 A 
HETATM   14  C15 UNL     1      27.176   0.442  52.306  1.00  0.00     0.017 A 
HETATM   15  C16 UNL     1      27.452  -0.072  53.557  1.00  0.00     0.047 A 
HETATM   16  C18 UNL     1      26.378  -0.344  54.380  1.00  0.00     0.017 A 
HETATM   17  C19 UNL     1      25.075  -0.111  53.967  1.00  0.00     0.010 A 
BRANCH  15  18
HETATM   18  C17 UNL     1      28.873  -0.301  53.944  1.00  0.00     0.417 C 
HETATM   19  F1  UNL     1      29.307  -1.544  53.583  1.00  0.00    -0.166 F 
HETATM   20  F2  UNL     1      29.602   0.738  53.403  1.00  0.00    -0.166 F 
HETATM   21  F3  UNL     1      28.958  -0.148  55.331  1.00  0.00    -0.166 F 
ENDBRANCH  15  18
ENDBRANCH  10  12
ENDBRANCH   8  10
ENDBRANCH   4   8
BRANCH   1  22
HETATM   22  C6  UNL     1      25.949   5.094  49.157  1.00  0.00     0.031 C 
HETATM   23  C5  UNL     1      27.169   4.665  49.074  1.00  0.00     0.005 C 
BRANCH  23  24
HETATM   24  C4  UNL     1      28.331   5.148  48.350  1.00  0.00     0.032 C 
HETATM   25  C3  UNL     1      28.793   6.350  48.207  1.00  0.00     0.043 C 
BRANCH  25  26
HETATM   26  C2  UNL     1      28.558   7.755  48.571  1.00  0.00     0.060 C 
HETATM   27  C1  UNL     1      29.354   8.744  47.738  1.00  0.00     0.012 C 
ENDBRANCH  25  26
BRANCH  25  28
HETATM   28  O1  UNL     1      29.964   6.438  47.418  1.00  0.00    -0.365 OA
HETATM   29  H6  UNL     1      30.282   5.548  47.056  1.00  0.00     0.217 HD
ENDBRANCH  25  28
ENDBRANCH  23  24
ENDBRANCH   1  22
TORSDOF 8
ENDMDL
MODEL 5
REMARK VINA RESULT:      -8.3      4.707      7.709
REMARK  8 active torsions:
REMARK  status: ('A' for Active; 'I' for Inactive)
REMARK    1  A    between atoms: C2_2  and  C3_3 
REMARK    2  A    between atoms: C3_3  and  O1_4 
REMARK    3  A    between atoms: C4_5  and  C5_6 
REMARK    4  A    between atoms: C6_7  and  C7_8 
REMARK    5  A    between atoms: C10_11  and  N1_12 
REMARK    6  A    between atoms: N1_12  and  C11_13 
REMARK    7  A    between atoms: C11_13  and  C13_15 
REMARK    8  A    between atoms: C16_18  and  C17_19 
ROOT
HETATM    1  C7  UNL     1      27.783   5.812  48.452  1.00  0.00     0.054 C 
HETATM    2  C8  UNL     1      27.297   4.685  48.921  1.00  0.00     0.012 C 
HETATM    3  C9  UNL     1      25.938   4.244  49.339  1.00  0.00     0.107 C 
HETATM    4  C10 UNL     1      25.277   5.330  50.110  1.00  0.00     0.105 C 
HETATM    5  N2  UNL     1      25.200   6.605  49.974  1.00  0.00    -0.229 NA
HETATM    6  C20 UNL     1      25.839   7.299  48.883  1.00  0.00     0.235 C 
HETATM    7  N3  UNL     1      26.933   6.951  48.249  1.00  0.00    -0.242 NA
ENDROOT
BRANCH   4   8
HETATM    8  N1  UNL     1      24.555   4.887  51.273  1.00  0.00    -0.370 N 
HETATM    9  H13 UNL     1      24.793   5.387  52.180  1.00  0.00     0.161 HD
BRANCH   8  10
HETATM   10  C11 UNL     1      23.584   3.838  51.189  1.00  0.00     0.112 C 
HETATM   11  C12 UNL     1      22.199   4.349  51.473  1.00  0.00     0.037 C 
BRANCH  10  12
HETATM   12  C13 UNL     1      23.935   2.620  51.956  1.00  0.00    -0.036 A 
HETATM   13  C14 UNL     1      23.302   1.396  51.987  1.00  0.00     0.010 A 
HETATM   14  C15 UNL     1      23.804   0.386  52.783  1.00  0.00     0.017 A 
HETATM   15  C16 UNL     1      24.930   0.544  53.565  1.00  0.00     0.047 A 
HETATM   16  C18 UNL     1      25.558   1.773  53.529  1.00  0.00     0.017 A 
HETATM   17  C19 UNL     1      25.077   2.806  52.740  1.00  0.00     0.010 A 
BRANCH  15  18
HETATM   18  C17 UNL     1      25.398  -0.604  54.393  1.00  0.00     0.417 C 
HETATM   19  F1  UNL     1      26.085  -1.522  53.652  1.00  0.00    -0.166 F 
HETATM   20  F2  UNL     1      26.114  -0.066  55.443  1.00  0.00    -0.166 F 
HETATM   21  F3  UNL     1      24.267  -1.197  54.963  1.00  0.00    -0.166 F 
ENDBRANCH  15  18
ENDBRANCH  10  12
ENDBRANCH   8  10
ENDBRANCH   4   8
BRANCH   1  22
HETATM   22  C6  UNL     1      29.149   6.034  48.105  1.00  0.00     0.031 C 
HETATM   23  C5  UNL     1      30.102   5.206  47.814  1.00  0.00     0.005 C 
BRANCH  23  24
HETATM   24  C4  UNL     1      31.496   5.403  47.457  1.00  0.00     0.032 C 
HETATM   25  C3  UNL     1      32.338   4.602  46.883  1.00  0.00     0.043 C 
BRANCH  25  26
HETATM   26  C2  UNL     1      32.484   3.255  46.312  1.00  0.00     0.060 C 
HETATM   27  C1  UNL     1      32.916   2.206  47.322  1.00  0.00     0.012 C 
ENDBRANCH  25  26
BRANCH  25  28
HETATM   28  O1  UNL     1      33.630   5.148  46.695  1.00  0.00    -0.365 OA
HETATM   29  H6  UNL     1      33.668   6.154  46.793  1.00  0.00     0.217 HD
ENDBRANCH  25  28
ENDBRANCH  23  24
ENDBRANCH   1  22
TORSDOF 8
ENDMDL
MODEL 6
REMARK VINA RESULT:      -8.2      4.287      7.816
REMARK  8 active torsions:
REMARK  status: ('A' for Active; 'I' for Inactive)
REMARK    1  A    between atoms: C2_2  and  C3_3 
REMARK    2  A    between atoms: C3_3  and  O1_4 
REMARK    3  A    between atoms: C4_5  and  C5_6 
REMARK    4  A    between atoms: C6_7  and  C7_8 
REMARK    5  A    between atoms: C10_11  and  N1_12 
REMARK    6  A    between atoms: N1_12  and  C11_13 
REMARK    7  A    between atoms: C11_13  and  C13_15 
REMARK    8  A    between atoms: C16_18  and  C17_19 
ROOT
HETATM    1  C7  UNL     1      25.237   5.559  49.101  1.00  0.00     0.054 C 
HETATM    2  C8  UNL     1      25.850   4.492  49.564  1.00  0.00     0.012 C 
HETATM    3  C9  UNL     1      25.482   3.053  49.657  1.00  0.00     0.107 C 
HETATM    4  C10 UNL     1      24.062   2.929  50.080  1.00  0.00     0.105 C 
HETATM    5  N2  UNL     1      22.978   3.542  49.767  1.00  0.00    -0.229 NA
HETATM    6  C20 UNL     1      22.957   4.619  48.806  1.00  0.00     0.235 C 
HETATM    7  N3  UNL     1      23.921   5.464  48.536  1.00  0.00    -0.242 NA
ENDROOT
BRANCH   4   8
HETATM    8  N1  UNL     1      23.814   1.901  51.056  1.00  0.00    -0.370 N 
HETATM    9  H13 UNL     1      23.320   1.032  50.694  1.00  0.00     0.161 HD
BRANCH   8  10
HETATM   10  C11 UNL     1      24.217   2.061  52.421  1.00  0.00     0.112 C 
HETATM   11  C12 UNL     1      24.035   3.480  52.884  1.00  0.00     0.037 C 
BRANCH  10  12
HETATM   12  C13 UNL     1      25.555   1.504  52.730  1.00  0.00    -0.036 A 
HETATM   13  C14 UNL     1      26.716   2.163  53.074  1.00  0.00     0.010 A 
HETATM   14  C15 UNL     1      27.865   1.441  53.322  1.00  0.00     0.017 A 
HETATM   15  C16 UNL     1      27.912   0.064  53.241  1.00  0.00     0.047 A 
HETATM   16  C18 UNL     1      26.745  -0.589  52.897  1.00  0.00     0.017 A 
HETATM   17  C19 UNL     1      25.575   0.110  52.640  1.00  0.00     0.010 A 
BRANCH  15  18
HETATM   18  C17 UNL     1      29.199  -0.632  53.527  1.00  0.00     0.417 C 
HETATM   19  F1  UNL     1      29.228  -1.891  53.000  1.00  0.00    -0.166 F 
HETATM   20  F2  UNL     1      30.204   0.200  53.078  1.00  0.00    -0.166 F 
HETATM   21  F3  UNL     1      29.341  -0.691  54.917  1.00  0.00    -0.166 F 
ENDBRANCH  15  18
ENDBRANCH  10  12
ENDBRANCH   8  10
ENDBRANCH   4   8
BRANCH   1  22
HETATM   22  C6  UNL     1      25.777   6.880  49.104  1.00  0.00     0.031 C 
HETATM   23  C5  UNL     1      26.225   7.618  50.071  1.00  0.00     0.005 C 
BRANCH  23  24
HETATM   24  C4  UNL     1      26.779   8.960  50.103  1.00  0.00     0.032 C 
HETATM   25  C3  UNL     1      27.938   9.401  49.729  1.00  0.00     0.043 C 
BRANCH  25  26
HETATM   26  C2  UNL     1      29.223   8.991  49.145  1.00  0.00     0.060 C 
HETATM   27  C1  UNL     1      29.089   8.271  47.814  1.00  0.00     0.012 C 
ENDBRANCH  25  26
BRANCH  25  28
HETATM   28  O1  UNL     1      28.125  10.791  49.917  1.00  0.00    -0.365 OA
HETATM   29  H6  UNL     1      27.783  11.357  49.151  1.00  0.00     0.217 HD
ENDBRANCH  25  28
ENDBRANCH  23  24
ENDBRANCH   1  22
TORSDOF 8
ENDMDL
MODEL 7
REMARK VINA RESULT:      -8.1      4.852      7.180
REMARK  8 active torsions:
REMARK  status: ('A' for Active; 'I' for Inactive)
REMARK    1  A    between atoms: C2_2  and  C3_3 
REMARK    2  A    between atoms: C3_3  and  O1_4 
REMARK    3  A    between atoms: C4_5  and  C5_6 
REMARK    4  A    between atoms: C6_7  and  C7_8 
REMARK    5  A    between atoms: C10_11  and  N1_12 
REMARK    6  A    between atoms: N1_12  and  C11_13 
REMARK    7  A    between atoms: C11_13  and  C13_15 
REMARK    8  A    between atoms: C16_18  and  C17_19 
ROOT
HETATM    1  C7  UNL     1      23.076   2.537  49.988  1.00  0.00     0.054 C 
HETATM    2  C8  UNL     1      22.318   1.523  49.635  1.00  0.00     0.012 C 
HETATM    3  C9  UNL     1      21.206   1.359  48.660  1.00  0.00     0.107 C 
HETATM    4  C10 UNL     1      20.306   2.541  48.727  1.00  0.00     0.105 C 
HETATM    5  N2  UNL     1      20.498   3.807  48.822  1.00  0.00    -0.229 NA
HETATM    6  C20 UNL     1      21.822   4.379  48.888  1.00  0.00     0.235 C 
HETATM    7  N3  UNL     1      22.903   3.828  49.385  1.00  0.00    -0.242 NA
ENDROOT
BRANCH   4   8
HETATM    8  N1  UNL     1      18.902   2.231  48.678  1.00  0.00    -0.370 N 
HETATM    9  H13 UNL     1      18.485   2.137  47.705  1.00  0.00     0.161 HD
BRANCH   8  10
HETATM   10  C11 UNL     1      18.137   2.064  49.877  1.00  0.00     0.112 C 
HETATM   11  C12 UNL     1      17.239   3.244  50.124  1.00  0.00     0.037 C 
BRANCH  10  12
HETATM   12  C13 UNL     1      18.938   1.671  51.060  1.00  0.00    -0.036 A 
HETATM   13  C14 UNL     1      19.642   2.465  51.939  1.00  0.00     0.010 A 
HETATM   14  C15 UNL     1      20.329   1.885  52.987  1.00  0.00     0.017 A 
HETATM   15  C16 UNL     1      20.345   0.523  53.203  1.00  0.00     0.047 A 
HETATM   16  C18 UNL     1      19.637  -0.267  52.318  1.00  0.00     0.017 A 
HETATM   17  C19 UNL     1      18.939   0.287  51.256  1.00  0.00     0.010 A 
BRANCH  15  18
HETATM   18  C17 UNL     1      21.115  -0.014  54.361  1.00  0.00     0.417 C 
HETATM   19  F1  UNL     1      22.463   0.076  54.166  1.00  0.00    -0.166 F 
HETATM   20  F2  UNL     1      20.654   0.648  55.481  1.00  0.00    -0.166 F 
HETATM   21  F3  UNL     1      20.743  -1.352  54.526  1.00  0.00    -0.166 F 
ENDBRANCH  15  18
ENDBRANCH  10  12
ENDBRANCH   8  10
ENDBRANCH   4   8
BRANCH   1  22
HETATM   22  C6  UNL     1      24.113   2.484  50.966  1.00  0.00     0.031 C 
HETATM   23  C5  UNL     1      24.083   2.193  52.228  1.00  0.00     0.005 C 
BRANCH  23  24
HETATM   24  C4  UNL     1      25.119   2.130  53.245  1.00  0.00     0.032 C 
HETATM   25  C3  UNL     1      25.775   1.117  53.715  1.00  0.00     0.043 C 
BRANCH  25  26
HETATM   26  C2  UNL     1      25.931  -0.341  53.607  1.00  0.00     0.060 C 
HETATM   27  C1  UNL     1      26.679  -0.786  52.363  1.00  0.00     0.012 C 
ENDBRANCH  25  26
BRANCH  25  28
HETATM   28  O1  UNL     1      26.721   1.445  54.715  1.00  0.00    -0.365 OA
HETATM   29  H6  UNL     1      26.314   1.850  55.547  1.00  0.00     0.217 HD
ENDBRANCH  25  28
ENDBRANCH  23  24
ENDBRANCH   1  22
TORSDOF 8
ENDMDL
MODEL 8
REMARK VINA RESULT:      -8.0      4.561      6.493
REMARK  8 active torsions:
REMARK  status: ('A' for Active; 'I' for Inactive)
REMARK    1  A    between atoms: C2_2  and  C3_3 
REMARK    2  A    between atoms: C3_3  and  O1_4 
REMARK    3  A    between atoms: C4_5  and  C5_6 
REMARK    4  A    between atoms: C6_7  and  C7_8 
REMARK    5  A    between atoms: C10_11  and  N1_12 
REMARK    6  A    between atoms: N1_12  and  C11_13 
REMARK    7  A    between atoms: C11_13  and  C13_15 
REMARK    8  A    between atoms: C16_18  and  C17_19 
ROOT
HETATM    1  C7  UNL     1      24.252   3.317  51.433  1.00  0.00     0.054 C 
HETATM    2  C8  UNL     1      23.677   2.756  50.393  1.00  0.00     0.012 C 
HETATM    3  C9  UNL     1      22.649   3.208  49.416  1.00  0.00     0.107 C 
HETATM    4  C10 UNL     1      21.576   3.950  50.130  1.00  0.00     0.105 C 
HETATM    5  N2  UNL     1      21.566   4.825  51.070  1.00  0.00    -0.229 NA
HETATM    6  C20 UNL     1      22.782   5.305  51.683  1.00  0.00     0.235 C 
HETATM    7  N3  UNL     1      23.910   4.654  51.829  1.00  0.00    -0.242 NA
ENDROOT
BRANCH   4   8
HETATM    8  N1  UNL     1      20.240   3.644  49.692  1.00  0.00    -0.370 N 
HETATM    9  H13 UNL     1      19.939   4.095  48.779  1.00  0.00     0.161 HD
BRANCH   8  10
HETATM   10  C11 UNL     1      19.389   2.781  50.457  1.00  0.00     0.112 C 
HETATM   11  C12 UNL     1      18.405   3.568  51.277  1.00  0.00     0.037 C 
BRANCH  10  12
HETATM   12  C13 UNL     1      20.112   1.745  51.232  1.00  0.00    -0.036 A 
HETATM   13  C14 UNL     1      20.726   0.594  50.789  1.00  0.00     0.010 A 
HETATM   14  C15 UNL     1      21.349  -0.242  51.693  1.00  0.00     0.017 A 
HETATM   15  C16 UNL     1      21.388   0.023  53.047  1.00  0.00     0.047 A 
HETATM   16  C18 UNL     1      20.771   1.178  53.484  1.00  0.00     0.017 A 
HETATM   17  C19 UNL     1      20.137   2.036  52.599  1.00  0.00     0.010 A 
BRANCH  15  18
HETATM   18  C17 UNL     1      22.084  -0.938  53.949  1.00  0.00     0.417 C 
HETATM   19  F1  UNL     1      21.524  -2.182  53.901  1.00  0.00    -0.166 F 
HETATM   20  F2  UNL     1      23.421  -0.899  53.610  1.00  0.00    -0.166 F 
HETATM   21  F3  UNL     1      22.003  -0.426  55.248  1.00  0.00    -0.166 F 
ENDBRANCH  15  18
ENDBRANCH  10  12
ENDBRANCH   8  10
ENDBRANCH   4   8
BRANCH   1  22
HETATM   22  C6  UNL     1      25.239   2.699  52.257  1.00  0.00     0.031 C 
HETATM   23  C5  UNL     1      25.127   1.974  53.326  1.00  0.00     0.005 C 
BRANCH  23  24
HETATM   24  C4  UNL     1      26.109   1.333  54.182  1.00  0.00     0.032 C 
HETATM   25  C3  UNL     1      26.634   0.151  54.120  1.00  0.00     0.043 C 
BRANCH  25  26
HETATM   26  C2  UNL     1      26.637  -1.100  53.347  1.00  0.00     0.060 C 
HETATM   27  C1  UNL     1      26.782  -0.894  51.850  1.00  0.00     0.012 C 
ENDBRANCH  25  26
BRANCH  25  28
HETATM   28  O1  UNL     1      27.570  -0.130  55.144  1.00  0.00    -0.365 OA
HETATM   29  H6  UNL     1      27.176  -0.111  56.075  1.00  0.00     0.217 HD
ENDBRANCH  25  28
ENDBRANCH  23  24
ENDBRANCH   1  22
TORSDOF 8
ENDMDL
MODEL 9
REMARK VINA RESULT:      -7.9      3.992      6.169
REMARK  8 active torsions:
REMARK  status: ('A' for Active; 'I' for Inactive)
REMARK    1  A    between atoms: C2_2  and  C3_3 
REMARK    2  A    between atoms: C3_3  and  O1_4 
REMARK    3  A    between atoms: C4_5  and  C5_6 
REMARK    4  A    between atoms: C6_7  and  C7_8 
REMARK    5  A    between atoms: C10_11  and  N1_12 
REMARK    6  A    between atoms: N1_12  and  C11_13 
REMARK    7  A    between atoms: C11_13  and  C13_15 
REMARK    8  A    between atoms: C16_18  and  C17_19 
ROOT
HETATM    1  C7  UNL     1      20.821   1.655  50.089  1.00  0.00     0.054 C 
HETATM    2  C8  UNL     1      20.961   2.912  50.445  1.00  0.00     0.012 C 
HETATM    3  C9  UNL     1      21.457   4.131  49.748  1.00  0.00     0.107 C 
HETATM    4  C10 UNL     1      22.664   3.792  48.950  1.00  0.00     0.105 C 
HETATM    5  N2  UNL     1      22.990   2.806  48.194  1.00  0.00    -0.229 NA
HETATM    6  C20 UNL     1      22.100   1.694  47.959  1.00  0.00     0.235 C 
HETATM    7  N3  UNL     1      21.187   1.219  48.771  1.00  0.00    -0.242 NA
ENDROOT
BRANCH   4   8
HETATM    8  N1  UNL     1      23.723   4.765  49.019  1.00  0.00    -0.370 N 
HETATM    9  H13 UNL     1      23.953   5.259  48.107  1.00  0.00     0.161 HD
BRANCH   8  10
HETATM   10  C11 UNL     1      24.406   5.031  50.249  1.00  0.00     0.112 C 
HETATM   11  C12 UNL     1      25.491   6.056  50.063  1.00  0.00     0.037 C 
BRANCH  10  12
HETATM   12  C13 UNL     1      24.856   3.818  50.971  1.00  0.00    -0.036 A 
HETATM   13  C14 UNL     1      24.310   3.210  52.081  1.00  0.00     0.010 A 
HETATM   14  C15 UNL     1      24.897   2.073  52.597  1.00  0.00     0.017 A 
HETATM   15  C16 UNL     1      26.026   1.501  52.046  1.00  0.00     0.047 A 
HETATM   16  C18 UNL     1      26.567   2.115  50.934  1.00  0.00     0.017 A 
HETATM   17  C19 UNL     1      26.000   3.259  50.394  1.00  0.00     0.010 A 
BRANCH  15  18
HETATM   18  C17 UNL     1      26.590   0.272  52.673  1.00  0.00     0.417 C 
HETATM   19  F1  UNL     1      26.841  -0.703  51.750  1.00  0.00    -0.166 F 
HETATM   20  F2  UNL     1      27.693   0.670  53.399  1.00  0.00    -0.166 F 
HETATM   21  F3  UNL     1      25.657  -0.184  53.610  1.00  0.00    -0.166 F 
ENDBRANCH  15  18
ENDBRANCH  10  12
ENDBRANCH   8  10
ENDBRANCH   4   8
BRANCH   1  22
HETATM   22  C6  UNL     1      20.314   0.617  50.926  1.00  0.00     0.031 C 
HETATM   23  C5  UNL     1      19.319   0.599  51.757  1.00  0.00     0.005 C 
BRANCH  23  24
HETATM   24  C4  UNL     1      18.781  -0.439  52.619  1.00  0.00     0.032 C 
HETATM   25  C3  UNL     1      19.363  -1.180  53.507  1.00  0.00     0.043 C 
BRANCH  25  26
HETATM   26  C2  UNL     1      20.658  -1.459  54.145  1.00  0.00     0.060 C 
HETATM   27  C1  UNL     1      21.367  -0.219  54.660  1.00  0.00     0.012 C 
ENDBRANCH  25  26
BRANCH  25  28
HETATM   28  O1  UNL     1      18.506  -2.097  54.159  1.00  0.00    -0.365 OA
HETATM   29  H6  UNL     1      17.979  -1.693  54.923  1.00  0.00     0.217 HD
ENDBRANCH  25  28
ENDBRANCH  23  24
ENDBRANCH   1  22
TORSDOF 8
ENDMDL
