MODEL 1
REMARK VINA RESULT:      -7.6      0.000      0.000
REMARK  2 active torsions:
REMARK  status: ('A' for Active; 'I' for Inactive)
REMARK    1  A    between atoms: C2_2  and  C3_3 
REMARK    2  A    between atoms: C3_3  and  N1_4 
ROOT
HETATM    1  N1  UNL     1      24.997   0.737  53.167  1.00  0.00    -0.325 N 
HETATM    2  C4  UNL     1      25.470   2.008  52.700  1.00  0.00     0.178 C 
HETATM    3  S1  UNL     1      27.139   2.029  52.621  1.00  0.00    -0.045 SA
HETATM    4  N2  UNL     1      24.543   3.077  52.327  1.00  0.00    -0.072 NA
HETATM    5  N3  UNL     1      24.652   4.408  51.865  1.00  0.00     0.009 N 
HETATM    6  C5  UNL     1      24.809   4.499  50.419  1.00  0.00     0.282 C 
HETATM    7  C6  UNL     1      23.596   4.110  49.684  1.00  0.00     0.002 C 
HETATM    8  C7  UNL     1      22.518   3.973  48.925  1.00  0.00    -0.003 C 
HETATM    9  C8  UNL     1      21.430   3.023  48.583  1.00  0.00    -0.002 C 
HETATM   10  C9  UNL     1      21.840   2.118  49.409  1.00  0.00    -0.000 C 
HETATM   11  C10 UNL     1      22.240   1.067  50.305  1.00  0.00     0.203 C 
HETATM   12  O1  UNL     1      22.238   1.514  51.657  1.00  0.00    -0.343 OA
HETATM   13  C11 UNL     1      22.550   0.659  52.676  1.00  0.00     0.117 A 
HETATM   14  C12 UNL     1      21.314   0.101  53.007  1.00  0.00     0.069 A 
HETATM   15 CL1  UNL     1      19.741   0.442  52.260  1.00  0.00    -0.081 Cl
HETATM   16  C13 UNL     1      21.143  -0.852  54.024  1.00  0.00     0.027 A 
HETATM   17  C14 UNL     1      22.257  -1.255  54.731  1.00  0.00     0.004 A 
HETATM   18  C15 UNL     1      23.448  -0.669  54.358  1.00  0.00     0.033 A 
HETATM   19  C16 UNL     1      23.662   0.267  53.369  1.00  0.00     0.071 A 
HETATM   20  H8  UNL     1      25.433   3.596  52.210  1.00  0.00     0.423 HD
HETATM   21  H9  UNL     1      23.681   4.817  52.073  1.00  0.00     0.301 HD
ENDROOT
BRANCH   1  22
HETATM   22  C3  UNL     1      26.000  -0.233  53.499  1.00  0.00     0.131 C 
BRANCH  22  23
HETATM   23  C2  UNL     1      26.329  -1.305  52.554  1.00  0.00     0.016 C 
HETATM   24  C1  UNL     1      27.785  -1.721  52.870  1.00  0.00     0.006 C 
ENDBRANCH  22  23
ENDBRANCH   1  22
TORSDOF 2
ENDMDL
MODEL 2
REMARK VINA RESULT:      -7.3      8.322     11.472
REMARK  2 active torsions:
REMARK  status: ('A' for Active; 'I' for Inactive)
REMARK    1  A    between atoms: C2_2  and  C3_3 
REMARK    2  A    between atoms: C3_3  and  N1_4 
ROOT
HETATM    1  N1  UNL     1      30.694  10.215  48.323  1.00  0.00    -0.325 N 
HETATM    2  C4  UNL     1      29.487  10.464  49.057  1.00  0.00     0.178 C 
HETATM    3  S1  UNL     1      28.872  11.976  48.697  1.00  0.00    -0.045 SA
HETATM    4  N2  UNL     1      28.918   9.458  49.954  1.00  0.00    -0.072 NA
HETATM    5  N3  UNL     1      27.801   9.371  50.815  1.00  0.00     0.009 N 
HETATM    6  C5  UNL     1      26.582   8.963  50.129  1.00  0.00     0.282 C 
HETATM    7  C6  UNL     1      26.618   7.564  49.678  1.00  0.00     0.002 C 
HETATM    8  C7  UNL     1      26.456   6.278  49.398  1.00  0.00    -0.003 C 
HETATM    9  C8  UNL     1      27.062   5.149  48.649  1.00  0.00    -0.002 C 
HETATM   10  C9  UNL     1      28.060   5.850  48.223  1.00  0.00    -0.000 C 
HETATM   11  C10 UNL     1      29.195   6.570  47.713  1.00  0.00     0.203 C 
HETATM   12  O1  UNL     1      29.999   7.082  48.771  1.00  0.00    -0.343 OA
HETATM   13  C11 UNL     1      31.150   7.766  48.506  1.00  0.00     0.117 A 
HETATM   14  C12 UNL     1      32.111   6.755  48.455  1.00  0.00     0.069 A 
HETATM   15 CL1  UNL     1      31.859   5.014  48.683  1.00  0.00    -0.081 Cl
HETATM   16  C13 UNL     1      33.473   6.993  48.203  1.00  0.00     0.027 A 
HETATM   17  C14 UNL     1      33.877   8.296  47.996  1.00  0.00     0.004 A 
HETATM   18  C15 UNL     1      32.884   9.250  48.059  1.00  0.00     0.033 A 
HETATM   19  C16 UNL     1      31.539   9.062  48.301  1.00  0.00     0.071 A 
HETATM   20  H8  UNL     1      28.256  10.231  50.149  1.00  0.00     0.423 HD
HETATM   21  H9  UNL     1      28.054   8.552  51.459  1.00  0.00     0.301 HD
ENDROOT
BRANCH   1  22
HETATM   22  C3  UNL     1      31.153  11.275  47.473  1.00  0.00     0.131 C 
BRANCH  22  23
HETATM   23  C2  UNL     1      31.017  11.164  46.017  1.00  0.00     0.016 C 
HETATM   24  C1  UNL     1      32.284  11.818  45.418  1.00  0.00     0.006 C 
ENDBRANCH  22  23
ENDBRANCH   1  22
TORSDOF 2
ENDMDL
MODEL 3
REMARK VINA RESULT:      -7.3      2.668      5.187
REMARK  2 active torsions:
REMARK  status: ('A' for Active; 'I' for Inactive)
REMARK    1  A    between atoms: C2_2  and  C3_3 
REMARK    2  A    between atoms: C3_3  and  N1_4 
ROOT
HETATM    1  N1  UNL     1      24.616   2.847  51.055  1.00  0.00    -0.325 N 
HETATM    2  C4  UNL     1      23.230   3.214  51.119  1.00  0.00     0.178 C 
HETATM    3  S1  UNL     1      22.721   3.876  49.672  1.00  0.00    -0.045 SA
HETATM    4  N2  UNL     1      22.432   2.969  52.321  1.00  0.00    -0.072 NA
HETATM    5  N3  UNL     1      21.100   3.208  52.729  1.00  0.00     0.009 N 
HETATM    6  C5  UNL     1      20.179   2.159  52.311  1.00  0.00     0.282 C 
HETATM    7  C6  UNL     1      20.399   0.888  53.017  1.00  0.00     0.002 C 
HETATM    8  C7  UNL     1      20.371  -0.240  53.715  1.00  0.00    -0.003 C 
HETATM    9  C8  UNL     1      21.218  -1.380  54.145  1.00  0.00    -0.002 C 
HETATM   10  C9  UNL     1      22.280  -0.927  53.564  1.00  0.00    -0.000 C 
HETATM   11  C10 UNL     1      23.498  -0.482  52.943  1.00  0.00     0.203 C 
HETATM   12  O1  UNL     1      23.904   0.785  53.449  1.00  0.00    -0.343 OA
HETATM   13  C11 UNL     1      25.059   1.372  53.020  1.00  0.00     0.117 A 
HETATM   14  C12 UNL     1      26.014   0.870  53.906  1.00  0.00     0.069 A 
HETATM   15 CL1  UNL     1      25.751  -0.257  55.250  1.00  0.00    -0.081 Cl
HETATM   16  C13 UNL     1      27.376   1.207  53.848  1.00  0.00     0.027 A 
HETATM   17  C14 UNL     1      27.788   2.080  52.862  1.00  0.00     0.004 A 
HETATM   18  C15 UNL     1      26.801   2.541  52.018  1.00  0.00     0.033 A 
HETATM   19  C16 UNL     1      25.455   2.237  52.038  1.00  0.00     0.071 A 
HETATM   20  H8  UNL     1      21.720   3.476  51.763  1.00  0.00     0.423 HD
HETATM   21  H9  UNL     1      21.156   3.130  53.798  1.00  0.00     0.301 HD
ENDROOT
BRANCH   1  22
HETATM   22  C3  UNL     1      25.293   3.133  49.823  1.00  0.00     0.131 C 
BRANCH  22  23
HETATM   23  C2  UNL     1      25.766   4.492  49.541  1.00  0.00     0.016 C 
HETATM   24  C1  UNL     1      27.191   4.336  48.958  1.00  0.00     0.006 C 
ENDBRANCH  22  23
ENDBRANCH   1  22
TORSDOF 2
ENDMDL
MODEL 4
REMARK VINA RESULT:      -7.0      2.363      4.750
REMARK  2 active torsions:
REMARK  status: ('A' for Active; 'I' for Inactive)
REMARK    1  A    between atoms: C2_2  and  C3_3 
REMARK    2  A    between atoms: C3_3  and  N1_4 
ROOT
HETATM    1  N1  UNL     1      25.989   1.633  52.882  1.00  0.00    -0.325 N 
HETATM    2  C4  UNL     1      25.318   0.535  53.516  1.00  0.00     0.178 C 
HETATM    3  S1  UNL     1      26.079   0.118  54.944  1.00  0.00    -0.045 SA
HETATM    4  N2  UNL     1      24.111  -0.057  52.940  1.00  0.00    -0.072 NA
HETATM    5  N3  UNL     1      23.236  -1.118  53.268  1.00  0.00     0.009 N 
HETATM    6  C5  UNL     1      22.191  -0.726  54.204  1.00  0.00     0.282 C 
HETATM    7  C6  UNL     1      21.207   0.194  53.614  1.00  0.00     0.002 C 
HETATM    8  C7  UNL     1      20.162   0.862  53.146  1.00  0.00    -0.003 C 
HETATM    9  C8  UNL     1      19.780   2.116  52.449  1.00  0.00    -0.002 C 
HETATM   10  C9  UNL     1      20.999   2.532  52.341  1.00  0.00    -0.000 C 
HETATM   11  C10 UNL     1      22.329   3.056  52.188  1.00  0.00     0.203 C 
HETATM   12  O1  UNL     1      23.146   2.175  51.424  1.00  0.00    -0.343 OA
HETATM   13  C11 UNL     1      24.438   2.502  51.127  1.00  0.00     0.117 A 
HETATM   14  C12 UNL     1      24.316   3.202  49.926  1.00  0.00     0.069 A 
HETATM   15 CL1  UNL     1      22.826   3.562  49.033  1.00  0.00    -0.081 Cl
HETATM   16  C13 UNL     1      25.411   3.743  49.230  1.00  0.00     0.027 A 
HETATM   17  C14 UNL     1      26.670   3.570  49.766  1.00  0.00     0.004 A 
HETATM   18  C15 UNL     1      26.727   2.870  50.953  1.00  0.00     0.033 A 
HETATM   19  C16 UNL     1      25.682   2.325  51.669  1.00  0.00     0.071 A 
HETATM   20  H8  UNL     1      24.238  -0.709  53.735  1.00  0.00     0.423 HD
HETATM   21  H9  UNL     1      22.732  -1.311  52.340  1.00  0.00     0.301 HD
ENDROOT
BRANCH   1  22
HETATM   22  C3  UNL     1      27.160   2.132  53.543  1.00  0.00     0.131 C 
BRANCH  22  23
HETATM   23  C2  UNL     1      28.478   1.577  53.224  1.00  0.00     0.016 C 
HETATM   24  C1  UNL     1      29.401   1.958  54.406  1.00  0.00     0.006 C 
ENDBRANCH  22  23
ENDBRANCH   1  22
TORSDOF 2
ENDMDL
MODEL 5
REMARK VINA RESULT:      -7.0      3.291      4.920
REMARK  2 active torsions:
REMARK  status: ('A' for Active; 'I' for Inactive)
REMARK    1  A    between atoms: C2_2  and  C3_3 
REMARK    2  A    between atoms: C3_3  and  N1_4 
ROOT
HETATM    1  N1  UNL     1      20.212   0.424  51.745  1.00  0.00    -0.325 N 
HETATM    2  C4  UNL     1      20.257   0.848  50.374  1.00  0.00     0.178 C 
HETATM    3  S1  UNL     1      18.733   1.262  49.829  1.00  0.00    -0.045 SA
HETATM    4  N2  UNL     1      21.520   0.914  49.637  1.00  0.00    -0.072 NA
HETATM    5  N3  UNL     1      21.920   1.252  48.325  1.00  0.00     0.009 N 
HETATM    6  C5  UNL     1      22.126   2.682  48.142  1.00  0.00     0.282 C 
HETATM    7  C6  UNL     1      23.301   3.190  48.866  1.00  0.00     0.002 C 
HETATM    8  C7  UNL     1      24.431   3.724  49.309  1.00  0.00    -0.003 C 
HETATM    9  C8  UNL     1      25.234   3.931  50.541  1.00  0.00    -0.002 C 
HETATM   10  C9  UNL     1      24.398   3.302  51.299  1.00  0.00    -0.000 C 
HETATM   11  C10 UNL     1      23.512   2.616  52.200  1.00  0.00     0.203 C 
HETATM   12  O1  UNL     1      23.343   1.254  51.822  1.00  0.00    -0.343 OA
HETATM   13  C11 UNL     1      22.570   0.412  52.568  1.00  0.00     0.117 A 
HETATM   14  C12 UNL     1      23.475  -0.105  53.496  1.00  0.00     0.069 A 
HETATM   15 CL1  UNL     1      25.204   0.267  53.640  1.00  0.00    -0.081 Cl
HETATM   16  C13 UNL     1      23.121  -1.034  54.488  1.00  0.00     0.027 A 
HETATM   17  C14 UNL     1      21.808  -1.455  54.545  1.00  0.00     0.004 A 
HETATM   18  C15 UNL     1      20.962  -0.909  53.603  1.00  0.00     0.033 A 
HETATM   19  C16 UNL     1      21.265   0.003  52.615  1.00  0.00     0.071 A 
HETATM   20  H8  UNL     1      20.875   1.157  48.863  1.00  0.00     0.423 HD
HETATM   21  H9  UNL     1      22.895   0.810  48.248  1.00  0.00     0.301 HD
ENDROOT
BRANCH   1  22
HETATM   22  C3  UNL     1      18.918   0.404  52.362  1.00  0.00     0.131 C 
BRANCH  22  23
HETATM   23  C2  UNL     1      17.953  -0.644  52.016  1.00  0.00     0.016 C 
HETATM   24  C1  UNL     1      17.532  -1.298  53.354  1.00  0.00     0.006 C 
ENDBRANCH  22  23
ENDBRANCH   1  22
TORSDOF 2
ENDMDL
MODEL 6
REMARK VINA RESULT:      -6.9      1.391      5.218
REMARK  2 active torsions:
REMARK  status: ('A' for Active; 'I' for Inactive)
REMARK    1  A    between atoms: C2_2  and  C3_3 
REMARK    2  A    between atoms: C3_3  and  N1_4 
ROOT
HETATM    1  N1  UNL     1      24.885   2.470  50.852  1.00  0.00    -0.325 N 
HETATM    2  C4  UNL     1      25.631   1.609  51.723  1.00  0.00     0.178 C 
HETATM    3  S1  UNL     1      27.040   2.351  52.229  1.00  0.00    -0.045 SA
HETATM    4  N2  UNL     1      25.133   0.285  52.099  1.00  0.00    -0.072 NA
HETATM    5  N3  UNL     1      25.592  -0.794  52.887  1.00  0.00     0.009 N 
HETATM    6  C5  UNL     1      25.274  -0.643  54.301  1.00  0.00     0.282 C 
HETATM    7  C6  UNL     1      23.836  -0.764  54.582  1.00  0.00     0.002 C 
HETATM    8  C7  UNL     1      22.603  -1.045  54.982  1.00  0.00    -0.003 C 
HETATM    9  C8  UNL     1      21.184  -0.655  54.789  1.00  0.00    -0.002 C 
HETATM   10  C9  UNL     1      21.458   0.240  53.898  1.00  0.00    -0.000 C 
HETATM   11  C10 UNL     1      21.690   1.251  52.903  1.00  0.00     0.203 C 
HETATM   12  O1  UNL     1      22.320   0.705  51.749  1.00  0.00    -0.343 OA
HETATM   13  C11 UNL     1      22.595   1.490  50.666  1.00  0.00     0.117 A 
HETATM   14  C12 UNL     1      21.431   1.390  49.903  1.00  0.00     0.069 A 
HETATM   15 CL1  UNL     1      19.967   0.462  50.283  1.00  0.00    -0.081 Cl
HETATM   16  C13 UNL     1      21.253   2.045  48.673  1.00  0.00     0.027 A 
HETATM   17  C14 UNL     1      22.286   2.827  48.198  1.00  0.00     0.004 A 
HETATM   18  C15 UNL     1      23.409   2.885  48.995  1.00  0.00     0.033 A 
HETATM   19  C16 UNL     1      23.626   2.261  50.206  1.00  0.00     0.071 A 
HETATM   20  H8  UNL     1      26.058   0.240  52.564  1.00  0.00     0.423 HD
HETATM   21  H9  UNL     1      24.993  -1.616  52.545  1.00  0.00     0.301 HD
ENDROOT
BRANCH   1  22
HETATM   22  C3  UNL     1      25.473   3.744  50.558  1.00  0.00     0.131 C 
BRANCH  22  23
HETATM   23  C2  UNL     1      24.754   4.980  50.883  1.00  0.00     0.016 C 
HETATM   24  C1  UNL     1      25.260   6.045  49.882  1.00  0.00     0.006 C 
ENDBRANCH  22  23
ENDBRANCH   1  22
TORSDOF 2
ENDMDL
MODEL 7
REMARK VINA RESULT:      -6.8      3.141      4.692
REMARK  2 active torsions:
REMARK  status: ('A' for Active; 'I' for Inactive)
REMARK    1  A    between atoms: C2_2  and  C3_3 
REMARK    2  A    between atoms: C3_3  and  N1_4 
ROOT
HETATM    1  N1  UNL     1      22.702   1.084  51.874  1.00  0.00    -0.325 N 
HETATM    2  C4  UNL     1      21.662   0.989  50.890  1.00  0.00     0.178 C 
HETATM    3  S1  UNL     1      20.231   0.476  51.584  1.00  0.00    -0.045 SA
HETATM    4  N2  UNL     1      21.900   1.349  49.492  1.00  0.00    -0.072 NA
HETATM    5  N3  UNL     1      21.146   1.359  48.297  1.00  0.00     0.009 N 
HETATM    6  C5  UNL     1      20.363   2.575  48.127  1.00  0.00     0.282 C 
HETATM    7  C6  UNL     1      21.194   3.762  47.870  1.00  0.00     0.002 C 
HETATM    8  C7  UNL     1      21.814   4.854  47.445  1.00  0.00    -0.003 C 
HETATM    9  C8  UNL     1      22.906   5.799  47.788  1.00  0.00    -0.002 C 
HETATM   10  C9  UNL     1      23.235   5.166  48.866  1.00  0.00    -0.000 C 
HETATM   11  C10 UNL     1      23.655   4.514  50.076  1.00  0.00     0.203 C 
HETATM   12  O1  UNL     1      24.080   3.179  49.823  1.00  0.00    -0.343 OA
HETATM   13  C11 UNL     1      24.556   2.394  50.833  1.00  0.00     0.117 A 
HETATM   14  C12 UNL     1      25.923   2.679  50.835  1.00  0.00     0.069 A 
HETATM   15 CL1  UNL     1      26.793   3.799  49.769  1.00  0.00    -0.081 Cl
HETATM   16  C13 UNL     1      26.835   2.089  51.725  1.00  0.00     0.027 A 
HETATM   17  C14 UNL     1      26.352   1.180  52.644  1.00  0.00     0.004 A 
HETATM   18  C15 UNL     1      24.995   0.940  52.593  1.00  0.00     0.033 A 
HETATM   19  C16 UNL     1      24.064   1.495  51.740  1.00  0.00     0.071 A 
HETATM   20  H8  UNL     1      20.928   1.003  49.399  1.00  0.00     0.423 HD
HETATM   21  H9  UNL     1      21.901   1.395  47.535  1.00  0.00     0.301 HD
ENDROOT
BRANCH   1  22
HETATM   22  C3  UNL     1      22.348   0.708  53.212  1.00  0.00     0.131 C 
BRANCH  22  23
HETATM   23  C2  UNL     1      22.572  -0.666  53.674  1.00  0.00     0.016 C 
HETATM   24  C1  UNL     1      21.723  -0.829  54.957  1.00  0.00     0.006 C 
ENDBRANCH  22  23
ENDBRANCH   1  22
TORSDOF 2
ENDMDL
MODEL 8
REMARK VINA RESULT:      -6.8      4.591      8.095
REMARK  2 active torsions:
REMARK  status: ('A' for Active; 'I' for Inactive)
REMARK    1  A    between atoms: C2_2  and  C3_3 
REMARK    2  A    between atoms: C3_3  and  N1_4 
ROOT
HETATM    1  N1  UNL     1      23.626   7.000  49.340  1.00  0.00    -0.325 N 
HETATM    2  C4  UNL     1      23.176   6.601  50.642  1.00  0.00     0.178 C 
HETATM    3  S1  UNL     1      21.525   6.807  50.792  1.00  0.00    -0.045 SA
HETATM    4  N2  UNL     1      24.104   6.059  51.636  1.00  0.00    -0.072 NA
HETATM    5  N3  UNL     1      24.018   5.601  52.971  1.00  0.00     0.009 N 
HETATM    6  C5  UNL     1      23.623   4.202  53.069  1.00  0.00     0.282 C 
HETATM    7  C6  UNL     1      24.659   3.277  52.587  1.00  0.00     0.002 C 
HETATM    8  C7  UNL     1      25.578   2.347  52.365  1.00  0.00    -0.003 C 
HETATM    9  C8  UNL     1      26.517   1.840  51.333  1.00  0.00    -0.002 C 
HETATM   10  C9  UNL     1      26.187   2.737  50.464  1.00  0.00    -0.000 C 
HETATM   11  C10 UNL     1      25.869   3.705  49.450  1.00  0.00     0.203 C 
HETATM   12  O1  UNL     1      26.136   5.030  49.898  1.00  0.00    -0.343 OA
HETATM   13  C11 UNL     1      25.940   6.100  49.073  1.00  0.00     0.117 A 
HETATM   14  C12 UNL     1      27.168   6.224  48.422  1.00  0.00     0.069 A 
HETATM   15 CL1  UNL     1      28.611   5.214  48.639  1.00  0.00    -0.081 Cl
HETATM   16  C13 UNL     1      27.439   7.211  47.461  1.00  0.00     0.027 A 
HETATM   17  C14 UNL     1      26.435   8.104  47.146  1.00  0.00     0.004 A 
HETATM   18  C15 UNL     1      25.246   7.932  47.822  1.00  0.00     0.033 A 
HETATM   19  C16 UNL     1      24.936   6.979  48.769  1.00  0.00     0.071 A 
HETATM   20  H8  UNL     1      23.249   6.087  52.222  1.00  0.00     0.423 HD
HETATM   21  H9  UNL     1      25.038   5.634  53.303  1.00  0.00     0.301 HD
ENDROOT
BRANCH   1  22
HETATM   22  C3  UNL     1      22.624   7.513  48.450  1.00  0.00     0.131 C 
BRANCH  22  23
HETATM   23  C2  UNL     1      22.203   6.730  47.285  1.00  0.00     0.016 C 
HETATM   24  C1  UNL     1      21.853   7.758  46.183  1.00  0.00     0.006 C 
ENDBRANCH  22  23
ENDBRANCH   1  22
TORSDOF 2
ENDMDL
MODEL 9
REMARK VINA RESULT:      -6.8      3.702      6.480
REMARK  2 active torsions:
REMARK  status: ('A' for Active; 'I' for Inactive)
REMARK    1  A    between atoms: C2_2  and  C3_3 
REMARK    2  A    between atoms: C3_3  and  N1_4 
ROOT
HETATM    1  N1  UNL     1      19.408   1.336  52.208  1.00  0.00    -0.325 N 
HETATM    2  C4  UNL     1      19.673   0.354  53.220  1.00  0.00     0.178 C 
HETATM    3  S1  UNL     1      18.562  -0.892  53.146  1.00  0.00    -0.045 SA
HETATM    4  N2  UNL     1      20.810   0.485  54.131  1.00  0.00    -0.072 NA
HETATM    5  N3  UNL     1      21.341  -0.250  55.216  1.00  0.00     0.009 N 
HETATM    6  C5  UNL     1      22.232  -1.323  54.795  1.00  0.00     0.282 C 
HETATM    7  C6  UNL     1      23.496  -0.831  54.226  1.00  0.00     0.002 C 
HETATM    8  C7  UNL     1      24.736  -0.518  53.878  1.00  0.00    -0.003 C 
HETATM    9  C8  UNL     1      25.521   0.292  52.913  1.00  0.00    -0.002 C 
HETATM   10  C9  UNL     1      24.474   0.778  52.333  1.00  0.00    -0.000 C 
HETATM   11  C10 UNL     1      23.355   1.357  51.641  1.00  0.00     0.203 C 
HETATM   12  O1  UNL     1      22.536   2.115  52.526  1.00  0.00    -0.343 OA
HETATM   13  C11 UNL     1      21.439   2.782  52.064  1.00  0.00     0.117 A 
HETATM   14  C12 UNL     1      21.957   4.027  51.704  1.00  0.00     0.069 A 
HETATM   15 CL1  UNL     1      23.641   4.572  51.829  1.00  0.00    -0.081 Cl
HETATM   16  C13 UNL     1      21.177   5.065  51.168  1.00  0.00     0.027 A 
HETATM   17  C14 UNL     1      19.827   4.837  50.989  1.00  0.00     0.004 A 
HETATM   18  C15 UNL     1      19.375   3.590  51.363  1.00  0.00     0.033 A 
HETATM   19  C16 UNL     1      20.103   2.544  51.891  1.00  0.00     0.071 A 
HETATM   20  H8  UNL     1      20.381  -0.364  54.542  1.00  0.00     0.423 HD
HETATM   21  H9  UNL     1      21.969   0.467  55.709  1.00  0.00     0.301 HD
ENDROOT
BRANCH   1  22
HETATM   22  C3  UNL     1      18.267   1.097  51.373  1.00  0.00     0.131 C 
BRANCH  22  23
HETATM   23  C2  UNL     1      18.430   0.439  50.073  1.00  0.00     0.016 C 
HETATM   24  C1  UNL     1      17.043  -0.142  49.710  1.00  0.00     0.006 C 
ENDBRANCH  22  23
ENDBRANCH   1  22
TORSDOF 2
ENDMDL
