MODEL 1
REMARK VINA RESULT:      -8.2      0.000      0.000
REMARK  8 active torsions:
REMARK  status: ('A' for Active; 'I' for Inactive)
REMARK    1  A    between atoms: C2_2  and  C3_3 
REMARK    2  A    between atoms: C3_3  and  C4_4 
REMARK    3  A    between atoms: C3_3  and  N2_14 
REMARK    4  A    between atoms: C4_4  and  C5_5 
REMARK       I    between atoms: N2_14  and  C13_15 
REMARK    5  A    between atoms: C13_15  and  C14_17 
REMARK    6  A    between atoms: C14_17  and  C15_18 
REMARK    7  A    between atoms: C15_18  and  C16_19 
REMARK    8  A    between atoms: C20_23  and  O2_24 
ROOT
HETATM    1  N2  UNL     1      26.933   1.416  51.411  1.00  0.00    -0.317 N 
HETATM    2  C13 UNL     1      26.286   2.558  50.999  1.00  0.00     0.246 C 
HETATM    3  O1  UNL     1      25.300   3.192  51.383  1.00  0.00    -0.268 OA
HETATM    4  H11 UNL     1      27.661   1.430  50.689  1.00  0.00     0.170 HD
ENDROOT
BRANCH   1   5
HETATM    5  C3  UNL     1      26.685   0.551  52.440  1.00  0.00     0.077 C 
BRANCH   5   6
HETATM    6  C2  UNL     1      27.882   0.461  52.979  1.00  0.00    -0.126 C 
HETATM    7  C1  UNL     1      28.954   0.333  53.749  1.00  0.00     0.099 C 
ENDBRANCH   5   6
BRANCH   5   8
HETATM    8  C4  UNL     1      25.542  -0.137  52.900  1.00  0.00     0.046 C 
BRANCH   8   9
HETATM    9  C5  UNL     1      24.450  -0.417  53.587  1.00  0.00    -0.043 C 
HETATM   10  C6  UNL     1      24.531  -1.193  54.844  1.00  0.00     0.061 C 
HETATM   11  C7  UNL     1      23.316  -1.208  55.691  1.00  0.00     0.153 C 
HETATM   12  N1  UNL     1      22.206  -1.972  55.220  1.00  0.00    -0.300 NA
HETATM   13  C8  UNL     1      21.507  -1.657  54.151  1.00  0.00     0.122 C 
HETATM   14  C9  UNL     1      21.750  -0.484  53.279  1.00  0.00    -0.008 A 
HETATM   15  C10 UNL     1      21.276   0.483  52.470  1.00  0.00     0.014 A 
HETATM   16  C12 UNL     1      23.132   0.022  53.074  1.00  0.00    -0.018 A 
HETATM   17  C11 UNL     1      22.616   0.971  52.272  1.00  0.00     0.014 A 
ENDBRANCH   8   9
ENDBRANCH   5   8
ENDBRANCH   1   5
BRANCH   2  18
HETATM   18  C14 UNL     1      26.262   3.609  50.059  1.00  0.00     0.075 C 
BRANCH  18  19
HETATM   19  C15 UNL     1      26.295   4.594  49.247  1.00  0.00     0.017 C 
BRANCH  19  20
HETATM   20  C16 UNL     1      27.113   5.586  48.607  1.00  0.00    -0.033 A 
HETATM   21  C17 UNL     1      26.568   6.756  48.174  1.00  0.00     0.011 A 
HETATM   22  C18 UNL     1      27.438   7.641  47.573  1.00  0.00     0.004 A 
HETATM   23  C19 UNL     1      28.792   7.322  47.436  1.00  0.00     0.037 A 
HETATM   24  C20 UNL     1      29.258   6.092  47.913  1.00  0.00     0.069 A 
HETATM   25  C22 UNL     1      28.413   5.165  48.529  1.00  0.00     0.048 A 
BRANCH  24  26
HETATM   26  O2  UNL     1      30.615   5.804  47.760  1.00  0.00    -0.356 OA
HETATM   27  C21 UNL     1      31.419   5.724  48.922  1.00  0.00     0.210 C 
ENDBRANCH  24  26
ENDBRANCH  19  20
ENDBRANCH  18  19
ENDBRANCH   2  18
TORSDOF 8
ENDMDL
MODEL 2
REMARK VINA RESULT:      -8.0      1.717      2.750
REMARK  8 active torsions:
REMARK  status: ('A' for Active; 'I' for Inactive)
REMARK    1  A    between atoms: C2_2  and  C3_3 
REMARK    2  A    between atoms: C3_3  and  C4_4 
REMARK    3  A    between atoms: C3_3  and  N2_14 
REMARK    4  A    between atoms: C4_4  and  C5_5 
REMARK       I    between atoms: N2_14  and  C13_15 
REMARK    5  A    between atoms: C13_15  and  C14_17 
REMARK    6  A    between atoms: C14_17  and  C15_18 
REMARK    7  A    between atoms: C15_18  and  C16_19 
REMARK    8  A    between atoms: C20_23  and  O2_24 
ROOT
HETATM    1  N2  UNL     1      26.607   2.234  51.046  1.00  0.00    -0.317 N 
HETATM    2  C13 UNL     1      26.341   3.182  50.085  1.00  0.00     0.246 C 
HETATM    3  O1  UNL     1      25.327   3.582  49.506  1.00  0.00    -0.268 OA
HETATM    4  H11 UNL     1      27.618   2.395  51.089  1.00  0.00     0.170 HD
ENDROOT
BRANCH   1   5
HETATM    5  C3  UNL     1      25.791   1.367  51.718  1.00  0.00     0.077 C 
BRANCH   5   6
HETATM    6  C2  UNL     1      26.664   0.465  52.113  1.00  0.00    -0.126 C 
HETATM    7  C1  UNL     1      27.409  -0.437  52.738  1.00  0.00     0.099 C 
ENDBRANCH   5   6
BRANCH   5   8
HETATM    8  C4  UNL     1      24.406   1.312  51.978  1.00  0.00     0.046 C 
BRANCH   8   9
HETATM    9  C5  UNL     1      23.210   0.829  52.262  1.00  0.00    -0.043 C 
HETATM   10  C6  UNL     1      22.043   1.168  51.418  1.00  0.00     0.061 C 
HETATM   11  C7  UNL     1      20.818   0.361  51.628  1.00  0.00     0.153 C 
HETATM   12  N1  UNL     1      20.090   0.589  52.835  1.00  0.00    -0.300 NA
HETATM   13  C8  UNL     1      20.547   0.283  54.029  1.00  0.00     0.122 C 
HETATM   14  C9  UNL     1      21.863  -0.336  54.316  1.00  0.00    -0.008 A 
HETATM   15  C10 UNL     1      22.628  -1.146  55.071  1.00  0.00     0.014 A 
HETATM   16  C12 UNL     1      23.035  -0.033  53.454  1.00  0.00    -0.018 A 
HETATM   17  C11 UNL     1      23.762  -0.851  54.235  1.00  0.00     0.014 A 
ENDBRANCH   8   9
ENDBRANCH   5   8
ENDBRANCH   1   5
BRANCH   2  18
HETATM   18  C14 UNL     1      26.888   4.170  49.241  1.00  0.00     0.075 C 
BRANCH  18  19
HETATM   19  C15 UNL     1      27.443   5.067  48.520  1.00  0.00     0.017 C 
BRANCH  19  20
HETATM   20  C16 UNL     1      28.588   5.916  48.344  1.00  0.00    -0.033 A 
HETATM   21  C17 UNL     1      29.804   5.382  48.045  1.00  0.00     0.011 A 
HETATM   22  C18 UNL     1      30.838   6.282  47.898  1.00  0.00     0.004 A 
HETATM   23  C19 UNL     1      30.613   7.653  48.051  1.00  0.00     0.037 A 
HETATM   24  C20 UNL     1      29.326   8.106  48.359  1.00  0.00     0.069 A 
HETATM   25  C22 UNL     1      28.248   7.231  48.518  1.00  0.00     0.048 A 
BRANCH  24  26
HETATM   26  O2  UNL     1      29.135   9.480  48.506  1.00  0.00    -0.356 OA
HETATM   27  C21 UNL     1      30.222  10.263  48.961  1.00  0.00     0.210 C 
ENDBRANCH  24  26
ENDBRANCH  19  20
ENDBRANCH  18  19
ENDBRANCH   2  18
TORSDOF 8
ENDMDL
MODEL 3
REMARK VINA RESULT:      -8.0      1.464      2.334
REMARK  8 active torsions:
REMARK  status: ('A' for Active; 'I' for Inactive)
REMARK    1  A    between atoms: C2_2  and  C3_3 
REMARK    2  A    between atoms: C3_3  and  C4_4 
REMARK    3  A    between atoms: C3_3  and  N2_14 
REMARK    4  A    between atoms: C4_4  and  C5_5 
REMARK       I    between atoms: N2_14  and  C13_15 
REMARK    5  A    between atoms: C13_15  and  C14_17 
REMARK    6  A    between atoms: C14_17  and  C15_18 
REMARK    7  A    between atoms: C15_18  and  C16_19 
REMARK    8  A    between atoms: C20_23  and  O2_24 
ROOT
HETATM    1  N2  UNL     1      26.605   2.652  51.398  1.00  0.00    -0.317 N 
HETATM    2  C13 UNL     1      26.329   3.364  50.253  1.00  0.00     0.246 C 
HETATM    3  O1  UNL     1      25.400   3.391  49.442  1.00  0.00    -0.268 OA
HETATM    4  H11 UNL     1      27.510   3.093  51.591  1.00  0.00     0.170 HD
ENDROOT
BRANCH   1   5
HETATM    5  C3  UNL     1      25.904   1.680  52.056  1.00  0.00     0.077 C 
BRANCH   5   6
HETATM    6  C2  UNL     1      26.879   0.863  52.396  1.00  0.00    -0.126 C 
HETATM    7  C1  UNL     1      27.666  -0.103  52.849  1.00  0.00     0.099 C 
ENDBRANCH   5   6
BRANCH   5   8
HETATM    8  C4  UNL     1      24.540   1.468  52.345  1.00  0.00     0.046 C 
BRANCH   8   9
HETATM    9  C5  UNL     1      23.354   0.891  52.400  1.00  0.00    -0.043 C 
HETATM   10  C6  UNL     1      22.332   1.173  51.368  1.00  0.00     0.061 C 
HETATM   11  C7  UNL     1      21.155   0.274  51.339  1.00  0.00     0.153 C 
HETATM   12  N1  UNL     1      20.209   0.409  52.400  1.00  0.00    -0.300 NA
HETATM   13  C8  UNL     1      20.469   0.097  53.651  1.00  0.00     0.122 C 
HETATM   14  C9  UNL     1      21.757  -0.434  54.156  1.00  0.00    -0.008 A 
HETATM   15  C10 UNL     1      22.436  -1.213  55.020  1.00  0.00     0.014 A 
HETATM   16  C12 UNL     1      23.036  -0.020  53.525  1.00  0.00    -0.018 A 
HETATM   17  C11 UNL     1      23.675  -0.809  54.407  1.00  0.00     0.014 A 
ENDBRANCH   8   9
ENDBRANCH   5   8
ENDBRANCH   1   5
BRANCH   2  18
HETATM   18  C14 UNL     1      26.784   4.355  49.360  1.00  0.00     0.075 C 
BRANCH  18  19
HETATM   19  C15 UNL     1      27.262   5.249  48.583  1.00  0.00     0.017 C 
BRANCH  19  20
HETATM   20  C16 UNL     1      28.431   5.982  48.185  1.00  0.00    -0.033 A 
HETATM   21  C17 UNL     1      28.340   7.297  47.845  1.00  0.00     0.011 A 
HETATM   22  C18 UNL     1      29.521   7.908  47.478  1.00  0.00     0.004 A 
HETATM   23  C19 UNL     1      30.719   7.189  47.467  1.00  0.00     0.037 A 
HETATM   24  C20 UNL     1      30.711   5.839  47.832  1.00  0.00     0.069 A 
HETATM   25  C22 UNL     1      29.539   5.178  48.212  1.00  0.00     0.048 A 
BRANCH  24  26
HETATM   26  O2  UNL     1      31.924   5.149  47.811  1.00  0.00    -0.356 OA
HETATM   27  C21 UNL     1      32.023   3.991  47.003  1.00  0.00     0.210 C 
ENDBRANCH  24  26
ENDBRANCH  19  20
ENDBRANCH  18  19
ENDBRANCH   2  18
TORSDOF 8
ENDMDL
MODEL 4
REMARK VINA RESULT:      -8.0      3.243      8.488
REMARK  8 active torsions:
REMARK  status: ('A' for Active; 'I' for Inactive)
REMARK    1  A    between atoms: C2_2  and  C3_3 
REMARK    2  A    between atoms: C3_3  and  C4_4 
REMARK    3  A    between atoms: C3_3  and  N2_14 
REMARK    4  A    between atoms: C4_4  and  C5_5 
REMARK       I    between atoms: N2_14  and  C13_15 
REMARK    5  A    between atoms: C13_15  and  C14_17 
REMARK    6  A    between atoms: C14_17  and  C15_18 
REMARK    7  A    between atoms: C15_18  and  C16_19 
REMARK    8  A    between atoms: C20_23  and  O2_24 
ROOT
HETATM    1  N2  UNL     1      24.673   2.634  50.453  1.00  0.00    -0.317 N 
HETATM    2  C13 UNL     1      23.635   2.024  51.118  1.00  0.00     0.246 C 
HETATM    3  O1  UNL     1      23.500   1.474  52.215  1.00  0.00    -0.268 OA
HETATM    4  H11 UNL     1      24.144   2.875  49.610  1.00  0.00     0.170 HD
ENDROOT
BRANCH   1   5
HETATM    5  C3  UNL     1      25.978   2.846  50.804  1.00  0.00     0.077 C 
BRANCH   5   6
HETATM    6  C2  UNL     1      26.365   3.648  49.835  1.00  0.00    -0.126 C 
HETATM    7  C1  UNL     1      26.960   4.508  49.020  1.00  0.00     0.099 C 
ENDBRANCH   5   6
BRANCH   5   8
HETATM    8  C4  UNL     1      26.807   2.393  51.852  1.00  0.00     0.046 C 
BRANCH   8   9
HETATM    9  C5  UNL     1      27.503   1.581  52.626  1.00  0.00    -0.043 C 
HETATM   10  C6  UNL     1      28.621   2.099  53.445  1.00  0.00     0.061 C 
HETATM   11  C7  UNL     1      29.150   1.192  54.491  1.00  0.00     0.153 C 
HETATM   12  N1  UNL     1      29.911   0.068  54.052  1.00  0.00    -0.300 NA
HETATM   13  C8  UNL     1      29.399  -0.940  53.379  1.00  0.00     0.122 C 
HETATM   14  C9  UNL     1      27.979  -1.073  52.975  1.00  0.00    -0.008 A 
HETATM   15  C10 UNL     1      26.909  -1.850  52.724  1.00  0.00     0.014 A 
HETATM   16  C12 UNL     1      27.179   0.135  52.647  1.00  0.00    -0.018 A 
HETATM   17  C11 UNL     1      26.135  -0.678  52.406  1.00  0.00     0.014 A 
ENDBRANCH   8   9
ENDBRANCH   5   8
ENDBRANCH   1   5
BRANCH   2  18
HETATM   18  C14 UNL     1      22.275   1.654  51.065  1.00  0.00     0.075 C 
BRANCH  18  19
HETATM   19  C15 UNL     1      21.054   1.282  51.079  1.00  0.00     0.017 C 
BRANCH  19  20
HETATM   20  C16 UNL     1      20.061   0.470  51.728  1.00  0.00    -0.033 A 
HETATM   21  C17 UNL     1      20.336  -0.140  52.913  1.00  0.00     0.011 A 
HETATM   22  C18 UNL     1      19.316  -0.897  53.452  1.00  0.00     0.004 A 
HETATM   23  C19 UNL     1      18.089  -1.006  52.792  1.00  0.00     0.037 A 
HETATM   24  C20 UNL     1      17.902  -0.340  51.576  1.00  0.00     0.069 A 
HETATM   25  C22 UNL     1      18.907   0.437  50.993  1.00  0.00     0.048 A 
BRANCH  24  26
HETATM   26  O2  UNL     1      16.666  -0.470  50.944  1.00  0.00    -0.356 OA
HETATM   27  C21 UNL     1      16.627  -0.422  49.530  1.00  0.00     0.210 C 
ENDBRANCH  24  26
ENDBRANCH  19  20
ENDBRANCH  18  19
ENDBRANCH   2  18
TORSDOF 8
ENDMDL
MODEL 5
REMARK VINA RESULT:      -7.8      2.186      4.002
REMARK  8 active torsions:
REMARK  status: ('A' for Active; 'I' for Inactive)
REMARK    1  A    between atoms: C2_2  and  C3_3 
REMARK    2  A    between atoms: C3_3  and  C4_4 
REMARK    3  A    between atoms: C3_3  and  N2_14 
REMARK    4  A    between atoms: C4_4  and  C5_5 
REMARK       I    between atoms: N2_14  and  C13_15 
REMARK    5  A    between atoms: C13_15  and  C14_17 
REMARK    6  A    between atoms: C14_17  and  C15_18 
REMARK    7  A    between atoms: C15_18  and  C16_19 
REMARK    8  A    between atoms: C20_23  and  O2_24 
ROOT
HETATM    1  N2  UNL     1      24.657   4.907  51.156  1.00  0.00    -0.317 N 
HETATM    2  C13 UNL     1      25.466   4.788  50.050  1.00  0.00     0.246 C 
HETATM    3  O1  UNL     1      25.789   3.866  49.296  1.00  0.00    -0.268 OA
HETATM    4  H11 UNL     1      24.813   5.909  51.305  1.00  0.00     0.170 HD
ENDROOT
BRANCH   1   5
HETATM    5  C3  UNL     1      23.899   3.991  51.831  1.00  0.00     0.077 C 
BRANCH   5   6
HETATM    6  C2  UNL     1      22.730   4.596  51.836  1.00  0.00    -0.126 C 
HETATM    7  C1  UNL     1      21.607   5.255  51.586  1.00  0.00     0.099 C 
ENDBRANCH   5   6
BRANCH   5   8
HETATM    8  C4  UNL     1      24.157   2.737  52.422  1.00  0.00     0.046 C 
BRANCH   8   9
HETATM    9  C5  UNL     1      24.817   1.712  52.929  1.00  0.00    -0.043 C 
HETATM   10  C6  UNL     1      24.090   0.538  53.460  1.00  0.00     0.061 C 
HETATM   11  C7  UNL     1      24.899  -0.673  53.735  1.00  0.00     0.153 C 
HETATM   12  N1  UNL     1      25.773  -0.628  54.862  1.00  0.00    -0.300 NA
HETATM   13  C8  UNL     1      26.834   0.147  54.929  1.00  0.00     0.122 C 
HETATM   14  C9  UNL     1      27.288   1.079  53.870  1.00  0.00    -0.008 A 
HETATM   15  C10 UNL     1      28.288   1.702  53.218  1.00  0.00     0.014 A 
HETATM   16  C12 UNL     1      26.297   1.756  52.994  1.00  0.00    -0.018 A 
HETATM   17  C11 UNL     1      27.326   2.357  52.371  1.00  0.00     0.014 A 
ENDBRANCH   8   9
ENDBRANCH   5   8
ENDBRANCH   1   5
BRANCH   2  18
HETATM   18  C14 UNL     1      26.327   5.461  49.159  1.00  0.00     0.075 C 
BRANCH  18  19
HETATM   19  C15 UNL     1      27.141   6.007  48.339  1.00  0.00     0.017 C 
BRANCH  19  20
HETATM   20  C16 UNL     1      28.506   6.369  48.077  1.00  0.00    -0.033 A 
HETATM   21  C17 UNL     1      28.828   7.648  47.738  1.00  0.00     0.011 A 
HETATM   22  C18 UNL     1      30.165   7.891  47.506  1.00  0.00     0.004 A 
HETATM   23  C19 UNL     1      31.104   6.862  47.622  1.00  0.00     0.037 A 
HETATM   24  C20 UNL     1      30.675   5.579  47.975  1.00  0.00     0.069 A 
HETATM   25  C22 UNL     1      29.330   5.286  48.219  1.00  0.00     0.048 A 
BRANCH  24  26
HETATM   26  O2  UNL     1      31.637   4.574  48.082  1.00  0.00    -0.356 OA
HETATM   27  C21 UNL     1      31.840   3.719  46.973  1.00  0.00     0.210 C 
ENDBRANCH  24  26
ENDBRANCH  19  20
ENDBRANCH  18  19
ENDBRANCH   2  18
TORSDOF 8
ENDMDL
MODEL 6
REMARK VINA RESULT:      -7.6      2.035      3.508
REMARK  8 active torsions:
REMARK  status: ('A' for Active; 'I' for Inactive)
REMARK    1  A    between atoms: C2_2  and  C3_3 
REMARK    2  A    between atoms: C3_3  and  C4_4 
REMARK    3  A    between atoms: C3_3  and  N2_14 
REMARK    4  A    between atoms: C4_4  and  C5_5 
REMARK       I    between atoms: N2_14  and  C13_15 
REMARK    5  A    between atoms: C13_15  and  C14_17 
REMARK    6  A    between atoms: C14_17  and  C15_18 
REMARK    7  A    between atoms: C15_18  and  C16_19 
REMARK    8  A    between atoms: C20_23  and  O2_24 
ROOT
HETATM    1  N2  UNL     1      24.247   3.844  49.535  1.00  0.00    -0.317 N 
HETATM    2  C13 UNL     1      25.576   4.149  49.349  1.00  0.00     0.246 C 
HETATM    3  O1  UNL     1      26.646   3.588  49.599  1.00  0.00    -0.268 OA
HETATM    4  H11 UNL     1      23.873   4.702  49.118  1.00  0.00     0.170 HD
ENDROOT
BRANCH   1   5
HETATM    5  C3  UNL     1      23.633   2.756  50.092  1.00  0.00     0.077 C 
BRANCH   5   6
HETATM    6  C2  UNL     1      22.760   2.460  49.153  1.00  0.00    -0.126 C 
HETATM    7  C1  UNL     1      22.063   2.260  48.042  1.00  0.00     0.099 C 
ENDBRANCH   5   6
BRANCH   5   8
HETATM    8  C4  UNL     1      23.773   2.058  51.310  1.00  0.00     0.046 C 
BRANCH   8   9
HETATM    9  C5  UNL     1      24.328   1.520  52.380  1.00  0.00    -0.043 C 
HETATM   10  C6  UNL     1      25.716   1.864  52.759  1.00  0.00     0.061 C 
HETATM   11  C7  UNL     1      26.153   1.452  54.114  1.00  0.00     0.153 C 
HETATM   12  N1  UNL     1      26.375   0.058  54.328  1.00  0.00    -0.300 NA
HETATM   13  C8  UNL     1      25.415  -0.841  54.319  1.00  0.00     0.122 C 
HETATM   14  C9  UNL     1      23.978  -0.564  54.090  1.00  0.00    -0.008 A 
HETATM   15  C10 UNL     1      22.684  -0.854  54.327  1.00  0.00     0.014 A 
HETATM   16  C12 UNL     1      23.563   0.540  53.185  1.00  0.00    -0.018 A 
HETATM   17  C11 UNL     1      22.285   0.216  53.449  1.00  0.00     0.014 A 
ENDBRANCH   8   9
ENDBRANCH   5   8
ENDBRANCH   1   5
BRANCH   2  18
HETATM   18  C14 UNL     1      26.495   5.098  48.856  1.00  0.00     0.075 C 
BRANCH  18  19
HETATM   19  C15 UNL     1      27.275   6.008  48.415  1.00  0.00     0.017 C 
BRANCH  19  20
HETATM   20  C16 UNL     1      28.618   6.346  48.033  1.00  0.00    -0.033 A 
HETATM   21  C17 UNL     1      28.898   7.568  47.502  1.00  0.00     0.011 A 
HETATM   22  C18 UNL     1      30.217   7.792  47.168  1.00  0.00     0.004 A 
HETATM   23  C19 UNL     1      31.180   6.801  47.377  1.00  0.00     0.037 A 
HETATM   24  C20 UNL     1      30.794   5.575  47.929  1.00  0.00     0.069 A 
HETATM   25  C22 UNL     1      29.469   5.303  48.283  1.00  0.00     0.048 A 
BRANCH  24  26
HETATM   26  O2  UNL     1      31.780   4.607  48.124  1.00  0.00    -0.356 OA
HETATM   27  C21 UNL     1      33.135   4.994  47.997  1.00  0.00     0.210 C 
ENDBRANCH  24  26
ENDBRANCH  19  20
ENDBRANCH  18  19
ENDBRANCH   2  18
TORSDOF 8
ENDMDL
MODEL 7
REMARK VINA RESULT:      -7.6      1.408      3.231
REMARK  8 active torsions:
REMARK  status: ('A' for Active; 'I' for Inactive)
REMARK    1  A    between atoms: C2_2  and  C3_3 
REMARK    2  A    between atoms: C3_3  and  C4_4 
REMARK    3  A    between atoms: C3_3  and  N2_14 
REMARK    4  A    between atoms: C4_4  and  C5_5 
REMARK       I    between atoms: N2_14  and  C13_15 
REMARK    5  A    between atoms: C13_15  and  C14_17 
REMARK    6  A    between atoms: C14_17  and  C15_18 
REMARK    7  A    between atoms: C15_18  and  C16_19 
REMARK    8  A    between atoms: C20_23  and  O2_24 
ROOT
HETATM    1  N2  UNL     1      23.749   3.329  50.446  1.00  0.00    -0.317 N 
HETATM    2  C13 UNL     1      25.110   3.287  50.243  1.00  0.00     0.246 C 
HETATM    3  O1  UNL     1      26.026   2.542  50.602  1.00  0.00    -0.268 OA
HETATM    4  H11 UNL     1      23.576   4.173  49.891  1.00  0.00     0.170 HD
ENDROOT
BRANCH   1   5
HETATM    5  C3  UNL     1      22.910   2.515  51.156  1.00  0.00     0.077 C 
BRANCH   5   6
HETATM    6  C2  UNL     1      21.789   2.677  50.486  1.00  0.00    -0.126 C 
HETATM    7  C1  UNL     1      20.543   2.760  50.038  1.00  0.00     0.099 C 
ENDBRANCH   5   6
BRANCH   5   8
HETATM    8  C4  UNL     1      23.055   1.699  52.297  1.00  0.00     0.046 C 
BRANCH   8   9
HETATM    9  C5  UNL     1      23.132   0.621  53.054  1.00  0.00    -0.043 C 
HETATM   10  C6  UNL     1      21.912   0.025  53.641  1.00  0.00     0.061 C 
HETATM   11  C7  UNL     1      22.051  -1.330  54.224  1.00  0.00     0.153 C 
HETATM   12  N1  UNL     1      22.769  -1.437  55.454  1.00  0.00    -0.300 NA
HETATM   13  C8  UNL     1      24.060  -1.211  55.564  1.00  0.00     0.122 C 
HETATM   14  C9  UNL     1      24.963  -0.818  54.458  1.00  0.00    -0.008 A 
HETATM   15  C10 UNL     1      26.180  -0.849  53.882  1.00  0.00     0.014 A 
HETATM   16  C12 UNL     1      24.458   0.024  53.343  1.00  0.00    -0.018 A 
HETATM   17  C11 UNL     1      25.688  -0.032  52.803  1.00  0.00     0.014 A 
ENDBRANCH   8   9
ENDBRANCH   5   8
ENDBRANCH   1   5
BRANCH   2  18
HETATM   18  C14 UNL     1      26.215   3.908  49.626  1.00  0.00     0.075 C 
BRANCH  18  19
HETATM   19  C15 UNL     1      27.183   4.460  49.002  1.00  0.00     0.017 C 
BRANCH  19  20
HETATM   20  C16 UNL     1      27.690   5.670  48.417  1.00  0.00    -0.033 A 
HETATM   21  C17 UNL     1      26.851   6.706  48.137  1.00  0.00     0.011 A 
HETATM   22  C18 UNL     1      27.437   7.821  47.576  1.00  0.00     0.004 A 
HETATM   23  C19 UNL     1      28.812   7.850  47.326  1.00  0.00     0.037 A 
HETATM   24  C20 UNL     1      29.592   6.734  47.648  1.00  0.00     0.069 A 
HETATM   25  C22 UNL     1      29.042   5.583  48.218  1.00  0.00     0.048 A 
BRANCH  24  26
HETATM   26  O2  UNL     1      30.960   6.796  47.385  1.00  0.00    -0.356 OA
HETATM   27  C21 UNL     1      31.851   6.882  48.481  1.00  0.00     0.210 C 
ENDBRANCH  24  26
ENDBRANCH  19  20
ENDBRANCH  18  19
ENDBRANCH   2  18
TORSDOF 8
ENDMDL
MODEL 8
REMARK VINA RESULT:      -7.4      4.533     10.238
REMARK  8 active torsions:
REMARK  status: ('A' for Active; 'I' for Inactive)
REMARK    1  A    between atoms: C2_2  and  C3_3 
REMARK    2  A    between atoms: C3_3  and  C4_4 
REMARK    3  A    between atoms: C3_3  and  N2_14 
REMARK    4  A    between atoms: C4_4  and  C5_5 
REMARK       I    between atoms: N2_14  and  C13_15 
REMARK    5  A    between atoms: C13_15  and  C14_17 
REMARK    6  A    between atoms: C14_17  and  C15_18 
REMARK    7  A    between atoms: C15_18  and  C16_19 
REMARK    8  A    between atoms: C20_23  and  O2_24 
ROOT
HETATM    1  N2  UNL     1      22.229   0.902  53.222  1.00  0.00    -0.317 N 
HETATM    2  C13 UNL     1      21.125   0.588  52.463  1.00  0.00     0.246 C 
HETATM    3  O1  UNL     1      20.873   0.557  51.255  1.00  0.00    -0.268 OA
HETATM    4  H11 UNL     1      21.794   0.728  54.134  1.00  0.00     0.170 HD
ENDROOT
BRANCH   1   5
HETATM    5  C3  UNL     1      23.487   1.310  52.873  1.00  0.00     0.077 C 
BRANCH   5   6
HETATM    6  C2  UNL     1      23.296   2.605  52.742  1.00  0.00    -0.126 C 
HETATM    7  C1  UNL     1      23.156   3.866  52.353  1.00  0.00     0.099 C 
ENDBRANCH   5   6
BRANCH   5   8
HETATM    8  C4  UNL     1      24.716   0.653  52.660  1.00  0.00     0.046 C 
BRANCH   8   9
HETATM    9  C5  UNL     1      25.951   0.227  52.856  1.00  0.00    -0.043 C 
HETATM   10  C6  UNL     1      26.243  -1.221  52.935  1.00  0.00     0.061 C 
HETATM   11  C7  UNL     1      27.670  -1.613  52.861  1.00  0.00     0.153 C 
HETATM   12  N1  UNL     1      28.482  -1.325  53.999  1.00  0.00    -0.300 NA
HETATM   13  C8  UNL     1      28.794  -0.106  54.381  1.00  0.00     0.122 C 
HETATM   14  C9  UNL     1      28.365   1.143  53.708  1.00  0.00    -0.008 A 
HETATM   15  C10 UNL     1      28.611   2.419  53.358  1.00  0.00     0.014 A 
HETATM   16  C12 UNL     1      27.044   1.212  53.030  1.00  0.00    -0.018 A 
HETATM   17  C11 UNL     1      27.330   2.484  52.702  1.00  0.00     0.014 A 
ENDBRANCH   8   9
ENDBRANCH   5   8
ENDBRANCH   1   5
BRANCH   2  18
HETATM   18  C14 UNL     1      19.780   0.168  52.482  1.00  0.00     0.075 C 
BRANCH  18  19
HETATM   19  C15 UNL     1      18.584  -0.280  52.514  1.00  0.00     0.017 C 
BRANCH  19  20
HETATM   20  C16 UNL     1      17.742  -1.415  52.772  1.00  0.00    -0.033 A 
HETATM   21  C17 UNL     1      18.190  -2.447  53.538  1.00  0.00     0.011 A 
HETATM   22  C18 UNL     1      17.305  -3.488  53.725  1.00  0.00     0.004 A 
HETATM   23  C19 UNL     1      16.033  -3.450  53.147  1.00  0.00     0.037 A 
HETATM   24  C20 UNL     1      15.664  -2.344  52.373  1.00  0.00     0.069 A 
HETATM   25  C22 UNL     1      16.528  -1.267  52.157  1.00  0.00     0.048 A 
BRANCH  24  26
HETATM   26  O2  UNL     1      14.388  -2.338  51.810  1.00  0.00    -0.356 OA
HETATM   27  C21 UNL     1      14.041  -3.384  50.923  1.00  0.00     0.210 C 
ENDBRANCH  24  26
ENDBRANCH  19  20
ENDBRANCH  18  19
ENDBRANCH   2  18
TORSDOF 8
ENDMDL
MODEL 9
REMARK VINA RESULT:      -7.3      2.441      4.174
REMARK  8 active torsions:
REMARK  status: ('A' for Active; 'I' for Inactive)
REMARK    1  A    between atoms: C2_2  and  C3_3 
REMARK    2  A    between atoms: C3_3  and  C4_4 
REMARK    3  A    between atoms: C3_3  and  N2_14 
REMARK    4  A    between atoms: C4_4  and  C5_5 
REMARK       I    between atoms: N2_14  and  C13_15 
REMARK    5  A    between atoms: C13_15  and  C14_17 
REMARK    6  A    between atoms: C14_17  and  C15_18 
REMARK    7  A    between atoms: C15_18  and  C16_19 
REMARK    8  A    between atoms: C20_23  and  O2_24 
ROOT
HETATM    1  N2  UNL     1      25.813   4.611  49.597  1.00  0.00    -0.317 N 
HETATM    2  C13 UNL     1      26.961   4.983  48.935  1.00  0.00     0.246 C 
HETATM    3  O1  UNL     1      27.961   4.392  48.517  1.00  0.00    -0.268 OA
HETATM    4  H11 UNL     1      25.402   5.548  49.647  1.00  0.00     0.170 HD
ENDROOT
BRANCH   1   5
HETATM    5  C3  UNL     1      25.372   3.395  50.039  1.00  0.00     0.077 C 
BRANCH   5   6
HETATM    6  C2  UNL     1      24.286   3.248  49.311  1.00  0.00    -0.126 C 
HETATM    7  C1  UNL     1      23.116   2.935  48.770  1.00  0.00     0.099 C 
ENDBRANCH   5   6
BRANCH   5   8
HETATM    8  C4  UNL     1      25.829   2.467  50.998  1.00  0.00     0.046 C 
BRANCH   8   9
HETATM    9  C5  UNL     1      25.895   1.753  52.107  1.00  0.00    -0.043 C 
HETATM   10  C6  UNL     1      27.188   1.555  52.798  1.00  0.00     0.061 C 
HETATM   11  C7  UNL     1      27.127   1.000  54.170  1.00  0.00     0.153 C 
HETATM   12  N1  UNL     1      26.779  -0.378  54.298  1.00  0.00    -0.300 NA
HETATM   13  C8  UNL     1      25.589  -0.858  54.007  1.00  0.00     0.122 C 
HETATM   14  C9  UNL     1      24.439  -0.065  53.509  1.00  0.00    -0.008 A 
HETATM   15  C10 UNL     1      23.111   0.142  53.444  1.00  0.00     0.014 A 
HETATM   16  C12 UNL     1      24.667   1.120  52.643  1.00  0.00    -0.018 A 
HETATM   17  C11 UNL     1      23.334   1.290  52.604  1.00  0.00     0.014 A 
ENDBRANCH   8   9
ENDBRANCH   5   8
ENDBRANCH   1   5
BRANCH   2  18
HETATM   18  C14 UNL     1      27.687   6.053  48.373  1.00  0.00     0.075 C 
BRANCH  18  19
HETATM   19  C15 UNL     1      28.281   7.051  47.842  1.00  0.00     0.017 C 
BRANCH  19  20
HETATM   20  C16 UNL     1      29.542   7.686  47.576  1.00  0.00    -0.033 A 
HETATM   21  C17 UNL     1      30.608   6.953  47.153  1.00  0.00     0.011 A 
HETATM   22  C18 UNL     1      31.772   7.657  46.927  1.00  0.00     0.004 A 
HETATM   23  C19 UNL     1      31.816   9.040  47.128  1.00  0.00     0.037 A 
HETATM   24  C20 UNL     1      30.665   9.705  47.565  1.00  0.00     0.069 A 
HETATM   25  C22 UNL     1      29.464   9.033  47.807  1.00  0.00     0.048 A 
BRANCH  24  26
HETATM   26  O2  UNL     1      30.743  11.085  47.757  1.00  0.00    -0.356 OA
HETATM   27  C21 UNL     1      30.683  11.583  49.080  1.00  0.00     0.210 C 
ENDBRANCH  24  26
ENDBRANCH  19  20
ENDBRANCH  18  19
ENDBRANCH   2  18
TORSDOF 8
ENDMDL
