MODEL 1
REMARK VINA RESULT:      -9.1      0.000      0.000
REMARK  2 active torsions:
REMARK  status: ('A' for Active; 'I' for Inactive)
REMARK    1  A    between atoms: C7_7  and  N1_8 
REMARK    2  A    between atoms: N1_8  and  C8_9 
ROOT
HETATM    1  C1  UNL     1      29.173   0.573  53.862  1.00  0.00     0.018 C 
HETATM    2  C2  UNL     1      28.144   0.910  53.318  1.00  0.00    -0.078 C 
HETATM    3  C3  UNL     1      26.922   1.288  52.687  1.00  0.00     0.019 A 
HETATM    4  C4  UNL     1      25.733   0.804  53.186  1.00  0.00     0.021 A 
HETATM    5  C5  UNL     1      24.564   1.177  52.571  1.00  0.00     0.004 A 
HETATM    6  C6  UNL     1      24.602   2.015  51.485  1.00  0.00     0.029 A 
HETATM    7  C7  UNL     1      25.739   2.543  50.922  1.00  0.00     0.035 A 
HETATM    8  C23 UNL     1      26.869   2.120  51.599  1.00  0.00     0.050 A 
ENDROOT
BRANCH   7   9
HETATM    9  N1  UNL     1      25.785   3.389  49.796  1.00  0.00    -0.340 N 
HETATM   10  H5  UNL     1      25.977   2.825  48.962  1.00  0.00     0.167 HD
BRANCH   9  11
HETATM   11  C8  UNL     1      25.599   4.777  49.811  1.00  0.00     0.143 A 
HETATM   12  N2  UNL     1      24.522   5.263  50.420  1.00  0.00    -0.223 NA
HETATM   13  C9  UNL     1      24.326   6.580  50.449  1.00  0.00     0.236 A 
HETATM   14  N3  UNL     1      25.197   7.470  49.869  1.00  0.00    -0.241 NA
HETATM   15  C10 UNL     1      26.270   6.963  49.264  1.00  0.00     0.071 A 
HETATM   16  C11 UNL     1      26.485   5.625  49.226  1.00  0.00     0.060 A 
HETATM   17  C22 UNL     1      26.807   8.085  48.872  1.00  0.00     0.018 C 
HETATM   18  C12 UNL     1      27.541   5.124  48.636  1.00  0.00     0.152 C 
HETATM   19  O1  UNL     1      28.716   5.161  47.939  1.00  0.00    -0.360 OA
HETATM   20  C13 UNL     1      29.904   5.579  48.582  1.00  0.00     0.201 C 
HETATM   21  C14 UNL     1      31.129   5.534  47.738  1.00  0.00     0.201 C 
HETATM   22  O2  UNL     1      32.288   5.995  48.493  1.00  0.00    -0.361 OA
HETATM   23  C15 UNL     1      32.065   7.313  49.003  1.00  0.00     0.132 C 
HETATM   24  C16 UNL     1      31.399   8.335  48.500  1.00  0.00     0.023 C 
HETATM   25  C17 UNL     1      30.713   9.584  48.126  1.00  0.00     0.198 C 
HETATM   26  O3  UNL     1      30.919  10.511  49.200  1.00  0.00    -0.376 OA
HETATM   27  C18 UNL     1      29.952  11.566  48.943  1.00  0.00     0.261 C 
HETATM   28  C19 UNL     1      28.684  10.864  48.957  1.00  0.00    -0.080 C 
HETATM   29  C20 UNL     1      27.696  10.293  48.967  1.00  0.00    -0.101 C 
HETATM   30  C21 UNL     1      26.476   9.557  48.977  1.00  0.00     0.123 C 
ENDBRANCH   9  11
ENDBRANCH   7   9
TORSDOF 2
ENDMDL
MODEL 2
REMARK VINA RESULT:      -8.9      6.344      9.996
REMARK  2 active torsions:
REMARK  status: ('A' for Active; 'I' for Inactive)
REMARK    1  A    between atoms: C7_7  and  N1_8 
REMARK    2  A    between atoms: N1_8  and  C8_9 
ROOT
HETATM    1  C1  UNL     1      14.069  -1.450  50.398  1.00  0.00     0.018 C 
HETATM    2  C2  UNL     1      14.948  -1.734  51.181  1.00  0.00    -0.078 C 
HETATM    3  C3  UNL     1      15.972  -2.086  52.110  1.00  0.00     0.019 A 
HETATM    4  C4  UNL     1      16.028  -3.377  52.586  1.00  0.00     0.021 A 
HETATM    5  C5  UNL     1      17.019  -3.704  53.478  1.00  0.00     0.004 A 
HETATM    6  C6  UNL     1      17.924  -2.750  53.873  1.00  0.00     0.029 A 
HETATM    7  C7  UNL     1      17.941  -1.442  53.451  1.00  0.00     0.035 A 
HETATM    8  C23 UNL     1      16.914  -1.197  52.557  1.00  0.00     0.050 A 
ENDROOT
BRANCH   7   9
HETATM    9  N1  UNL     1      18.855  -0.454  53.868  1.00  0.00    -0.340 N 
HETATM   10  H5  UNL     1      18.335   0.347  54.240  1.00  0.00     0.167 HD
BRANCH   9  11
HETATM   11  C8  UNL     1      20.250  -0.549  53.786  1.00  0.00     0.143 A 
HETATM   12  N2  UNL     1      20.824  -1.702  54.110  1.00  0.00    -0.223 NA
HETATM   13  C9  UNL     1      22.149  -1.816  54.038  1.00  0.00     0.236 A 
HETATM   14  N3  UNL     1      22.960  -0.780  53.640  1.00  0.00    -0.241 NA
HETATM   15  C10 UNL     1      22.365   0.368  53.320  1.00  0.00     0.071 A 
HETATM   16  C11 UNL     1      21.017   0.499  53.387  1.00  0.00     0.060 A 
HETATM   17  C22 UNL     1      23.433   1.049  53.011  1.00  0.00     0.018 C 
HETATM   18  C12 UNL     1      20.429   1.625  53.068  1.00  0.00     0.152 C 
HETATM   19  O1  UNL     1      20.366   2.925  52.651  1.00  0.00    -0.360 OA
HETATM   20  C13 UNL     1      20.572   3.238  51.288  1.00  0.00     0.201 C 
HETATM   21  C14 UNL     1      20.432   4.679  50.943  1.00  0.00     0.201 C 
HETATM   22  O2  UNL     1      20.675   4.891  49.521  1.00  0.00    -0.361 OA
HETATM   23  C15 UNL     1      21.967   4.398  49.152  1.00  0.00     0.132 C 
HETATM   24  C16 UNL     1      23.104   4.365  49.821  1.00  0.00     0.023 C 
HETATM   25  C17 UNL     1      24.458   4.230  50.386  1.00  0.00     0.198 C 
HETATM   26  O3  UNL     1      25.263   3.586  49.390  1.00  0.00    -0.376 OA
HETATM   27  C18 UNL     1      26.454   3.171  50.115  1.00  0.00     0.261 C 
HETATM   28  C19 UNL     1      25.926   2.303  51.149  1.00  0.00    -0.080 C 
HETATM   29  C20 UNL     1      25.491   1.627  51.959  1.00  0.00    -0.101 C 
HETATM   30  C21 UNL     1      24.923   0.793  52.965  1.00  0.00     0.123 C 
ENDBRANCH   9  11
ENDBRANCH   7   9
TORSDOF 2
ENDMDL
MODEL 3
REMARK VINA RESULT:      -8.8      3.203      8.645
REMARK  2 active torsions:
REMARK  status: ('A' for Active; 'I' for Inactive)
REMARK    1  A    between atoms: C7_7  and  N1_8 
REMARK    2  A    between atoms: N1_8  and  C8_9 
ROOT
HETATM    1  C1  UNL     1      31.828   7.368  46.192  1.00  0.00     0.018 C 
HETATM    2  C2  UNL     1      30.773   7.327  46.787  1.00  0.00    -0.078 C 
HETATM    3  C3  UNL     1      29.535   7.299  47.495  1.00  0.00     0.019 A 
HETATM    4  C4  UNL     1      28.938   8.489  47.846  1.00  0.00     0.021 A 
HETATM    5  C5  UNL     1      27.745   8.449  48.525  1.00  0.00     0.004 A 
HETATM    6  C6  UNL     1      27.179   7.238  48.836  1.00  0.00     0.029 A 
HETATM    7  C7  UNL     1      27.704   6.007  48.526  1.00  0.00     0.035 A 
HETATM    8  C23 UNL     1      28.901   6.136  47.845  1.00  0.00     0.050 A 
ENDROOT
BRANCH   7   9
HETATM    9  N1  UNL     1      27.135   4.761  48.860  1.00  0.00    -0.340 N 
HETATM   10  H5  UNL     1      27.829   4.024  48.703  1.00  0.00     0.167 HD
BRANCH   9  11
HETATM   11  C8  UNL     1      25.831   4.561  49.330  1.00  0.00     0.143 A 
HETATM   12  N2  UNL     1      24.830   5.142  48.679  1.00  0.00    -0.223 NA
HETATM   13  C9  UNL     1      23.581   4.964  49.106  1.00  0.00     0.236 A 
HETATM   14  N3  UNL     1      23.278   4.197  50.205  1.00  0.00    -0.241 NA
HETATM   15  C10 UNL     1      24.295   3.623  50.844  1.00  0.00     0.071 A 
HETATM   16  C11 UNL     1      25.572   3.793  50.421  1.00  0.00     0.060 A 
HETATM   17  C22 UNL     1      23.611   3.015  51.773  1.00  0.00     0.018 C 
HETATM   18  C12 UNL     1      26.575   3.226  51.044  1.00  0.00     0.152 C 
HETATM   19  O1  UNL     1      27.174   2.457  52.002  1.00  0.00    -0.360 OA
HETATM   20  C13 UNL     1      27.083   1.048  51.934  1.00  0.00     0.201 C 
HETATM   21  C14 UNL     1      27.813   0.315  53.004  1.00  0.00     0.201 C 
HETATM   22  O2  UNL     1      27.644  -1.124  52.846  1.00  0.00    -0.361 OA
HETATM   23  C15 UNL     1      26.255  -1.470  52.843  1.00  0.00     0.132 C 
HETATM   24  C16 UNL     1      25.231  -0.947  53.492  1.00  0.00     0.023 C 
HETATM   25  C17 UNL     1      23.965  -0.517  54.109  1.00  0.00     0.198 C 
HETATM   26  O3  UNL     1      22.935  -1.363  53.582  1.00  0.00    -0.376 OA
HETATM   27  C18 UNL     1      21.702  -0.682  53.942  1.00  0.00     0.261 C 
HETATM   28  C19 UNL     1      21.838   0.611  53.301  1.00  0.00    -0.080 C 
HETATM   29  C20 UNL     1      21.967   1.625  52.792  1.00  0.00    -0.101 C 
HETATM   30  C21 UNL     1      22.153   2.886  52.155  1.00  0.00     0.123 C 
ENDBRANCH   9  11
ENDBRANCH   7   9
TORSDOF 2
ENDMDL
MODEL 4
REMARK VINA RESULT:      -8.8      2.660      4.015
REMARK  2 active torsions:
REMARK  status: ('A' for Active; 'I' for Inactive)
REMARK    1  A    between atoms: C7_7  and  N1_8 
REMARK    2  A    between atoms: N1_8  and  C8_9 
ROOT
HETATM    1  C1  UNL     1      22.297  -0.968  54.697  1.00  0.00     0.018 C 
HETATM    2  C2  UNL     1      23.239  -0.520  54.081  1.00  0.00    -0.078 C 
HETATM    3  C3  UNL     1      24.362  -0.009  53.364  1.00  0.00     0.019 A 
HETATM    4  C4  UNL     1      25.412  -0.852  53.077  1.00  0.00     0.021 A 
HETATM    5  C5  UNL     1      26.486  -0.350  52.384  1.00  0.00     0.004 A 
HETATM    6  C6  UNL     1      26.490   0.967  51.996  1.00  0.00     0.029 A 
HETATM    7  C7  UNL     1      25.488   1.875  52.239  1.00  0.00     0.035 A 
HETATM    8  C23 UNL     1      24.448   1.290  52.938  1.00  0.00     0.050 A 
ENDROOT
BRANCH   7   9
HETATM    9  N1  UNL     1      25.497   3.232  51.859  1.00  0.00    -0.340 N 
HETATM   10  H5  UNL     1      26.320   3.688  52.264  1.00  0.00     0.167 HD
BRANCH   9  11
HETATM   11  C8  UNL     1      24.534   3.860  51.058  1.00  0.00     0.143 A 
HETATM   12  N2  UNL     1      23.266   3.827  51.452  1.00  0.00    -0.223 NA
HETATM   13  C9  UNL     1      22.333   4.418  50.708  1.00  0.00     0.236 A 
HETATM   14  N3  UNL     1      22.628   5.069  49.534  1.00  0.00    -0.241 NA
HETATM   15  C10 UNL     1      23.905   5.091  49.155  1.00  0.00     0.071 A 
HETATM   16  C11 UNL     1      24.866   4.494  49.903  1.00  0.00     0.060 A 
HETATM   17  C22 UNL     1      23.759   5.772  48.053  1.00  0.00     0.018 C 
HETATM   18  C12 UNL     1      26.123   4.518  49.536  1.00  0.00     0.152 C 
HETATM   19  O1  UNL     1      27.182   4.833  48.732  1.00  0.00    -0.360 OA
HETATM   20  C13 UNL     1      27.679   6.157  48.709  1.00  0.00     0.201 C 
HETATM   21  C14 UNL     1      28.864   6.371  47.832  1.00  0.00     0.201 C 
HETATM   22  O2  UNL     1      29.286   7.766  47.875  1.00  0.00    -0.361 OA
HETATM   23  C15 UNL     1      28.207   8.630  47.501  1.00  0.00     0.132 C 
HETATM   24  C16 UNL     1      27.226   8.464  46.634  1.00  0.00     0.023 C 
HETATM   25  C17 UNL     1      26.064   8.482  45.729  1.00  0.00     0.198 C 
HETATM   26  O3  UNL     1      25.398   9.736  45.931  1.00  0.00    -0.376 OA
HETATM   27  C18 UNL     1      24.103   9.553  45.295  1.00  0.00     0.261 C 
HETATM   28  C19 UNL     1      23.541   8.423  46.009  1.00  0.00    -0.080 C 
HETATM   29  C20 UNL     1      23.117   7.530  46.579  1.00  0.00    -0.101 C 
HETATM   30  C21 UNL     1      22.612   6.410  47.301  1.00  0.00     0.123 C 
ENDBRANCH   9  11
ENDBRANCH   7   9
TORSDOF 2
ENDMDL
MODEL 5
REMARK VINA RESULT:      -8.7      3.946      9.476
REMARK  2 active torsions:
REMARK  status: ('A' for Active; 'I' for Inactive)
REMARK    1  A    between atoms: C7_7  and  N1_8 
REMARK    2  A    between atoms: N1_8  and  C8_9 
ROOT
HETATM    1  C1  UNL     1      24.813   9.292  49.160  1.00  0.00     0.018 C 
HETATM    2  C2  UNL     1      25.532   8.325  49.027  1.00  0.00    -0.078 C 
HETATM    3  C3  UNL     1      26.389   7.199  48.855  1.00  0.00     0.019 A 
HETATM    4  C4  UNL     1      27.625   7.380  48.274  1.00  0.00     0.021 A 
HETATM    5  C5  UNL     1      28.442   6.288  48.116  1.00  0.00     0.004 A 
HETATM    6  C6  UNL     1      28.017   5.052  48.536  1.00  0.00     0.029 A 
HETATM    7  C7  UNL     1      26.805   4.781  49.124  1.00  0.00     0.035 A 
HETATM    8  C23 UNL     1      26.045   5.931  49.246  1.00  0.00     0.050 A 
ENDROOT
BRANCH   7   9
HETATM    9  N1  UNL     1      26.356   3.511  49.539  1.00  0.00    -0.340 N 
HETATM   10  H5  UNL     1      27.168   2.925  49.756  1.00  0.00     0.167 HD
BRANCH   9  11
HETATM   11  C8  UNL     1      25.017   3.113  49.638  1.00  0.00     0.143 A 
HETATM   12  N2  UNL     1      24.247   3.215  48.561  1.00  0.00    -0.223 NA
HETATM   13  C9  UNL     1      22.971   2.840  48.631  1.00  0.00     0.236 A 
HETATM   14  N3  UNL     1      22.408   2.346  49.783  1.00  0.00    -0.241 NA
HETATM   15  C10 UNL     1      23.196   2.252  50.852  1.00  0.00     0.071 A 
HETATM   16  C11 UNL     1      24.497   2.629  50.797  1.00  0.00     0.060 A 
HETATM   17  C22 UNL     1      22.320   1.762  51.685  1.00  0.00     0.018 C 
HETATM   18  C12 UNL     1      25.277   2.532  51.845  1.00  0.00     0.152 C 
HETATM   19  O1  UNL     1      25.594   2.236  53.141  1.00  0.00    -0.360 OA
HETATM   20  C13 UNL     1      25.749   0.887  53.537  1.00  0.00     0.201 C 
HETATM   21  C14 UNL     1      26.140   0.687  54.959  1.00  0.00     0.201 C 
HETATM   22  O2  UNL     1      26.261  -0.734  55.262  1.00  0.00    -0.361 OA
HETATM   23  C15 UNL     1      25.039  -1.417  54.965  1.00  0.00     0.132 C 
HETATM   24  C16 UNL     1      23.782  -1.024  55.059  1.00  0.00     0.023 C 
HETATM   25  C17 UNL     1      22.328  -0.788  55.084  1.00  0.00     0.198 C 
HETATM   26  O3  UNL     1      21.704  -1.983  54.599  1.00  0.00    -0.376 OA
HETATM   27  C18 UNL     1      20.336  -1.576  54.318  1.00  0.00     0.261 C 
HETATM   28  C19 UNL     1      20.499  -0.515  53.344  1.00  0.00    -0.080 C 
HETATM   29  C20 UNL     1      20.649   0.320  52.581  1.00  0.00    -0.101 C 
HETATM   30  C21 UNL     1      20.862   1.365  51.635  1.00  0.00     0.123 C 
ENDBRANCH   9  11
ENDBRANCH   7   9
TORSDOF 2
ENDMDL
MODEL 6
REMARK VINA RESULT:      -8.6      7.218     10.333
REMARK  2 active torsions:
REMARK  status: ('A' for Active; 'I' for Inactive)
REMARK    1  A    between atoms: C7_7  and  N1_8 
REMARK    2  A    between atoms: N1_8  and  C8_9 
ROOT
HETATM    1  C1  UNL     1      29.750   2.088  54.575  1.00  0.00     0.018 C 
HETATM    2  C2  UNL     1      28.862   1.404  54.113  1.00  0.00    -0.078 C 
HETATM    3  C3  UNL     1      27.833   0.584  53.562  1.00  0.00     0.019 A 
HETATM    4  C4  UNL     1      28.095  -0.747  53.322  1.00  0.00     0.021 A 
HETATM    5  C5  UNL     1      27.095  -1.526  52.793  1.00  0.00     0.004 A 
HETATM    6  C6  UNL     1      25.870  -0.970  52.519  1.00  0.00     0.029 A 
HETATM    7  C7  UNL     1      25.524   0.343  52.727  1.00  0.00     0.035 A 
HETATM    8  C23 UNL     1      26.583   1.056  53.259  1.00  0.00     0.050 A 
ENDROOT
BRANCH   7   9
HETATM    9  N1  UNL     1      24.274   0.922  52.429  1.00  0.00    -0.340 N 
HETATM   10  H5  UNL     1      24.420   1.748  51.841  1.00  0.00     0.167 HD
BRANCH   9  11
HETATM   11  C8  UNL     1      23.032   0.448  52.868  1.00  0.00     0.143 A 
HETATM   12  N2  UNL     1      22.929   0.008  54.118  1.00  0.00    -0.223 NA
HETATM   13  C9  UNL     1      21.757  -0.447  54.557  1.00  0.00     0.236 A 
HETATM   14  N3  UNL     1      20.634  -0.482  53.766  1.00  0.00    -0.241 NA
HETATM   15  C10 UNL     1      20.757  -0.036  52.517  1.00  0.00     0.071 A 
HETATM   16  C11 UNL     1      21.943   0.430  52.054  1.00  0.00     0.060 A 
HETATM   17  C22 UNL     1      19.527  -0.230  52.130  1.00  0.00     0.018 C 
HETATM   18  C12 UNL     1      22.066   0.874  50.828  1.00  0.00     0.152 C 
HETATM   19  O1  UNL     1      21.645   1.185  49.566  1.00  0.00    -0.360 OA
HETATM   20  C13 UNL     1      20.837   2.326  49.355  1.00  0.00     0.201 C 
HETATM   21  C14 UNL     1      20.478   2.592  47.935  1.00  0.00     0.201 C 
HETATM   22  O2  UNL     1      19.638   3.779  47.833  1.00  0.00    -0.361 OA
HETATM   23  C15 UNL     1      18.466   3.637  48.640  1.00  0.00     0.132 C 
HETATM   24  C16 UNL     1      17.739   2.575  48.933  1.00  0.00     0.023 C 
HETATM   25  C17 UNL     1      16.804   1.529  49.382  1.00  0.00     0.198 C 
HETATM   26  O3  UNL     1      15.844   2.166  50.234  1.00  0.00    -0.376 OA
HETATM   27  C18 UNL     1      15.184   1.059  50.908  1.00  0.00     0.261 C 
HETATM   28  C19 UNL     1      16.274   0.387  51.587  1.00  0.00    -0.080 C 
HETATM   29  C20 UNL     1      17.147  -0.130  52.110  1.00  0.00    -0.101 C 
HETATM   30  C21 UNL     1      18.253  -0.763  52.748  1.00  0.00     0.123 C 
ENDBRANCH   9  11
ENDBRANCH   7   9
TORSDOF 2
ENDMDL
MODEL 7
REMARK VINA RESULT:      -8.5      6.794     10.596
REMARK  2 active torsions:
REMARK  status: ('A' for Active; 'I' for Inactive)
REMARK    1  A    between atoms: C7_7  and  N1_8 
REMARK    2  A    between atoms: N1_8  and  C8_9 
ROOT
HETATM    1  C1  UNL     1      13.046   4.190  54.201  1.00  0.00     0.018 C 
HETATM    2  C2  UNL     1      13.681   4.113  53.172  1.00  0.00    -0.078 C 
HETATM    3  C3  UNL     1      14.410   4.018  51.950  1.00  0.00     0.019 A 
HETATM    4  C4  UNL     1      13.750   4.226  50.759  1.00  0.00     0.021 A 
HETATM    5  C5  UNL     1      14.464   4.135  49.589  1.00  0.00     0.004 A 
HETATM    6  C6  UNL     1      15.804   3.842  49.629  1.00  0.00     0.029 A 
HETATM    7  C7  UNL     1      16.540   3.620  50.768  1.00  0.00     0.035 A 
HETATM    8  C23 UNL     1      15.749   3.731  51.898  1.00  0.00     0.050 A 
ENDROOT
BRANCH   7   9
HETATM    9  N1  UNL     1      17.912   3.300  50.814  1.00  0.00    -0.340 N 
HETATM   10  H5  UNL     1      18.437   4.003  50.285  1.00  0.00     0.167 HD
BRANCH   9  11
HETATM   11  C8  UNL     1      18.470   2.197  51.474  1.00  0.00     0.143 A 
HETATM   12  N2  UNL     1      17.751   1.083  51.560  1.00  0.00    -0.223 NA
HETATM   13  C9  UNL     1      18.262   0.022  52.181  1.00  0.00     0.236 A 
HETATM   14  N3  UNL     1      19.515   0.027  52.745  1.00  0.00    -0.241 NA
HETATM   15  C10 UNL     1      20.219   1.153  52.648  1.00  0.00     0.071 A 
HETATM   16  C11 UNL     1      19.714   2.242  52.018  1.00  0.00     0.060 A 
HETATM   17  C22 UNL     1      21.291   0.755  53.275  1.00  0.00     0.018 C 
HETATM   18  C12 UNL     1      20.406   3.350  51.916  1.00  0.00     0.152 C 
HETATM   19  O1  UNL     1      21.487   4.166  52.098  1.00  0.00    -0.360 OA
HETATM   20  C13 UNL     1      22.658   3.965  51.331  1.00  0.00     0.201 C 
HETATM   21  C14 UNL     1      23.752   4.943  51.581  1.00  0.00     0.201 C 
HETATM   22  O2  UNL     1      24.911   4.638  50.750  1.00  0.00    -0.361 OA
HETATM   23  C15 UNL     1      25.357   3.298  50.983  1.00  0.00     0.132 C 
HETATM   24  C16 UNL     1      25.363   2.565  52.081  1.00  0.00     0.023 C 
HETATM   25  C17 UNL     1      25.457   1.587  53.178  1.00  0.00     0.198 C 
HETATM   26  O3  UNL     1      26.018   0.391  52.622  1.00  0.00    -0.376 OA
HETATM   27  C18 UNL     1      25.762  -0.621  53.636  1.00  0.00     0.261 C 
HETATM   28  C19 UNL     1      24.319  -0.606  53.762  1.00  0.00    -0.080 C 
HETATM   29  C20 UNL     1      23.181  -0.576  53.850  1.00  0.00    -0.101 C 
HETATM   30  C21 UNL     1      21.760  -0.516  53.948  1.00  0.00     0.123 C 
ENDBRANCH   9  11
ENDBRANCH   7   9
TORSDOF 2
ENDMDL
MODEL 8
REMARK VINA RESULT:      -8.5      1.923      2.859
REMARK  2 active torsions:
REMARK  status: ('A' for Active; 'I' for Inactive)
REMARK    1  A    between atoms: C7_7  and  N1_8 
REMARK    2  A    between atoms: N1_8  and  C8_9 
ROOT
HETATM    1  C1  UNL     1      21.014   1.169  49.285  1.00  0.00     0.018 C 
HETATM    2  C2  UNL     1      21.965   1.505  49.956  1.00  0.00    -0.078 C 
HETATM    3  C3  UNL     1      23.073   1.896  50.766  1.00  0.00     0.019 A 
HETATM    4  C4  UNL     1      23.169   1.406  52.050  1.00  0.00     0.021 A 
HETATM    5  C5  UNL     1      24.241   1.788  52.818  1.00  0.00     0.004 A 
HETATM    6  C6  UNL     1      25.185   2.638  52.297  1.00  0.00     0.029 A 
HETATM    7  C7  UNL     1      25.168   3.172  51.031  1.00  0.00     0.035 A 
HETATM    8  C23 UNL     1      24.060   2.739  50.326  1.00  0.00     0.050 A 
ENDROOT
BRANCH   7   9
HETATM    9  N1  UNL     1      26.124   4.060  50.499  1.00  0.00    -0.340 N 
HETATM   10  H5  UNL     1      27.063   3.716  50.726  1.00  0.00     0.167 HD
BRANCH   9  11
HETATM   11  C8  UNL     1      25.840   5.226  49.777  1.00  0.00     0.143 A 
HETATM   12  N2  UNL     1      24.681   5.837  49.997  1.00  0.00    -0.223 NA
HETATM   13  C9  UNL     1      24.389   6.949  49.323  1.00  0.00     0.236 A 
HETATM   14  N3  UNL     1      25.245   7.499  48.399  1.00  0.00    -0.241 NA
HETATM   15  C10 UNL     1      26.402   6.871  48.193  1.00  0.00     0.071 A 
HETATM   16  C11 UNL     1      26.713   5.739  48.871  1.00  0.00     0.060 A 
HETATM   17  C22 UNL     1      26.892   7.678  47.294  1.00  0.00     0.018 C 
HETATM   18  C12 UNL     1      27.852   5.122  48.675  1.00  0.00     0.152 C 
HETATM   19  O1  UNL     1      29.080   4.920  48.110  1.00  0.00    -0.360 OA
HETATM   20  C13 UNL     1      30.171   5.736  48.487  1.00  0.00     0.201 C 
HETATM   21  C14 UNL     1      31.469   5.393  47.842  1.00  0.00     0.201 C 
HETATM   22  O2  UNL     1      32.519   6.300  48.291  1.00  0.00    -0.361 OA
HETATM   23  C15 UNL     1      32.157   7.659  48.026  1.00  0.00     0.132 C 
HETATM   24  C16 UNL     1      31.469   8.194  47.035  1.00  0.00     0.023 C 
HETATM   25  C17 UNL     1      30.734   8.986  46.034  1.00  0.00     0.198 C 
HETATM   26  O3  UNL     1      30.775  10.351  46.470  1.00  0.00    -0.376 OA
HETATM   27  C18 UNL     1      29.763  11.010  45.659  1.00  0.00     0.261 C 
HETATM   28  C19 UNL     1      28.552  10.284  45.987  1.00  0.00    -0.080 C 
HETATM   29  C20 UNL     1      27.610   9.698  46.255  1.00  0.00    -0.101 C 
HETATM   30  C21 UNL     1      26.449   8.946  46.599  1.00  0.00     0.123 C 
ENDBRANCH   9  11
ENDBRANCH   7   9
TORSDOF 2
ENDMDL
MODEL 9
REMARK VINA RESULT:      -8.4      7.592     11.553
REMARK  2 active torsions:
REMARK  status: ('A' for Active; 'I' for Inactive)
REMARK    1  A    between atoms: C7_7  and  N1_8 
REMARK    2  A    between atoms: N1_8  and  C8_9 
ROOT
HETATM    1  C1  UNL     1      12.033   0.979  54.948  1.00  0.00     0.018 C 
HETATM    2  C2  UNL     1      12.770   1.358  54.064  1.00  0.00    -0.078 C 
HETATM    3  C3  UNL     1      13.621   1.817  53.015  1.00  0.00     0.019 A 
HETATM    4  C4  UNL     1      13.359   3.033  52.425  1.00  0.00     0.021 A 
HETATM    5  C5  UNL     1      14.187   3.465  51.419  1.00  0.00     0.004 A 
HETATM    6  C6  UNL     1      15.247   2.685  51.025  1.00  0.00     0.029 A 
HETATM    7  C7  UNL     1      15.580   1.463  51.557  1.00  0.00     0.035 A 
HETATM    8  C23 UNL     1      14.699   1.103  52.561  1.00  0.00     0.050 A 
ENDROOT
BRANCH   7   9
HETATM    9  N1  UNL     1      16.655   0.651  51.144  1.00  0.00    -0.340 N 
HETATM   10  H5  UNL     1      16.709   0.662  50.121  1.00  0.00     0.167 HD
BRANCH   9  11
HETATM   11  C8  UNL     1      17.511  -0.061  51.994  1.00  0.00     0.143 A 
HETATM   12  N2  UNL     1      17.104  -1.236  52.461  1.00  0.00    -0.223 NA
HETATM   13  C9  UNL     1      17.902  -1.931  53.270  1.00  0.00     0.236 A 
HETATM   14  N3  UNL     1      19.145  -1.481  53.647  1.00  0.00    -0.241 NA
HETATM   15  C10 UNL     1      19.535  -0.301  53.168  1.00  0.00     0.071 A 
HETATM   16  C11 UNL     1      18.734   0.418  52.344  1.00  0.00     0.060 A 
HETATM   17  C22 UNL     1      20.708  -0.250  53.735  1.00  0.00     0.018 C 
HETATM   18  C12 UNL     1      19.117   1.577  51.867  1.00  0.00     0.152 C 
HETATM   19  O1  UNL     1      19.965   2.633  51.687  1.00  0.00    -0.360 OA
HETATM   20  C13 UNL     1      21.101   2.491  50.857  1.00  0.00     0.201 C 
HETATM   21  C14 UNL     1      21.925   3.720  50.699  1.00  0.00     0.201 C 
HETATM   22  O2  UNL     1      23.072   3.460  49.837  1.00  0.00    -0.361 OA
HETATM   23  C15 UNL     1      23.856   2.380  50.355  1.00  0.00     0.132 C 
HETATM   24  C16 UNL     1      24.111   2.013  51.596  1.00  0.00     0.023 C 
HETATM   25  C17 UNL     1      24.515   1.438  52.891  1.00  0.00     0.198 C 
HETATM   26  O3  UNL     1      25.326   0.291  52.603  1.00  0.00    -0.376 OA
HETATM   27  C18 UNL     1      25.395  -0.418  53.871  1.00  0.00     0.261 C 
HETATM   28  C19 UNL     1      24.004  -0.694  54.172  1.00  0.00    -0.080 C 
HETATM   29  C20 UNL     1      22.903  -0.898  54.394  1.00  0.00    -0.101 C 
HETATM   30  C21 UNL     1      21.522  -1.135  54.653  1.00  0.00     0.123 C 
ENDBRANCH   9  11
ENDBRANCH   7   9
TORSDOF 2
ENDMDL
