MODEL 1
REMARK VINA RESULT:      -8.5      0.000      0.000
REMARK  7 active torsions:
REMARK  status: ('A' for Active; 'I' for Inactive)
REMARK    1  A    between atoms: C4_5  and  N1_6 
REMARK    2  A    between atoms: N1_6  and  C5_7 
REMARK    3  A    between atoms: C10_14  and  N4_15 
REMARK    4  A    between atoms: N4_15  and  C11_16 
REMARK    5  A    between atoms: C11_16  and  C12_18 
REMARK    6  A    between atoms: C12_18  and  C13_19 
REMARK    7  A    between atoms: C13_19  and  N5_20 
ROOT
HETATM    1  C5  UNL     1      24.209  -0.364  53.739  1.00  0.00     0.142 A 
HETATM    2  N2  UNL     1      24.294  -1.112  54.852  1.00  0.00    -0.224 NA
HETATM    3  C6  UNL     1      23.193  -1.430  55.538  1.00  0.00     0.236 A 
HETATM    4  N3  UNL     1      21.970  -1.022  55.152  1.00  0.00    -0.241 NA
HETATM    5  C7  UNL     1      21.830  -0.277  54.054  1.00  0.00     0.072 A 
HETATM    6  C8  UNL     1      20.541   0.072  53.744  1.00  0.00     0.035 A 
HETATM    7  C9  UNL     1      20.300   0.826  52.622  1.00  0.00     0.032 A 
HETATM    8  C10 UNL     1      21.397   1.200  51.849  1.00  0.00     0.034 A 
HETATM    9  C18 UNL     1      22.673   0.790  52.256  1.00  0.00     0.047 A 
HETATM   10  C19 UNL     1      22.956   0.047  53.353  1.00  0.00     0.041 A 
ENDROOT
BRANCH   8  11
HETATM   11  N4  UNL     1      21.148   1.865  50.641  1.00  0.00    -0.351 N 
HETATM   12  H7  UNL     1      20.310   2.411  50.887  1.00  0.00     0.166 HD
BRANCH  11  13
HETATM   13  C11 UNL     1      20.898   2.526  49.454  1.00  0.00     0.079 C 
HETATM   14  S1  UNL     1      19.539   2.966  48.602  1.00  0.00    -0.065 SA
BRANCH  13  15
HETATM   15  C12 UNL     1      22.038   3.004  48.629  1.00  0.00     0.100 C 
BRANCH  15  16
HETATM   16  C13 UNL     1      22.981   3.758  49.559  1.00  0.00     0.279 C 
BRANCH  16  17
HETATM   17  N5  UNL     1      24.371   3.419  49.260  1.00  0.00     0.088 N 
HETATM   18  C14 UNL     1      24.973   2.922  50.511  1.00  0.00     0.272 C 
HETATM   19  C15 UNL     1      26.466   3.165  50.249  1.00  0.00     0.032 C 
HETATM   20  C16 UNL     1      26.499   4.373  49.333  1.00  0.00     0.032 C 
HETATM   21  C17 UNL     1      25.049   4.723  49.200  1.00  0.00     0.272 C 
ENDBRANCH  16  17
ENDBRANCH  15  16
ENDBRANCH  13  15
ENDBRANCH  11  13
ENDBRANCH   8  11
BRANCH   1  22
HETATM   22  N1  UNL     1      25.299   0.035  52.951  1.00  0.00    -0.340 N 
HETATM   23  H3  UNL     1      25.186   0.494  52.053  1.00  0.00     0.167 HD
BRANCH  22  24
HETATM   24  C4  UNL     1      26.691  -0.100  53.193  1.00  0.00     0.035 A 
HETATM   25  C3  UNL     1      27.454  -1.246  52.915  1.00  0.00     0.032 A 
HETATM   26  C2  UNL     1      28.794  -1.344  53.144  1.00  0.00     0.046 A 
HETATM   27  C1  UNL     1      29.495  -0.302  53.676  1.00  0.00     0.138 A 
HETATM   28  F1  UNL     1      30.829  -0.411  53.897  1.00  0.00    -0.204 F 
HETATM   29  C21 UNL     1      28.823   0.860  53.980  1.00  0.00     0.074 A 
HETATM   30  C20 UNL     1      27.460   0.919  53.730  1.00  0.00     0.056 A 
HETATM   31 CL1  UNL     1      29.737   2.164  54.660  1.00  0.00    -0.081 Cl
ENDBRANCH  22  24
ENDBRANCH   1  22
TORSDOF 7
ENDMDL
MODEL 2
REMARK VINA RESULT:      -8.4      2.167      2.715
REMARK  7 active torsions:
REMARK  status: ('A' for Active; 'I' for Inactive)
REMARK    1  A    between atoms: C4_5  and  N1_6 
REMARK    2  A    between atoms: N1_6  and  C5_7 
REMARK    3  A    between atoms: C10_14  and  N4_15 
REMARK    4  A    between atoms: N4_15  and  C11_16 
REMARK    5  A    between atoms: C11_16  and  C12_18 
REMARK    6  A    between atoms: C12_18  and  C13_19 
REMARK    7  A    between atoms: C13_19  and  N5_20 
ROOT
HETATM    1  C5  UNL     1      23.965   0.763  52.722  1.00  0.00     0.142 A 
HETATM    2  N2  UNL     1      23.672  -0.474  53.159  1.00  0.00    -0.224 NA
HETATM    3  C6  UNL     1      22.413  -0.805  53.459  1.00  0.00     0.236 A 
HETATM    4  N3  UNL     1      21.399   0.072  53.341  1.00  0.00    -0.241 NA
HETATM    5  C7  UNL     1      21.635   1.313  52.911  1.00  0.00     0.072 A 
HETATM    6  C8  UNL     1      20.530   2.119  52.814  1.00  0.00     0.035 A 
HETATM    7  C9  UNL     1      20.676   3.409  52.365  1.00  0.00     0.032 A 
HETATM    8  C10 UNL     1      21.960   3.833  52.030  1.00  0.00     0.034 A 
HETATM    9  C18 UNL     1      23.020   2.928  52.166  1.00  0.00     0.047 A 
HETATM   10  C19 UNL     1      22.922   1.649  52.603  1.00  0.00     0.041 A 
ENDROOT
BRANCH   8  11
HETATM   11  N4  UNL     1      22.099   5.105  51.460  1.00  0.00    -0.351 N 
HETATM   12  H7  UNL     1      21.659   4.957  50.541  1.00  0.00     0.166 HD
BRANCH  11  13
HETATM   13  C11 UNL     1      22.230   6.358  50.892  1.00  0.00     0.079 C 
HETATM   14  S1  UNL     1      21.187   7.521  50.323  1.00  0.00    -0.065 SA
BRANCH  13  15
HETATM   15  C12 UNL     1      23.588   6.920  50.669  1.00  0.00     0.100 C 
BRANCH  15  16
HETATM   16  C13 UNL     1      24.182   6.198  49.467  1.00  0.00     0.279 C 
BRANCH  16  17
HETATM   17  N5  UNL     1      25.402   5.489  49.851  1.00  0.00     0.088 N 
HETATM   18  C14 UNL     1      26.408   5.767  48.808  1.00  0.00     0.272 C 
HETATM   19  C15 UNL     1      27.361   4.575  48.978  1.00  0.00     0.032 C 
HETATM   20  C16 UNL     1      26.477   3.451  49.482  1.00  0.00     0.032 C 
HETATM   21  C17 UNL     1      25.121   4.087  49.507  1.00  0.00     0.272 C 
ENDBRANCH  16  17
ENDBRANCH  15  16
ENDBRANCH  13  15
ENDBRANCH  11  13
ENDBRANCH   8  11
BRANCH   1  22
HETATM   22  N1  UNL     1      25.250   1.216  52.389  1.00  0.00    -0.340 N 
HETATM   23  H3  UNL     1      25.408   2.005  51.770  1.00  0.00     0.167 HD
BRANCH  22  24
HETATM   24  C4  UNL     1      26.518   0.724  52.793  1.00  0.00     0.035 A 
HETATM   25  C3  UNL     1      27.548   1.502  53.349  1.00  0.00     0.032 A 
HETATM   26  C2  UNL     1      28.753   1.001  53.742  1.00  0.00     0.046 A 
HETATM   27  C1  UNL     1      29.041  -0.326  53.613  1.00  0.00     0.138 A 
HETATM   28  F1  UNL     1      30.242  -0.812  54.010  1.00  0.00    -0.204 F 
HETATM   29  C21 UNL     1      28.086  -1.160  53.075  1.00  0.00     0.074 A 
HETATM   30  C20 UNL     1      26.872  -0.611  52.689  1.00  0.00     0.056 A 
HETATM   31 CL1  UNL     1      28.480  -2.838  52.917  1.00  0.00    -0.081 Cl
ENDBRANCH  22  24
ENDBRANCH   1  22
TORSDOF 7
ENDMDL
MODEL 3
REMARK VINA RESULT:      -8.4      1.664      5.102
REMARK  7 active torsions:
REMARK  status: ('A' for Active; 'I' for Inactive)
REMARK    1  A    between atoms: C4_5  and  N1_6 
REMARK    2  A    between atoms: N1_6  and  C5_7 
REMARK    3  A    between atoms: C10_14  and  N4_15 
REMARK    4  A    between atoms: N4_15  and  C11_16 
REMARK    5  A    between atoms: C11_16  and  C12_18 
REMARK    6  A    between atoms: C12_18  and  C13_19 
REMARK    7  A    between atoms: C13_19  and  N5_20 
ROOT
HETATM    1  C5  UNL     1      25.997   2.688  51.223  1.00  0.00     0.142 A 
HETATM    2  N2  UNL     1      26.989   3.350  50.604  1.00  0.00    -0.224 NA
HETATM    3  C6  UNL     1      26.745   4.047  49.491  1.00  0.00     0.236 A 
HETATM    4  N3  UNL     1      25.515   4.116  48.949  1.00  0.00    -0.241 NA
HETATM    5  C7  UNL     1      24.495   3.477  49.524  1.00  0.00     0.072 A 
HETATM    6  C8  UNL     1      23.284   3.625  48.898  1.00  0.00     0.035 A 
HETATM    7  C9  UNL     1      22.174   3.015  49.429  1.00  0.00     0.032 A 
HETATM    8  C10 UNL     1      22.343   2.268  50.593  1.00  0.00     0.034 A 
HETATM    9  C18 UNL     1      23.624   2.182  51.151  1.00  0.00     0.047 A 
HETATM   10  C19 UNL     1      24.745   2.766  50.662  1.00  0.00     0.041 A 
ENDROOT
BRANCH   8  11
HETATM   11  N4  UNL     1      21.197   1.744  51.204  1.00  0.00    -0.351 N 
HETATM   12  H7  UNL     1      21.023   2.450  51.933  1.00  0.00     0.166 HD
BRANCH  11  13
HETATM   13  C11 UNL     1      20.065   1.234  51.810  1.00  0.00     0.079 C 
HETATM   14  S1  UNL     1      18.444   1.179  51.445  1.00  0.00    -0.065 SA
BRANCH  13  15
HETATM   15  C12 UNL     1      20.185   0.551  53.124  1.00  0.00     0.100 C 
BRANCH  15  16
HETATM   16  C13 UNL     1      21.316  -0.463  53.003  1.00  0.00     0.279 C 
BRANCH  16  17
HETATM   17  N5  UNL     1      22.326  -0.226  54.032  1.00  0.00     0.088 N 
HETATM   18  C14 UNL     1      23.638  -0.524  53.427  1.00  0.00     0.272 C 
HETATM   19  C15 UNL     1      24.489  -0.815  54.671  1.00  0.00     0.032 C 
HETATM   20  C16 UNL     1      23.508  -1.383  55.678  1.00  0.00     0.032 C 
HETATM   21  C17 UNL     1      22.223  -1.402  54.908  1.00  0.00     0.272 C 
ENDBRANCH  16  17
ENDBRANCH  15  16
ENDBRANCH  13  15
ENDBRANCH  11  13
ENDBRANCH   8  11
BRANCH   1  22
HETATM   22  N1  UNL     1      26.145   1.921  52.388  1.00  0.00    -0.340 N 
HETATM   23  H3  UNL     1      25.418   1.852  53.094  1.00  0.00     0.167 HD
BRANCH  22  24
HETATM   24  C4  UNL     1      27.244   1.136  52.824  1.00  0.00     0.035 A 
HETATM   25  C3  UNL     1      28.395   1.634  53.456  1.00  0.00     0.032 A 
HETATM   26  C2  UNL     1      29.431   0.854  53.877  1.00  0.00     0.046 A 
HETATM   27  C1  UNL     1      29.410  -0.498  53.704  1.00  0.00     0.138 A 
HETATM   28  F1  UNL     1      30.446  -1.263  54.130  1.00  0.00    -0.204 F 
HETATM   29  C21 UNL     1      28.318  -1.069  53.092  1.00  0.00     0.074 A 
HETATM   30  C20 UNL     1      27.285  -0.241  52.678  1.00  0.00     0.056 A 
HETATM   31 CL1  UNL     1      28.321  -2.787  52.879  1.00  0.00    -0.081 Cl
ENDBRANCH  22  24
ENDBRANCH   1  22
TORSDOF 7
ENDMDL
MODEL 4
REMARK VINA RESULT:      -8.3      3.212      5.128
REMARK  7 active torsions:
REMARK  status: ('A' for Active; 'I' for Inactive)
REMARK    1  A    between atoms: C4_5  and  N1_6 
REMARK    2  A    between atoms: N1_6  and  C5_7 
REMARK    3  A    between atoms: C10_14  and  N4_15 
REMARK    4  A    between atoms: N4_15  and  C11_16 
REMARK    5  A    between atoms: C11_16  and  C12_18 
REMARK    6  A    between atoms: C12_18  and  C13_19 
REMARK    7  A    between atoms: C13_19  and  N5_20 
ROOT
HETATM    1  C5  UNL     1      24.951   0.630  52.734  1.00  0.00     0.142 A 
HETATM    2  N2  UNL     1      26.178   0.447  53.250  1.00  0.00    -0.224 NA
HETATM    3  C6  UNL     1      26.346  -0.286  54.353  1.00  0.00     0.236 A 
HETATM    4  N3  UNL     1      25.311  -0.866  54.988  1.00  0.00    -0.241 NA
HETATM    5  C7  UNL     1      24.071  -0.717  54.518  1.00  0.00     0.072 A 
HETATM    6  C8  UNL     1      23.093  -1.360  55.231  1.00  0.00     0.035 A 
HETATM    7  C9  UNL     1      21.788  -1.275  54.812  1.00  0.00     0.032 A 
HETATM    8  C10 UNL     1      21.527  -0.526  53.666  1.00  0.00     0.034 A 
HETATM    9  C18 UNL     1      22.600   0.091  53.012  1.00  0.00     0.047 A 
HETATM   10  C19 UNL     1      23.901   0.033  53.389  1.00  0.00     0.041 A 
ENDROOT
BRANCH   8  11
HETATM   11  N4  UNL     1      20.218  -0.534  53.166  1.00  0.00    -0.351 N 
HETATM   12  H7  UNL     1      19.675  -0.462  54.037  1.00  0.00     0.166 HD
BRANCH  11  13
HETATM   13  C11 UNL     1      18.925  -0.539  52.679  1.00  0.00     0.079 C 
HETATM   14  S1  UNL     1      17.491  -1.254  53.123  1.00  0.00    -0.065 SA
BRANCH  13  15
HETATM   15  C12 UNL     1      18.603   0.236  51.453  1.00  0.00     0.100 C 
BRANCH  15  16
HETATM   16  C13 UNL     1      19.482   1.481  51.463  1.00  0.00     0.279 C 
BRANCH  16  17
HETATM   17  N5  UNL     1      19.974   1.768  50.117  1.00  0.00     0.088 N 
HETATM   18  C14 UNL     1      21.136   0.889  49.886  1.00  0.00     0.272 C 
HETATM   19  C15 UNL     1      21.883   1.652  48.783  1.00  0.00     0.032 C 
HETATM   20  C16 UNL     1      21.550   3.109  49.039  1.00  0.00     0.032 C 
HETATM   21  C17 UNL     1      20.697   3.040  50.268  1.00  0.00     0.272 C 
ENDBRANCH  16  17
ENDBRANCH  15  16
ENDBRANCH  13  15
ENDBRANCH  11  13
ENDBRANCH   8  11
BRANCH   1  22
HETATM   22  N1  UNL     1      24.662   1.387  51.590  1.00  0.00    -0.340 N 
HETATM   23  H3  UNL     1      24.597   0.976  50.663  1.00  0.00     0.167 HD
BRANCH  22  24
HETATM   24  C4  UNL     1      24.419   2.779  51.460  1.00  0.00     0.035 A 
HETATM   25  C3  UNL     1      23.711   3.567  52.383  1.00  0.00     0.032 A 
HETATM   26  C2  UNL     1      23.505   4.907  52.242  1.00  0.00     0.046 A 
HETATM   27  C1  UNL     1      23.986   5.583  51.160  1.00  0.00     0.138 A 
HETATM   28  F1  UNL     1      23.776   6.916  51.031  1.00  0.00    -0.204 F 
HETATM   29  C21 UNL     1      24.692   4.886  50.205  1.00  0.00     0.074 A 
HETATM   30  C20 UNL     1      24.881   3.524  50.388  1.00  0.00     0.056 A 
HETATM   31 CL1  UNL     1      25.287   5.768  48.839  1.00  0.00    -0.081 Cl
ENDBRANCH  22  24
ENDBRANCH   1  22
TORSDOF 7
ENDMDL
MODEL 5
REMARK VINA RESULT:      -7.9      4.575      8.453
REMARK  7 active torsions:
REMARK  status: ('A' for Active; 'I' for Inactive)
REMARK    1  A    between atoms: C4_5  and  N1_6 
REMARK    2  A    between atoms: N1_6  and  C5_7 
REMARK    3  A    between atoms: C10_14  and  N4_15 
REMARK    4  A    between atoms: N4_15  and  C11_16 
REMARK    5  A    between atoms: C11_16  and  C12_18 
REMARK    6  A    between atoms: C12_18  and  C13_19 
REMARK    7  A    between atoms: C13_19  and  N5_20 
ROOT
HETATM    1  C5  UNL     1      28.275   6.315  48.338  1.00  0.00     0.142 A 
HETATM    2  N2  UNL     1      28.236   7.448  47.616  1.00  0.00    -0.224 NA
HETATM    3  C6  UNL     1      27.066   7.994  47.276  1.00  0.00     0.236 A 
HETATM    4  N3  UNL     1      25.892   7.441  47.633  1.00  0.00    -0.241 NA
HETATM    5  C7  UNL     1      25.873   6.316  48.350  1.00  0.00     0.072 A 
HETATM    6  C8  UNL     1      24.626   5.847  48.672  1.00  0.00     0.035 A 
HETATM    7  C9  UNL     1      24.510   4.702  49.421  1.00  0.00     0.032 A 
HETATM    8  C10 UNL     1      25.688   4.071  49.819  1.00  0.00     0.034 A 
HETATM    9  C18 UNL     1      26.911   4.634  49.435  1.00  0.00     0.047 A 
HETATM   10  C19 UNL     1      27.071   5.760  48.699  1.00  0.00     0.041 A 
ENDROOT
BRANCH   8  11
HETATM   11  N4  UNL     1      25.579   2.972  50.682  1.00  0.00    -0.351 N 
HETATM   12  H7  UNL     1      26.032   3.343  51.529  1.00  0.00     0.166 HD
BRANCH  11  13
HETATM   13  C11 UNL     1      25.474   1.894  51.539  1.00  0.00     0.079 C 
HETATM   14  S1  UNL     1      24.231   1.114  52.320  1.00  0.00    -0.065 SA
BRANCH  13  15
HETATM   15  C12 UNL     1      26.702   1.168  51.955  1.00  0.00     0.100 C 
BRANCH  15  16
HETATM   16  C13 UNL     1      26.783   1.254  53.474  1.00  0.00     0.279 C 
BRANCH  16  17
HETATM   17  N5  UNL     1      27.796   0.330  53.983  1.00  0.00     0.088 N 
HETATM   18  C14 UNL     1      29.110   0.866  53.581  1.00  0.00     0.272 C 
HETATM   19  C15 UNL     1      29.982  -0.396  53.625  1.00  0.00     0.032 C 
HETATM   20  C16 UNL     1      29.028  -1.528  53.294  1.00  0.00     0.032 C 
HETATM   21  C17 UNL     1      27.737  -0.808  53.053  1.00  0.00     0.272 C 
ENDBRANCH  16  17
ENDBRANCH  15  16
ENDBRANCH  13  15
ENDBRANCH  11  13
ENDBRANCH   8  11
BRANCH   1  22
HETATM   22  N1  UNL     1      29.446   5.655  48.739  1.00  0.00    -0.340 N 
HETATM   23  H3  UNL     1      29.432   4.757  49.212  1.00  0.00     0.167 HD
BRANCH  22  24
HETATM   24  C4  UNL     1      30.802   6.049  48.602  1.00  0.00     0.035 A 
HETATM   25  C3  UNL     1      31.362   7.224  49.132  1.00  0.00     0.032 A 
HETATM   26  C2  UNL     1      32.673   7.571  48.997  1.00  0.00     0.046 A 
HETATM   27  C1  UNL     1      33.546   6.775  48.316  1.00  0.00     0.138 A 
HETATM   28  F1  UNL     1      34.848   7.131  48.191  1.00  0.00    -0.204 F 
HETATM   29  C21 UNL     1      33.079   5.604  47.763  1.00  0.00     0.074 A 
HETATM   30  C20 UNL     1      31.739   5.287  47.924  1.00  0.00     0.056 A 
HETATM   31 CL1  UNL     1      34.208   4.616  46.899  1.00  0.00    -0.081 Cl
ENDBRANCH  22  24
ENDBRANCH   1  22
TORSDOF 7
ENDMDL
MODEL 6
REMARK VINA RESULT:      -7.8      4.338      6.751
REMARK  7 active torsions:
REMARK  status: ('A' for Active; 'I' for Inactive)
REMARK    1  A    between atoms: C4_5  and  N1_6 
REMARK    2  A    between atoms: N1_6  and  C5_7 
REMARK    3  A    between atoms: C10_14  and  N4_15 
REMARK    4  A    between atoms: N4_15  and  C11_16 
REMARK    5  A    between atoms: C11_16  and  C12_18 
REMARK    6  A    between atoms: C12_18  and  C13_19 
REMARK    7  A    between atoms: C13_19  and  N5_20 
ROOT
HETATM    1  C5  UNL     1      22.081  -0.073  54.016  1.00  0.00     0.142 A 
HETATM    2  N2  UNL     1      22.013  -0.944  55.037  1.00  0.00    -0.224 NA
HETATM    3  C6  UNL     1      23.122  -1.512  55.517  1.00  0.00     0.236 A 
HETATM    4  N3  UNL     1      24.338  -1.243  55.006  1.00  0.00    -0.241 NA
HETATM    5  C7  UNL     1      24.462  -0.385  53.992  1.00  0.00     0.072 A 
HETATM    6  C8  UNL     1      25.745  -0.172  53.558  1.00  0.00     0.035 A 
HETATM    7  C9  UNL     1      25.969   0.707  52.527  1.00  0.00     0.032 A 
HETATM    8  C10 UNL     1      24.861   1.344  51.971  1.00  0.00     0.034 A 
HETATM    9  C18 UNL     1      23.594   1.055  52.489  1.00  0.00     0.047 A 
HETATM   10  C19 UNL     1      23.327   0.196  53.504  1.00  0.00     0.041 A 
ENDROOT
BRANCH   8  11
HETATM   11  N4  UNL     1      25.094   2.330  51.002  1.00  0.00    -0.351 N 
HETATM   12  H7  UNL     1      24.973   1.786  50.136  1.00  0.00     0.166 HD
BRANCH  11  13
HETATM   13  C11 UNL     1      25.320   3.297  50.042  1.00  0.00     0.079 C 
HETATM   14  S1  UNL     1      26.660   4.043  49.399  1.00  0.00    -0.065 SA
BRANCH  13  15
HETATM   15  C12 UNL     1      24.165   3.916  49.342  1.00  0.00     0.100 C 
BRANCH  15  16
HETATM   16  C13 UNL     1      23.725   5.116  50.172  1.00  0.00     0.279 C 
BRANCH  16  17
HETATM   17  N5  UNL     1      22.311   5.001  50.524  1.00  0.00     0.088 N 
HETATM   18  C14 UNL     1      22.250   4.482  51.903  1.00  0.00     0.272 C 
HETATM   19  C15 UNL     1      20.843   3.868  51.937  1.00  0.00     0.032 C 
HETATM   20  C16 UNL     1      20.586   3.430  50.508  1.00  0.00     0.032 C 
HETATM   21  C17 UNL     1      21.867   3.789  49.820  1.00  0.00     0.272 C 
ENDBRANCH  16  17
ENDBRANCH  15  16
ENDBRANCH  13  15
ENDBRANCH  11  13
ENDBRANCH   8  11
BRANCH   1  22
HETATM   22  N1  UNL     1      20.980   0.571  53.432  1.00  0.00    -0.340 N 
HETATM   23  H3  UNL     1      20.962   1.571  53.254  1.00  0.00     0.167 HD
BRANCH  22  24
HETATM   24  C4  UNL     1      19.741   0.035  52.997  1.00  0.00     0.035 A 
HETATM   25  C3  UNL     1      18.913   0.604  52.014  1.00  0.00     0.032 A 
HETATM   26  C2  UNL     1      17.733   0.059  51.603  1.00  0.00     0.046 A 
HETATM   27  C1  UNL     1      17.270  -1.106  52.140  1.00  0.00     0.138 A 
HETATM   28  F1  UNL     1      16.096  -1.639  51.722  1.00  0.00    -0.204 F 
HETATM   29  C21 UNL     1      18.020  -1.730  53.112  1.00  0.00     0.074 A 
HETATM   30  C20 UNL     1      19.216  -1.144  53.500  1.00  0.00     0.056 A 
HETATM   31 CL1  UNL     1      17.406  -3.204  53.780  1.00  0.00    -0.081 Cl
ENDBRANCH  22  24
ENDBRANCH   1  22
TORSDOF 7
ENDMDL
MODEL 7
REMARK VINA RESULT:      -7.6      4.242      6.667
REMARK  7 active torsions:
REMARK  status: ('A' for Active; 'I' for Inactive)
REMARK    1  A    between atoms: C4_5  and  N1_6 
REMARK    2  A    between atoms: N1_6  and  C5_7 
REMARK    3  A    between atoms: C10_14  and  N4_15 
REMARK    4  A    between atoms: N4_15  and  C11_16 
REMARK    5  A    between atoms: C11_16  and  C12_18 
REMARK    6  A    between atoms: C12_18  and  C13_19 
REMARK    7  A    between atoms: C13_19  and  N5_20 
ROOT
HETATM    1  C5  UNL     1      22.945   0.806  52.998  1.00  0.00     0.142 A 
HETATM    2  N2  UNL     1      22.852  -0.184  53.902  1.00  0.00    -0.224 NA
HETATM    3  C6  UNL     1      23.943  -0.844  54.297  1.00  0.00     0.236 A 
HETATM    4  N3  UNL     1      25.165  -0.552  53.815  1.00  0.00    -0.241 NA
HETATM    5  C7  UNL     1      25.314   0.422  52.915  1.00  0.00     0.072 A 
HETATM    6  C8  UNL     1      26.602   0.646  52.501  1.00  0.00     0.035 A 
HETATM    7  C9  UNL     1      26.851   1.640  51.587  1.00  0.00     0.032 A 
HETATM    8  C10 UNL     1      25.763   2.377  51.124  1.00  0.00     0.034 A 
HETATM    9  C18 UNL     1      24.489   2.066  51.612  1.00  0.00     0.047 A 
HETATM   10  C19 UNL     1      24.197   1.096  52.513  1.00  0.00     0.041 A 
ENDROOT
BRANCH   8  11
HETATM   11  N4  UNL     1      26.025   3.469  50.286  1.00  0.00    -0.351 N 
HETATM   12  H7  UNL     1      26.982   3.714  50.575  1.00  0.00     0.166 HD
BRANCH  11  13
HETATM   13  C11 UNL     1      26.290   4.544  49.460  1.00  0.00     0.079 C 
HETATM   14  S1  UNL     1      27.617   5.109  48.633  1.00  0.00    -0.065 SA
BRANCH  13  15
HETATM   15  C12 UNL     1      25.211   5.522  49.165  1.00  0.00     0.100 C 
BRANCH  15  16
HETATM   16  C13 UNL     1      24.721   6.068  50.500  1.00  0.00     0.279 C 
BRANCH  16  17
HETATM   17  N5  UNL     1      23.260   6.121  50.524  1.00  0.00     0.088 N 
HETATM   18  C14 UNL     1      22.819   5.340  51.695  1.00  0.00     0.272 C 
HETATM   19  C15 UNL     1      21.381   4.978  51.298  1.00  0.00     0.032 C 
HETATM   20  C16 UNL     1      21.415   4.900  49.784  1.00  0.00     0.032 C 
HETATM   21  C17 UNL     1      22.854   5.176  49.473  1.00  0.00     0.272 C 
ENDBRANCH  16  17
ENDBRANCH  15  16
ENDBRANCH  13  15
ENDBRANCH  11  13
ENDBRANCH   8  11
BRANCH   1  22
HETATM   22  N1  UNL     1      21.864   1.554  52.508  1.00  0.00    -0.340 N 
HETATM   23  H3  UNL     1      21.821   2.566  52.582  1.00  0.00     0.167 HD
BRANCH  22  24
HETATM   24  C4  UNL     1      20.680   1.119  51.859  1.00  0.00     0.035 A 
HETATM   25  C3  UNL     1      20.320   1.431  50.537  1.00  0.00     0.032 A 
HETATM   26  C2  UNL     1      19.181   0.988  49.932  1.00  0.00     0.046 A 
HETATM   27  C1  UNL     1      18.296   0.192  50.596  1.00  0.00     0.138 A 
HETATM   28  F1  UNL     1      17.168  -0.245  49.983  1.00  0.00    -0.204 F 
HETATM   29  C21 UNL     1      18.571  -0.162  51.898  1.00  0.00     0.074 A 
HETATM   30  C20 UNL     1      19.741   0.309  52.476  1.00  0.00     0.056 A 
HETATM   31 CL1  UNL     1      17.427  -1.168  52.719  1.00  0.00    -0.081 Cl
ENDBRANCH  22  24
ENDBRANCH   1  22
TORSDOF 7
ENDMDL
MODEL 8
REMARK VINA RESULT:      -7.5      2.681      5.735
REMARK  7 active torsions:
REMARK  status: ('A' for Active; 'I' for Inactive)
REMARK    1  A    between atoms: C4_5  and  N1_6 
REMARK    2  A    between atoms: N1_6  and  C5_7 
REMARK    3  A    between atoms: C10_14  and  N4_15 
REMARK    4  A    between atoms: N4_15  and  C11_16 
REMARK    5  A    between atoms: C11_16  and  C12_18 
REMARK    6  A    between atoms: C12_18  and  C13_19 
REMARK    7  A    between atoms: C13_19  and  N5_20 
ROOT
HETATM    1  C5  UNL     1      25.769   2.968  51.322  1.00  0.00     0.142 A 
HETATM    2  N2  UNL     1      26.480   3.776  50.517  1.00  0.00    -0.224 NA
HETATM    3  C6  UNL     1      25.982   4.171  49.343  1.00  0.00     0.236 A 
HETATM    4  N3  UNL     1      24.765   3.784  48.919  1.00  0.00    -0.241 NA
HETATM    5  C7  UNL     1      24.017   2.982  49.679  1.00  0.00     0.072 A 
HETATM    6  C8  UNL     1      22.789   2.660  49.160  1.00  0.00     0.035 A 
HETATM    7  C9  UNL     1      21.945   1.851  49.880  1.00  0.00     0.032 A 
HETATM    8  C10 UNL     1      22.391   1.395  51.119  1.00  0.00     0.034 A 
HETATM    9  C18 UNL     1      23.663   1.784  51.556  1.00  0.00     0.047 A 
HETATM   10  C19 UNL     1      24.527   2.579  50.880  1.00  0.00     0.041 A 
ENDROOT
BRANCH   8  11
HETATM   11  N4  UNL     1      21.490   0.670  51.910  1.00  0.00    -0.351 N 
HETATM   12  H7  UNL     1      21.479  -0.233  51.417  1.00  0.00     0.166 HD
BRANCH  11  13
HETATM   13  C11 UNL     1      20.604  -0.051  52.687  1.00  0.00     0.079 C 
HETATM   14  S1  UNL     1      20.723  -1.042  54.016  1.00  0.00    -0.065 SA
BRANCH  13  15
HETATM   15  C12 UNL     1      19.156  -0.031  52.353  1.00  0.00     0.100 C 
BRANCH  15  16
HETATM   16  C13 UNL     1      18.823   1.377  51.875  1.00  0.00     0.279 C 
BRANCH  16  17
HETATM   17  N5  UNL     1      17.791   1.333  50.840  1.00  0.00     0.088 N 
HETATM   18  C14 UNL     1      16.488   1.345  51.531  1.00  0.00     0.272 C 
HETATM   19  C15 UNL     1      15.573   0.722  50.467  1.00  0.00     0.032 C 
HETATM   20  C16 UNL     1      16.478  -0.214  49.690  1.00  0.00     0.032 C 
HETATM   21  C17 UNL     1      17.788  -0.070  50.402  1.00  0.00     0.272 C 
ENDBRANCH  16  17
ENDBRANCH  15  16
ENDBRANCH  13  15
ENDBRANCH  11  13
ENDBRANCH   8  11
BRANCH   1  22
HETATM   22  N1  UNL     1      26.201   2.487  52.566  1.00  0.00    -0.340 N 
HETATM   23  H3  UNL     1      25.845   2.848  53.446  1.00  0.00     0.167 HD
BRANCH  22  24
HETATM   24  C4  UNL     1      27.152   1.479  52.869  1.00  0.00     0.035 A 
HETATM   25  C3  UNL     1      28.421   1.706  53.430  1.00  0.00     0.032 A 
HETATM   26  C2  UNL     1      29.311   0.716  53.724  1.00  0.00     0.046 A 
HETATM   27  C1  UNL     1      29.015  -0.592  53.484  1.00  0.00     0.138 A 
HETATM   28  F1  UNL     1      29.908  -1.567  53.783  1.00  0.00    -0.204 F 
HETATM   29  C21 UNL     1      27.792  -0.903  52.934  1.00  0.00     0.074 A 
HETATM   30  C20 UNL     1      26.914   0.132  52.650  1.00  0.00     0.056 A 
HETATM   31 CL1  UNL     1      27.444  -2.572  52.633  1.00  0.00    -0.081 Cl
ENDBRANCH  22  24
ENDBRANCH   1  22
TORSDOF 7
ENDMDL
MODEL 9
REMARK VINA RESULT:      -7.5      2.795      6.019
REMARK  7 active torsions:
REMARK  status: ('A' for Active; 'I' for Inactive)
REMARK    1  A    between atoms: C4_5  and  N1_6 
REMARK    2  A    between atoms: N1_6  and  C5_7 
REMARK    3  A    between atoms: C10_14  and  N4_15 
REMARK    4  A    between atoms: N4_15  and  C11_16 
REMARK    5  A    between atoms: C11_16  and  C12_18 
REMARK    6  A    between atoms: C12_18  and  C13_19 
REMARK    7  A    between atoms: C13_19  and  N5_20 
ROOT
HETATM    1  C5  UNL     1      26.471   3.869  49.393  1.00  0.00     0.142 A 
HETATM    2  N2  UNL     1      27.710   4.286  49.084  1.00  0.00    -0.224 NA
HETATM    3  C6  UNL     1      27.907   5.504  48.574  1.00  0.00     0.236 A 
HETATM    4  N3  UNL     1      26.888   6.356  48.351  1.00  0.00    -0.241 NA
HETATM    5  C7  UNL     1      25.638   5.992  48.642  1.00  0.00     0.072 A 
HETATM    6  C8  UNL     1      24.679   6.939  48.389  1.00  0.00     0.035 A 
HETATM    7  C9  UNL     1      23.365   6.658  48.671  1.00  0.00     0.032 A 
HETATM    8  C10 UNL     1      23.075   5.405  49.207  1.00  0.00     0.034 A 
HETATM    9  C18 UNL     1      24.130   4.511  49.426  1.00  0.00     0.047 A 
HETATM   10  C19 UNL     1      25.439   4.747  49.163  1.00  0.00     0.041 A 
ENDROOT
BRANCH   8  11
HETATM   11  N4  UNL     1      21.756   5.157  49.609  1.00  0.00    -0.351 N 
HETATM   12  H7  UNL     1      21.261   5.222  48.708  1.00  0.00     0.166 HD
BRANCH  11  13
HETATM   13  C11 UNL     1      20.453   4.911  49.997  1.00  0.00     0.079 C 
HETATM   14  S1  UNL     1      18.957   5.513  49.591  1.00  0.00    -0.065 SA
BRANCH  13  15
HETATM   15  C12 UNL     1      20.182   3.885  51.038  1.00  0.00     0.100 C 
BRANCH  15  16
HETATM   16  C13 UNL     1      21.425   3.795  51.915  1.00  0.00     0.279 C 
BRANCH  16  17
HETATM   17  N5  UNL     1      21.725   2.400  52.233  1.00  0.00     0.088 N 
HETATM   18  C14 UNL     1      21.735   1.660  50.957  1.00  0.00     0.272 C 
HETATM   19  C15 UNL     1      21.466   0.225  51.433  1.00  0.00     0.032 C 
HETATM   20  C16 UNL     1      20.623   0.393  52.683  1.00  0.00     0.032 C 
HETATM   21  C17 UNL     1      20.459   1.879  52.770  1.00  0.00     0.272 C 
ENDBRANCH  16  17
ENDBRANCH  15  16
ENDBRANCH  13  15
ENDBRANCH  11  13
ENDBRANCH   8  11
BRANCH   1  22
HETATM   22  N1  UNL     1      26.153   2.610  49.922  1.00  0.00    -0.340 N 
HETATM   23  H3  UNL     1      25.787   1.853  49.352  1.00  0.00     0.167 HD
BRANCH  22  24
HETATM   24  C4  UNL     1      26.250   2.135  51.256  1.00  0.00     0.035 A 
HETATM   25  C3  UNL     1      27.300   2.424  52.144  1.00  0.00     0.032 A 
HETATM   26  C2  UNL     1      27.361   1.966  53.426  1.00  0.00     0.046 A 
HETATM   27  C1  UNL     1      26.378   1.173  53.939  1.00  0.00     0.138 A 
HETATM   28  F1  UNL     1      26.449   0.726  55.217  1.00  0.00    -0.204 F 
HETATM   29  C21 UNL     1      25.311   0.840  53.135  1.00  0.00     0.074 A 
HETATM   30  C20 UNL     1      25.286   1.328  51.837  1.00  0.00     0.056 A 
HETATM   31 CL1  UNL     1      24.080  -0.173  53.809  1.00  0.00    -0.081 Cl
ENDBRANCH  22  24
ENDBRANCH   1  22
TORSDOF 7
ENDMDL
