MODEL 1
REMARK VINA RESULT:      -7.3      0.000      0.000
REMARK  8 active torsions:
REMARK  status: ('A' for Active; 'I' for Inactive)
REMARK    1  A    between atoms: C2_2  and  C3_3 
REMARK    2  A    between atoms: C3_3  and  C4_4 
REMARK    3  A    between atoms: C4_4  and  C5_5 
REMARK    4  A    between atoms: C5_5  and  C6_6 
REMARK    5  A    between atoms: C7_7  and  C8_8 
REMARK    6  A    between atoms: C8_8  and  C9_9 
REMARK    7  A    between atoms: C12_12  and  N1_13 
REMARK       I    between atoms: N1_13  and  C13_14 
REMARK    8  A    between atoms: C13_14  and  C14_16 
ROOT
HETATM    1  C9  UNL     1      25.001   0.433  53.175  1.00  0.00    -0.055 A 
HETATM    2  C10 UNL     1      24.438   1.688  53.089  1.00  0.00     0.009 A 
HETATM    3  C11 UNL     1      25.075   2.633  52.317  1.00  0.00     0.030 A 
HETATM    4  C12 UNL     1      26.257   2.386  51.619  1.00  0.00     0.035 A 
HETATM    5  C19 UNL     1      26.802   1.107  51.726  1.00  0.00     0.030 A 
HETATM    6  C20 UNL     1      26.173   0.151  52.496  1.00  0.00     0.009 A 
ENDROOT
BRANCH   4   7
HETATM    7  N1  UNL     1      26.796   3.467  50.862  1.00  0.00    -0.322 N 
HETATM    8  C13 UNL     1      26.131   3.911  49.687  1.00  0.00     0.273 C 
HETATM    9  O1  UNL     1      25.082   3.323  49.364  1.00  0.00    -0.266 OA
HETATM   10  H14 UNL     1      27.671   3.886  51.218  1.00  0.00     0.169 HD
BRANCH   8  11
HETATM   11  C14 UNL     1      26.660   5.002  48.909  1.00  0.00     0.112 C 
HETATM   12  C15 UNL     1      27.877   4.937  48.438  1.00  0.00     0.009 C 
HETATM   13  C16 UNL     1      28.569   6.050  48.439  1.00  0.00     0.016 C 
HETATM   14  C17 UNL     1      27.917   7.329  48.118  1.00  0.00     0.018 C 
HETATM   15  C18 UNL     1      26.592   7.324  48.231  1.00  0.00     0.088 C 
HETATM   16  N2  UNL     1      25.891   6.163  48.633  1.00  0.00    -0.361 N 
HETATM   17  H18 UNL     1      24.846   6.143  48.727  1.00  0.00     0.165 HD
ENDBRANCH   8  11
ENDBRANCH   4   7
BRANCH   1  18
HETATM   18  C8  UNL     1      24.383  -0.639  53.982  1.00  0.00     0.065 C 
BRANCH  18  19
HETATM   19  C7  UNL     1      22.930  -0.842  53.649  1.00  0.00    -0.022 C 
HETATM   20  C6  UNL     1      21.887  -0.755  54.479  1.00  0.00     0.004 C 
BRANCH  20  21
HETATM   21  C5  UNL     1      20.496  -0.956  54.129  1.00  0.00     0.051 C 
BRANCH  21  22
HETATM   22  C4  UNL     1      20.041  -0.292  53.075  1.00  0.00    -0.150 C 
BRANCH  22  23
HETATM   23  C3  UNL     1      19.780   0.544  52.081  1.00  0.00     0.071 C 
BRANCH  23  24
HETATM   24  C2  UNL     1      20.882   1.438  51.657  1.00  0.00     0.013 C 
HETATM   25  C1  UNL     1      21.680   0.827  50.548  1.00  0.00     0.006 C 
ENDBRANCH  23  24
ENDBRANCH  22  23
ENDBRANCH  21  22
ENDBRANCH  20  21
ENDBRANCH  18  19
ENDBRANCH   1  18
TORSDOF 8
ENDMDL
MODEL 2
REMARK VINA RESULT:      -7.1      2.437      4.691
REMARK  8 active torsions:
REMARK  status: ('A' for Active; 'I' for Inactive)
REMARK    1  A    between atoms: C2_2  and  C3_3 
REMARK    2  A    between atoms: C3_3  and  C4_4 
REMARK    3  A    between atoms: C4_4  and  C5_5 
REMARK    4  A    between atoms: C5_5  and  C6_6 
REMARK    5  A    between atoms: C7_7  and  C8_8 
REMARK    6  A    between atoms: C8_8  and  C9_9 
REMARK    7  A    between atoms: C12_12  and  N1_13 
REMARK       I    between atoms: N1_13  and  C13_14 
REMARK    8  A    between atoms: C13_14  and  C14_16 
ROOT
HETATM    1  C9  UNL     1      25.176   1.240  52.186  1.00  0.00    -0.055 A 
HETATM    2  C10 UNL     1      26.463   1.722  52.275  1.00  0.00     0.009 A 
HETATM    3  C11 UNL     1      26.831   2.749  51.435  1.00  0.00     0.030 A 
HETATM    4  C12 UNL     1      25.969   3.324  50.501  1.00  0.00     0.035 A 
HETATM    5  C19 UNL     1      24.673   2.814  50.435  1.00  0.00     0.030 A 
HETATM    6  C20 UNL     1      24.292   1.786  51.272  1.00  0.00     0.009 A 
ENDROOT
BRANCH   4   7
HETATM    7  N1  UNL     1      26.497   4.379  49.701  1.00  0.00    -0.322 N 
HETATM    8  C13 UNL     1      25.934   5.681  49.784  1.00  0.00     0.273 C 
HETATM    9  O1  UNL     1      24.982   5.846  50.572  1.00  0.00    -0.266 OA
HETATM   10  H14 UNL     1      27.287   4.136  49.082  1.00  0.00     0.169 HD
BRANCH   8  11
HETATM   11  C14 UNL     1      26.452   6.762  48.984  1.00  0.00     0.112 C 
HETATM   12  C15 UNL     1      25.644   7.463  48.234  1.00  0.00     0.009 C 
HETATM   13  C16 UNL     1      26.103   7.840  47.066  1.00  0.00     0.016 C 
HETATM   14  C17 UNL     1      27.504   8.264  46.921  1.00  0.00     0.018 C 
HETATM   15  C18 UNL     1      28.312   7.866  47.900  1.00  0.00     0.088 C 
HETATM   16  N2  UNL     1      27.832   7.093  48.984  1.00  0.00    -0.361 N 
HETATM   17  H18 UNL     1      28.457   6.771  49.763  1.00  0.00     0.165 HD
ENDBRANCH   8  11
ENDBRANCH   4   7
BRANCH   1  18
HETATM   18  C8  UNL     1      24.700   0.141  53.051  1.00  0.00     0.065 C 
BRANCH  18  19
HETATM   19  C7  UNL     1      25.767  -0.886  53.313  1.00  0.00    -0.022 C 
HETATM   20  C6  UNL     1      26.555  -1.486  52.416  1.00  0.00     0.004 C 
BRANCH  20  21
HETATM   21  C5  UNL     1      27.576  -2.473  52.698  1.00  0.00     0.051 C 
BRANCH  21  22
HETATM   22  C4  UNL     1      28.740  -2.020  53.145  1.00  0.00    -0.150 C 
BRANCH  22  23
HETATM   23  C3  UNL     1      29.813  -1.333  53.509  1.00  0.00     0.071 C 
BRANCH  23  24
HETATM   24  C2  UNL     1      29.665   0.139  53.586  1.00  0.00     0.013 C 
HETATM   25  C1  UNL     1      28.832   0.539  54.764  1.00  0.00     0.006 C 
ENDBRANCH  23  24
ENDBRANCH  22  23
ENDBRANCH  21  22
ENDBRANCH  20  21
ENDBRANCH  18  19
ENDBRANCH   1  18
TORSDOF 8
ENDMDL
MODEL 3
REMARK VINA RESULT:      -6.9      4.600      5.884
REMARK  8 active torsions:
REMARK  status: ('A' for Active; 'I' for Inactive)
REMARK    1  A    between atoms: C2_2  and  C3_3 
REMARK    2  A    between atoms: C3_3  and  C4_4 
REMARK    3  A    between atoms: C4_4  and  C5_5 
REMARK    4  A    between atoms: C5_5  and  C6_6 
REMARK    5  A    between atoms: C7_7  and  C8_8 
REMARK    6  A    between atoms: C8_8  and  C9_9 
REMARK    7  A    between atoms: C12_12  and  N1_13 
REMARK       I    between atoms: N1_13  and  C13_14 
REMARK    8  A    between atoms: C13_14  and  C14_16 
ROOT
HETATM    1  C9  UNL     1      20.950  -0.579  53.677  1.00  0.00    -0.055 A 
HETATM    2  C10 UNL     1      21.729   0.313  52.973  1.00  0.00     0.009 A 
HETATM    3  C11 UNL     1      23.066   0.397  53.289  1.00  0.00     0.030 A 
HETATM    4  C12 UNL     1      23.671  -0.374  54.282  1.00  0.00     0.035 A 
HETATM    5  C19 UNL     1      22.857  -1.267  54.976  1.00  0.00     0.030 A 
HETATM    6  C20 UNL     1      21.516  -1.361  54.669  1.00  0.00     0.009 A 
ENDROOT
BRANCH   4   7
HETATM    7  N1  UNL     1      25.067  -0.173  54.493  1.00  0.00    -0.322 N 
HETATM    8  C13 UNL     1      26.009  -0.762  53.606  1.00  0.00     0.273 C 
HETATM    9  O1  UNL     1      25.563  -1.441  52.662  1.00  0.00    -0.266 OA
HETATM   10  H14 UNL     1      25.331   0.408  55.305  1.00  0.00     0.169 HD
BRANCH   8  11
HETATM   11  C14 UNL     1      27.424  -0.571  53.802  1.00  0.00     0.112 C 
HETATM   12  C15 UNL     1      27.875   0.581  54.221  1.00  0.00     0.009 C 
HETATM   13  C16 UNL     1      29.006   0.995  53.706  1.00  0.00     0.016 C 
HETATM   14  C17 UNL     1      30.092   0.039  53.436  1.00  0.00     0.018 C 
HETATM   15  C18 UNL     1      29.711  -1.234  53.370  1.00  0.00     0.088 C 
HETATM   16  N2  UNL     1      28.358  -1.609  53.548  1.00  0.00    -0.361 N 
HETATM   17  H18 UNL     1      28.042  -2.608  53.498  1.00  0.00     0.165 HD
ENDBRANCH   8  11
ENDBRANCH   4   7
BRANCH   1  18
HETATM   18  C8  UNL     1      19.507  -0.731  53.402  1.00  0.00     0.065 C 
BRANCH  18  19
HETATM   19  C7  UNL     1      19.052   0.113  52.244  1.00  0.00    -0.022 C 
HETATM   20  C6  UNL     1      18.218  -0.238  51.260  1.00  0.00     0.004 C 
BRANCH  20  21
HETATM   21  C5  UNL     1      17.797   0.598  50.155  1.00  0.00     0.051 C 
BRANCH  21  22
HETATM   22  C4  UNL     1      18.661   1.511  49.732  1.00  0.00    -0.150 C 
BRANCH  22  23
HETATM   23  C3  UNL     1      19.529   2.276  49.086  1.00  0.00     0.071 C 
BRANCH  23  24
HETATM   24  C2  UNL     1      20.953   2.136  49.469  1.00  0.00     0.013 C 
HETATM   25  C1  UNL     1      21.678   1.215  48.538  1.00  0.00     0.006 C 
ENDBRANCH  23  24
ENDBRANCH  22  23
ENDBRANCH  21  22
ENDBRANCH  20  21
ENDBRANCH  18  19
ENDBRANCH   1  18
TORSDOF 8
ENDMDL
MODEL 4
REMARK VINA RESULT:      -6.8      3.027      9.261
REMARK  8 active torsions:
REMARK  status: ('A' for Active; 'I' for Inactive)
REMARK    1  A    between atoms: C2_2  and  C3_3 
REMARK    2  A    between atoms: C3_3  and  C4_4 
REMARK    3  A    between atoms: C4_4  and  C5_5 
REMARK    4  A    between atoms: C5_5  and  C6_6 
REMARK    5  A    between atoms: C7_7  and  C8_8 
REMARK    6  A    between atoms: C8_8  and  C9_9 
REMARK    7  A    between atoms: C12_12  and  N1_13 
REMARK       I    between atoms: N1_13  and  C13_14 
REMARK    8  A    between atoms: C13_14  and  C14_16 
ROOT
HETATM    1  C9  UNL     1      26.668   5.177  48.890  1.00  0.00    -0.055 A 
HETATM    2  C10 UNL     1      27.017   3.925  49.347  1.00  0.00     0.009 A 
HETATM    3  C11 UNL     1      26.032   3.137  49.897  1.00  0.00     0.030 A 
HETATM    4  C12 UNL     1      24.702   3.540  50.017  1.00  0.00     0.035 A 
HETATM    5  C19 UNL     1      24.380   4.813  49.546  1.00  0.00     0.030 A 
HETATM    6  C20 UNL     1      25.358   5.612  48.992  1.00  0.00     0.009 A 
ENDROOT
BRANCH   4   7
HETATM    7  N1  UNL     1      23.798   2.612  50.610  1.00  0.00    -0.322 N 
HETATM    8  C13 UNL     1      23.584   2.630  52.015  1.00  0.00     0.273 C 
HETATM    9  O1  UNL     1      24.210   3.477  52.680  1.00  0.00    -0.266 OA
HETATM   10  H14 UNL     1      23.328   1.953  49.968  1.00  0.00     0.169 HD
BRANCH   8  11
HETATM   11  C14 UNL     1      22.673   1.701  52.634  1.00  0.00     0.112 C 
HETATM   12  C15 UNL     1      23.134   0.617  53.200  1.00  0.00     0.009 C 
HETATM   13  C16 UNL     1      22.415  -0.471  53.062  1.00  0.00     0.016 C 
HETATM   14  C17 UNL     1      20.946  -0.400  53.110  1.00  0.00     0.018 C 
HETATM   15  C18 UNL     1      20.438   0.811  52.899  1.00  0.00     0.088 C 
HETATM   16  N2  UNL     1      21.272   1.927  52.648  1.00  0.00    -0.361 N 
HETATM   17  H18 UNL     1      20.887   2.888  52.480  1.00  0.00     0.165 HD
ENDBRANCH   8  11
ENDBRANCH   4   7
BRANCH   1  18
HETATM   18  C8  UNL     1      27.664   6.086  48.286  1.00  0.00     0.065 C 
BRANCH  18  19
HETATM   19  C7  UNL     1      29.041   5.485  48.249  1.00  0.00    -0.022 C 
HETATM   20  C6  UNL     1      30.184   6.092  47.914  1.00  0.00     0.004 C 
BRANCH  20  21
HETATM   21  C5  UNL     1      31.499   5.485  47.888  1.00  0.00     0.051 C 
BRANCH  21  22
HETATM   22  C4  UNL     1      31.615   4.334  47.240  1.00  0.00    -0.150 C 
BRANCH  22  23
HETATM   23  C3  UNL     1      31.992   3.217  46.635  1.00  0.00     0.071 C 
BRANCH  23  24
HETATM   24  C2  UNL     1      33.243   2.588  47.117  1.00  0.00     0.013 C 
HETATM   25  C1  UNL     1      34.442   3.179  46.445  1.00  0.00     0.006 C 
ENDBRANCH  23  24
ENDBRANCH  22  23
ENDBRANCH  21  22
ENDBRANCH  20  21
ENDBRANCH  18  19
ENDBRANCH   1  18
TORSDOF 8
ENDMDL
MODEL 5
REMARK VINA RESULT:      -6.8      3.682      8.273
REMARK  8 active torsions:
REMARK  status: ('A' for Active; 'I' for Inactive)
REMARK    1  A    between atoms: C2_2  and  C3_3 
REMARK    2  A    between atoms: C3_3  and  C4_4 
REMARK    3  A    between atoms: C4_4  and  C5_5 
REMARK    4  A    between atoms: C5_5  and  C6_6 
REMARK    5  A    between atoms: C7_7  and  C8_8 
REMARK    6  A    between atoms: C8_8  and  C9_9 
REMARK    7  A    between atoms: C12_12  and  N1_13 
REMARK       I    between atoms: N1_13  and  C13_14 
REMARK    8  A    between atoms: C13_14  and  C14_16 
ROOT
HETATM    1  C9  UNL     1      25.041   4.976  49.715  1.00  0.00    -0.055 A 
HETATM    2  C10 UNL     1      26.066   4.242  49.158  1.00  0.00     0.009 A 
HETATM    3  C11 UNL     1      26.454   3.084  49.794  1.00  0.00     0.030 A 
HETATM    4  C12 UNL     1      25.865   2.617  50.968  1.00  0.00     0.035 A 
HETATM    5  C19 UNL     1      24.830   3.381  51.506  1.00  0.00     0.030 A 
HETATM    6  C20 UNL     1      24.432   4.543  50.880  1.00  0.00     0.009 A 
ENDROOT
BRANCH   4   7
HETATM    7  N1  UNL     1      26.377   1.400  51.507  1.00  0.00    -0.322 N 
HETATM    8  C13 UNL     1      27.462   1.433  52.424  1.00  0.00     0.273 C 
HETATM    9  O1  UNL     1      27.927   2.549  52.724  1.00  0.00    -0.266 OA
HETATM   10  H14 UNL     1      25.919   0.529  51.193  1.00  0.00     0.169 HD
BRANCH   8  11
HETATM   11  C14 UNL     1      27.994   0.215  52.981  1.00  0.00     0.112 C 
HETATM   12  C15 UNL     1      29.099   0.246  53.677  1.00  0.00     0.009 C 
HETATM   13  C16 UNL     1      29.922  -0.763  53.521  1.00  0.00     0.016 C 
HETATM   14  C17 UNL     1      29.399  -2.130  53.369  1.00  0.00     0.018 C 
HETATM   15  C18 UNL     1      28.120  -2.201  53.009  1.00  0.00     0.088 C 
HETATM   16  N2  UNL     1      27.348  -1.035  52.794  1.00  0.00    -0.361 N 
HETATM   17  H18 UNL     1      26.339  -1.075  52.509  1.00  0.00     0.165 HD
ENDBRANCH   8  11
ENDBRANCH   4   7
BRANCH   1  18
HETATM   18  C8  UNL     1      24.563   6.230  49.098  1.00  0.00     0.065 C 
BRANCH  18  19
HETATM   19  C7  UNL     1      25.628   7.290  49.056  1.00  0.00    -0.022 C 
HETATM   20  C6  UNL     1      26.222   7.887  50.094  1.00  0.00     0.004 C 
BRANCH  20  21
HETATM   21  C5  UNL     1      27.247   8.908  50.022  1.00  0.00     0.051 C 
BRANCH  21  22
HETATM   22  C4  UNL     1      28.320   8.630  49.293  1.00  0.00    -0.150 C 
BRANCH  22  23
HETATM   23  C3  UNL     1      29.216   8.249  48.395  1.00  0.00     0.071 C 
BRANCH  23  24
HETATM   24  C2  UNL     1      28.835   7.123  47.512  1.00  0.00     0.013 C 
HETATM   25  C1  UNL     1      29.105   5.804  48.166  1.00  0.00     0.006 C 
ENDBRANCH  23  24
ENDBRANCH  22  23
ENDBRANCH  21  22
ENDBRANCH  20  21
ENDBRANCH  18  19
ENDBRANCH   1  18
TORSDOF 8
ENDMDL
MODEL 6
REMARK VINA RESULT:      -6.8      4.028      5.885
REMARK  8 active torsions:
REMARK  status: ('A' for Active; 'I' for Inactive)
REMARK    1  A    between atoms: C2_2  and  C3_3 
REMARK    2  A    between atoms: C3_3  and  C4_4 
REMARK    3  A    between atoms: C4_4  and  C5_5 
REMARK    4  A    between atoms: C5_5  and  C6_6 
REMARK    5  A    between atoms: C7_7  and  C8_8 
REMARK    6  A    between atoms: C8_8  and  C9_9 
REMARK    7  A    between atoms: C12_12  and  N1_13 
REMARK       I    between atoms: N1_13  and  C13_14 
REMARK    8  A    between atoms: C13_14  and  C14_16 
ROOT
HETATM    1  C9  UNL     1      21.587   1.861  52.418  1.00  0.00    -0.055 A 
HETATM    2  C10 UNL     1      21.778   0.692  53.123  1.00  0.00     0.009 A 
HETATM    3  C11 UNL     1      23.053   0.178  53.192  1.00  0.00     0.030 A 
HETATM    4  C12 UNL     1      24.158   0.777  52.587  1.00  0.00     0.035 A 
HETATM    5  C19 UNL     1      23.932   1.959  51.881  1.00  0.00     0.030 A 
HETATM    6  C20 UNL     1      22.659   2.485  51.805  1.00  0.00     0.009 A 
ENDROOT
BRANCH   4   7
HETATM    7  N1  UNL     1      25.415   0.124  52.747  1.00  0.00    -0.322 N 
HETATM    8  C13 UNL     1      26.341   0.597  53.715  1.00  0.00     0.273 C 
HETATM    9  O1  UNL     1      26.006   1.585  54.397  1.00  0.00    -0.266 OA
HETATM   10  H14 UNL     1      25.593  -0.687  52.132  1.00  0.00     0.169 HD
BRANCH   8  11
HETATM   11  C14 UNL     1      27.617  -0.049  53.893  1.00  0.00     0.112 C 
HETATM   12  C15 UNL     1      28.616   0.613  54.414  1.00  0.00     0.009 C 
HETATM   13  C16 UNL     1      29.804   0.376  53.914  1.00  0.00     0.016 C 
HETATM   14  C17 UNL     1      30.186  -0.990  53.525  1.00  0.00     0.018 C 
HETATM   15  C18 UNL     1      29.166  -1.825  53.342  1.00  0.00     0.088 C 
HETATM   16  N2  UNL     1      27.827  -1.401  53.515  1.00  0.00    -0.361 N 
HETATM   17  H18 UNL     1      27.012  -2.047  53.374  1.00  0.00     0.165 HD
ENDBRANCH   8  11
ENDBRANCH   4   7
BRANCH   1  18
HETATM   18  C8  UNL     1      20.252   2.480  52.295  1.00  0.00     0.065 C 
BRANCH  18  19
HETATM   19  C7  UNL     1      19.186   1.480  51.942  1.00  0.00    -0.022 C 
HETATM   20  C6  UNL     1      18.825   1.075  50.720  1.00  0.00     0.004 C 
BRANCH  20  21
HETATM   21  C5  UNL     1      17.793   0.108  50.409  1.00  0.00     0.051 C 
BRANCH  21  22
HETATM   22  C4  UNL     1      17.089  -0.365  51.429  1.00  0.00    -0.150 C 
BRANCH  22  23
HETATM   23  C3  UNL     1      16.427  -1.074  52.331  1.00  0.00     0.071 C 
BRANCH  23  24
HETATM   24  C2  UNL     1      17.181  -2.148  53.017  1.00  0.00     0.013 C 
HETATM   25  C1  UNL     1      18.472  -1.635  53.575  1.00  0.00     0.006 C 
ENDBRANCH  23  24
ENDBRANCH  22  23
ENDBRANCH  21  22
ENDBRANCH  20  21
ENDBRANCH  18  19
ENDBRANCH   1  18
TORSDOF 8
ENDMDL
MODEL 7
REMARK VINA RESULT:      -6.6      2.439      4.836
REMARK  8 active torsions:
REMARK  status: ('A' for Active; 'I' for Inactive)
REMARK    1  A    between atoms: C2_2  and  C3_3 
REMARK    2  A    between atoms: C3_3  and  C4_4 
REMARK    3  A    between atoms: C4_4  and  C5_5 
REMARK    4  A    between atoms: C5_5  and  C6_6 
REMARK    5  A    between atoms: C7_7  and  C8_8 
REMARK    6  A    between atoms: C8_8  and  C9_9 
REMARK    7  A    between atoms: C12_12  and  N1_13 
REMARK       I    between atoms: N1_13  and  C13_14 
REMARK    8  A    between atoms: C13_14  and  C14_16 
ROOT
HETATM    1  C9  UNL     1      24.218   3.917  49.339  1.00  0.00    -0.055 A 
HETATM    2  C10 UNL     1      25.573   3.665  49.359  1.00  0.00     0.009 A 
HETATM    3  C11 UNL     1      26.431   4.737  49.452  1.00  0.00     0.030 A 
HETATM    4  C12 UNL     1      26.001   6.062  49.528  1.00  0.00     0.035 A 
HETATM    5  C19 UNL     1      24.624   6.284  49.507  1.00  0.00     0.030 A 
HETATM    6  C20 UNL     1      23.754   5.219  49.413  1.00  0.00     0.009 A 
ENDROOT
BRANCH   4   7
HETATM    7  N1  UNL     1      27.011   7.063  49.621  1.00  0.00    -0.322 N 
HETATM    8  C13 UNL     1      27.436   7.751  48.453  1.00  0.00     0.273 C 
HETATM    9  O1  UNL     1      26.894   7.441  47.374  1.00  0.00    -0.266 OA
HETATM   10  H14 UNL     1      27.394   7.244  50.564  1.00  0.00     0.169 HD
BRANCH   8  11
HETATM   11  C14 UNL     1      28.455   8.767  48.525  1.00  0.00     0.112 C 
HETATM   12  C15 UNL     1      28.603   9.613  47.540  1.00  0.00     0.009 C 
HETATM   13  C16 UNL     1      29.831   9.958  47.238  1.00  0.00     0.016 C 
HETATM   14  C17 UNL     1      30.827  10.164  48.301  1.00  0.00     0.018 C 
HETATM   15  C18 UNL     1      30.518   9.609  49.470  1.00  0.00     0.088 C 
HETATM   16  N2  UNL     1      29.318   8.880  49.646  1.00  0.00    -0.361 N 
HETATM   17  H18 UNL     1      29.061   8.436  50.562  1.00  0.00     0.165 HD
ENDBRANCH   8  11
ENDBRANCH   4   7
BRANCH   1  18
HETATM   18  C8  UNL     1      23.229   2.824  49.241  1.00  0.00     0.065 C 
BRANCH  18  19
HETATM   19  C7  UNL     1      23.223   1.945  50.460  1.00  0.00    -0.022 C 
HETATM   20  C6  UNL     1      23.345   2.324  51.736  1.00  0.00     0.004 C 
BRANCH  20  21
HETATM   21  C5  UNL     1      23.335   1.453  52.893  1.00  0.00     0.051 C 
BRANCH  21  22
HETATM   22  C4  UNL     1      24.391   0.669  53.061  1.00  0.00    -0.150 C 
BRANCH  22  23
HETATM   23  C3  UNL     1      25.510  -0.037  52.984  1.00  0.00     0.071 C 
BRANCH  23  24
HETATM   24  C2  UNL     1      26.471   0.353  51.927  1.00  0.00     0.013 C 
HETATM   25  C1  UNL     1      27.040   1.713  52.185  1.00  0.00     0.006 C 
ENDBRANCH  23  24
ENDBRANCH  22  23
ENDBRANCH  21  22
ENDBRANCH  20  21
ENDBRANCH  18  19
ENDBRANCH   1  18
TORSDOF 8
ENDMDL
MODEL 8
REMARK VINA RESULT:      -6.6      1.793      2.057
REMARK  8 active torsions:
REMARK  status: ('A' for Active; 'I' for Inactive)
REMARK    1  A    between atoms: C2_2  and  C3_3 
REMARK    2  A    between atoms: C3_3  and  C4_4 
REMARK    3  A    between atoms: C4_4  and  C5_5 
REMARK    4  A    between atoms: C5_5  and  C6_6 
REMARK    5  A    between atoms: C7_7  and  C8_8 
REMARK    6  A    between atoms: C8_8  and  C9_9 
REMARK    7  A    between atoms: C12_12  and  N1_13 
REMARK       I    between atoms: N1_13  and  C13_14 
REMARK    8  A    between atoms: C13_14  and  C14_16 
ROOT
HETATM    1  C9  UNL     1      23.818   0.718  52.678  1.00  0.00    -0.055 A 
HETATM    2  C10 UNL     1      23.276   1.181  51.499  1.00  0.00     0.009 A 
HETATM    3  C11 UNL     1      23.850   2.285  50.910  1.00  0.00     0.030 A 
HETATM    4  C12 UNL     1      24.949   2.957  51.445  1.00  0.00     0.035 A 
HETATM    5  C19 UNL     1      25.474   2.464  52.639  1.00  0.00     0.030 A 
HETATM    6  C20 UNL     1      24.909   1.359  53.238  1.00  0.00     0.009 A 
ENDROOT
BRANCH   4   7
HETATM    7  N1  UNL     1      25.431   4.085  50.719  1.00  0.00    -0.322 N 
HETATM    8  C13 UNL     1      24.773   5.339  50.839  1.00  0.00     0.273 C 
HETATM    9  O1  UNL     1      23.781   5.398  51.592  1.00  0.00    -0.266 OA
HETATM   10  H14 UNL     1      26.260   3.929  50.124  1.00  0.00     0.169 HD
BRANCH   8  11
HETATM   11  C14 UNL     1      25.244   6.492  50.114  1.00  0.00     0.112 C 
HETATM   12  C15 UNL     1      24.909   6.655  48.862  1.00  0.00     0.009 C 
HETATM   13  C16 UNL     1      25.825   7.151  48.067  1.00  0.00     0.016 C 
HETATM   14  C17 UNL     1      26.727   8.212  48.544  1.00  0.00     0.018 C 
HETATM   15  C18 UNL     1      26.808   8.322  49.868  1.00  0.00     0.088 C 
HETATM   16  N2  UNL     1      26.073   7.468  50.725  1.00  0.00    -0.361 N 
HETATM   17  H18 UNL     1      26.126   7.543  51.770  1.00  0.00     0.165 HD
ENDBRANCH   8  11
ENDBRANCH   4   7
BRANCH   1  18
HETATM   18  C8  UNL     1      23.262  -0.460  53.375  1.00  0.00     0.065 C 
BRANCH  18  19
HETATM   19  C7  UNL     1      21.817  -0.699  53.035  1.00  0.00    -0.022 C 
HETATM   20  C6  UNL     1      20.752  -0.466  53.808  1.00  0.00     0.004 C 
BRANCH  20  21
HETATM   21  C5  UNL     1      19.368  -0.706  53.453  1.00  0.00     0.051 C 
BRANCH  21  22
HETATM   22  C4  UNL     1      18.977  -0.296  52.254  1.00  0.00    -0.150 C 
BRANCH  22  23
HETATM   23  C3  UNL     1      18.651   0.355  51.147  1.00  0.00     0.071 C 
BRANCH  23  24
HETATM   24  C2  UNL     1      19.658   1.295  50.606  1.00  0.00     0.013 C 
HETATM   25  C1  UNL     1      19.836   2.477  51.506  1.00  0.00     0.006 C 
ENDBRANCH  23  24
ENDBRANCH  22  23
ENDBRANCH  21  22
ENDBRANCH  20  21
ENDBRANCH  18  19
ENDBRANCH   1  18
TORSDOF 8
ENDMDL
MODEL 9
REMARK VINA RESULT:      -6.6      4.296      5.621
REMARK  8 active torsions:
REMARK  status: ('A' for Active; 'I' for Inactive)
REMARK    1  A    between atoms: C2_2  and  C3_3 
REMARK    2  A    between atoms: C3_3  and  C4_4 
REMARK    3  A    between atoms: C4_4  and  C5_5 
REMARK    4  A    between atoms: C5_5  and  C6_6 
REMARK    5  A    between atoms: C7_7  and  C8_8 
REMARK    6  A    between atoms: C8_8  and  C9_9 
REMARK    7  A    between atoms: C12_12  and  N1_13 
REMARK       I    between atoms: N1_13  and  C13_14 
REMARK    8  A    between atoms: C13_14  and  C14_16 
ROOT
HETATM    1  C9  UNL     1      20.621  -0.588  53.395  1.00  0.00    -0.055 A 
HETATM    2  C10 UNL     1      21.357  -0.185  52.302  1.00  0.00     0.009 A 
HETATM    3  C11 UNL     1      22.730  -0.230  52.394  1.00  0.00     0.030 A 
HETATM    4  C12 UNL     1      23.411  -0.662  53.531  1.00  0.00     0.035 A 
HETATM    5  C19 UNL     1      22.638  -1.064  54.619  1.00  0.00     0.030 A 
HETATM    6  C20 UNL     1      21.262  -1.024  54.541  1.00  0.00     0.009 A 
ENDROOT
BRANCH   4   7
HETATM    7  N1  UNL     1      24.836  -0.651  53.473  1.00  0.00    -0.322 N 
HETATM    8  C13 UNL     1      25.536   0.585  53.483  1.00  0.00     0.273 C 
HETATM    9  O1  UNL     1      24.858   1.629  53.545  1.00  0.00    -0.266 OA
HETATM   10  H14 UNL     1      25.301  -1.573  53.425  1.00  0.00     0.169 HD
BRANCH   8  11
HETATM   11  C14 UNL     1      26.975   0.618  53.426  1.00  0.00     0.112 C 
HETATM   12  C15 UNL     1      27.626  -0.344  52.826  1.00  0.00     0.009 C 
HETATM   13  C16 UNL     1      28.754  -0.724  53.374  1.00  0.00     0.016 C 
HETATM   14  C17 UNL     1      29.659   0.269  53.973  1.00  0.00     0.018 C 
HETATM   15  C18 UNL     1      29.092   1.437  54.265  1.00  0.00     0.088 C 
HETATM   16  N2  UNL     1      27.721   1.675  54.009  1.00  0.00    -0.361 N 
HETATM   17  H18 UNL     1      27.260   2.591  54.234  1.00  0.00     0.165 HD
ENDBRANCH   8  11
ENDBRANCH   4   7
BRANCH   1  18
HETATM   18  C8  UNL     1      19.143  -0.571  53.381  1.00  0.00     0.065 C 
BRANCH  18  19
HETATM   19  C7  UNL     1      18.590   0.186  52.205  1.00  0.00    -0.022 C 
HETATM   20  C6  UNL     1      17.883  -0.305  51.183  1.00  0.00     0.004 C 
BRANCH  20  21
HETATM   21  C5  UNL     1      17.362   0.450  50.062  1.00  0.00     0.051 C 
BRANCH  21  22
HETATM   22  C4  UNL     1      18.075   1.493  49.659  1.00  0.00    -0.150 C 
BRANCH  22  23
HETATM   23  C3  UNL     1      18.741   2.627  49.499  1.00  0.00     0.071 C 
BRANCH  23  24
HETATM   24  C2  UNL     1      20.132   2.659  50.004  1.00  0.00     0.013 C 
HETATM   25  C1  UNL     1      20.212   3.342  51.334  1.00  0.00     0.006 C 
ENDBRANCH  23  24
ENDBRANCH  22  23
ENDBRANCH  21  22
ENDBRANCH  20  21
ENDBRANCH  18  19
ENDBRANCH   1  18
TORSDOF 8
ENDMDL
