MODEL 1
REMARK VINA RESULT:      -9.7      0.000      0.000
REMARK  4 active torsions:
REMARK  status: ('A' for Active; 'I' for Inactive)
REMARK    1  A    between atoms: C2_2  and  O1_3 
REMARK    2  A    between atoms: O1_3  and  C3_4 
REMARK    3  A    between atoms: N2_11  and  C9_12 
REMARK    4  A    between atoms: C10_14  and  C11_15 
ROOT
HETATM    1  C3  UNL     1      26.897   0.648  54.538  1.00  0.00     0.166 A 
HETATM    2  C4  UNL     1      26.591  -0.385  53.540  1.00  0.00     0.007 A 
HETATM    3  C5  UNL     1      25.760  -0.061  52.596  1.00  0.00     0.003 A 
HETATM    4  C6  UNL     1      24.965   1.225  52.245  1.00  0.00     0.073 A 
HETATM    5  C7  UNL     1      25.313   2.251  53.261  1.00  0.00     0.003 A 
HETATM    6  C8  UNL     1      26.178   1.942  54.261  1.00  0.00     0.007 A 
HETATM    7  N1  UNL     1      25.538   1.572  50.970  1.00  0.00    -0.206 NA
HETATM    8  N2  UNL     1      25.467   2.850  50.501  1.00  0.00    -0.207 N 
HETATM    9  C18 UNL     1      24.289   2.902  50.979  1.00  0.00     0.037 C 
HETATM   10  C19 UNL     1      23.276   2.931  51.406  1.00  0.00    -0.030 C 
HETATM   11  C20 UNL     1      22.049   2.947  51.939  1.00  0.00     0.085 C 
HETATM   12 CL1  UNL     1      20.574   3.643  52.253  1.00  0.00    -0.075 Cl
HETATM   13  C21 UNL     1      22.413   1.685  52.401  1.00  0.00     0.013 C 
HETATM   14  C22 UNL     1      23.571   0.770  52.335  1.00  0.00     0.038 C 
HETATM   15  C23 UNL     1      23.452  -0.152  53.569  1.00  0.00     0.017 C 
HETATM   16  H11 UNL     1      26.539   1.262  50.969  1.00  0.00     0.149 HD
ENDROOT
BRANCH   8  17
HETATM   17  C9  UNL     1      26.267   3.828  49.795  1.00  0.00     0.196 A 
HETATM   18  N3  UNL     1      27.148   4.325  49.316  1.00  0.00    -0.222 NA
HETATM   19  C10 UNL     1      27.212   5.481  48.705  1.00  0.00     0.076 A 
HETATM   20  C17 UNL     1      26.049   6.227  48.618  1.00  0.00     0.086 A 
HETATM   21  S1  UNL     1      24.864   5.090  49.504  1.00  0.00    -0.059 SA
BRANCH  19  22
HETATM   22  C11 UNL     1      28.490   5.919  48.155  1.00  0.00    -0.007 A 
HETATM   23  C12 UNL     1      28.544   7.149  47.540  1.00  0.00     0.014 A 
HETATM   24  C13 UNL     1      29.708   7.634  46.997  1.00  0.00     0.001 A 
HETATM   25  C14 UNL     1      30.890   6.926  47.031  1.00  0.00     0.000 A 
HETATM   26  C15 UNL     1      30.886   5.689  47.637  1.00  0.00     0.001 A 
HETATM   27  C16 UNL     1      29.696   5.249  48.164  1.00  0.00     0.014 A 
ENDBRANCH  19  22
ENDBRANCH   8  17
BRANCH   1  28
HETATM   28  O1  UNL     1      28.283   0.890  54.606  1.00  0.00    -0.379 OA
BRANCH  28  29
HETATM   29  C2  UNL     1      29.010  -0.274  54.509  1.00  0.00     0.164 C 
HETATM   30  C1  UNL     1      30.156  -0.226  53.541  1.00  0.00     0.033 C 
ENDBRANCH  28  29
ENDBRANCH   1  28
TORSDOF 4
ENDMDL
MODEL 2
REMARK VINA RESULT:      -9.5      2.686      6.747
REMARK  4 active torsions:
REMARK  status: ('A' for Active; 'I' for Inactive)
REMARK    1  A    between atoms: C2_2  and  O1_3 
REMARK    2  A    between atoms: O1_3  and  C3_4 
REMARK    3  A    between atoms: N2_11  and  C9_12 
REMARK    4  A    between atoms: C10_14  and  C11_15 
ROOT
HETATM    1  C3  UNL     1      25.142   6.838  49.260  1.00  0.00     0.166 A 
HETATM    2  C4  UNL     1      24.824   7.431  50.565  1.00  0.00     0.007 A 
HETATM    3  C5  UNL     1      24.050   6.743  51.350  1.00  0.00     0.003 A 
HETATM    4  C6  UNL     1      23.339   5.369  51.238  1.00  0.00     0.073 A 
HETATM    5  C7  UNL     1      23.696   4.791  49.917  1.00  0.00     0.003 A 
HETATM    6  C8  UNL     1      24.502   5.487  49.074  1.00  0.00     0.007 A 
HETATM    7  N1  UNL     1      23.981   4.630  52.295  1.00  0.00    -0.206 NA
HETATM    8  N2  UNL     1      23.996   3.268  52.282  1.00  0.00    -0.207 N 
HETATM    9  C18 UNL     1      22.802   3.313  51.840  1.00  0.00     0.037 C 
HETATM   10  C19 UNL     1      21.775   3.373  51.452  1.00  0.00    -0.030 C 
HETATM   11  C20 UNL     1      20.530   3.469  50.973  1.00  0.00     0.085 C 
HETATM   12 CL1  UNL     1      19.081   2.838  50.463  1.00  0.00    -0.075 Cl
HETATM   13  C21 UNL     1      20.809   4.833  50.982  1.00  0.00     0.013 C 
HETATM   14  C22 UNL     1      21.920   5.737  51.344  1.00  0.00     0.038 C 
HETATM   15  C23 UNL     1      21.703   7.026  50.520  1.00  0.00     0.017 C 
HETATM   16  H11 UNL     1      24.963   4.983  52.386  1.00  0.00     0.149 HD
ENDROOT
BRANCH   8  17
HETATM   17  C9  UNL     1      24.874   2.156  52.578  1.00  0.00     0.196 A 
HETATM   18  N3  UNL     1      25.807   1.560  52.733  1.00  0.00    -0.222 NA
HETATM   19  C10 UNL     1      25.938   0.303  53.076  1.00  0.00     0.076 A 
HETATM   20  C17 UNL     1      24.782  -0.429  53.286  1.00  0.00     0.086 A 
HETATM   21  S1  UNL     1      23.499   0.880  52.938  1.00  0.00    -0.059 SA
BRANCH  19  22
HETATM   22  C11 UNL     1      27.279  -0.254  53.218  1.00  0.00    -0.007 A 
HETATM   23  C12 UNL     1      28.292   0.588  53.617  1.00  0.00     0.014 A 
HETATM   24  C13 UNL     1      29.581   0.142  53.776  1.00  0.00     0.001 A 
HETATM   25  C14 UNL     1      29.942  -1.169  53.546  1.00  0.00     0.000 A 
HETATM   26  C15 UNL     1      28.962  -2.049  53.146  1.00  0.00     0.001 A 
HETATM   27  C16 UNL     1      27.689  -1.553  53.002  1.00  0.00     0.014 A 
ENDBRANCH  19  22
ENDBRANCH   8  17
BRANCH   1  28
HETATM   28  O1  UNL     1      26.533   6.723  49.082  1.00  0.00    -0.379 OA
BRANCH  28  29
HETATM   29  C2  UNL     1      26.897   5.454  48.696  1.00  0.00     0.164 C 
HETATM   30  C1  UNL     1      28.358   5.275  48.401  1.00  0.00     0.033 C 
ENDBRANCH  28  29
ENDBRANCH   1  28
TORSDOF 4
ENDMDL
MODEL 3
REMARK VINA RESULT:      -9.4      3.064      5.198
REMARK  4 active torsions:
REMARK  status: ('A' for Active; 'I' for Inactive)
REMARK    1  A    between atoms: C2_2  and  O1_3 
REMARK    2  A    between atoms: O1_3  and  C3_4 
REMARK    3  A    between atoms: N2_11  and  C9_12 
REMARK    4  A    between atoms: C10_14  and  C11_15 
ROOT
HETATM    1  C3  UNL     1      20.000   1.016  51.058  1.00  0.00     0.166 A 
HETATM    2  C4  UNL     1      20.060   1.679  52.368  1.00  0.00     0.007 A 
HETATM    3  C5  UNL     1      21.235   1.812  52.905  1.00  0.00     0.003 A 
HETATM    4  C6  UNL     1      22.673   1.419  52.477  1.00  0.00     0.073 A 
HETATM    5  C7  UNL     1      22.577   0.771  51.144  1.00  0.00     0.003 A 
HETATM    6  C8  UNL     1      21.362   0.616  50.557  1.00  0.00     0.007 A 
HETATM    7  N1  UNL     1      23.296   2.712  52.357  1.00  0.00    -0.206 NA
HETATM    8  N2  UNL     1      24.408   2.880  51.588  1.00  0.00    -0.207 N 
HETATM    9  C18 UNL     1      24.806   1.748  52.013  1.00  0.00     0.037 C 
HETATM   10  C19 UNL     1      25.130   0.765  52.385  1.00  0.00    -0.030 C 
HETATM   11  C20 UNL     1      25.500  -0.436  52.843  1.00  0.00     0.085 C 
HETATM   12 CL1  UNL     1      26.558  -1.707  52.995  1.00  0.00    -0.075 Cl
HETATM   13  C21 UNL     1      24.245  -0.409  53.446  1.00  0.00     0.013 C 
HETATM   14  C22 UNL     1      23.079   0.493  53.543  1.00  0.00     0.038 C 
HETATM   15  C23 UNL     1      21.870  -0.411  53.871  1.00  0.00     0.017 C 
HETATM   16  H11 UNL     1      22.564   3.398  52.056  1.00  0.00     0.149 HD
ENDROOT
BRANCH   8  17
HETATM   17  C9  UNL     1      24.996   3.825  50.662  1.00  0.00     0.196 A 
HETATM   18  N3  UNL     1      25.761   4.405  50.089  1.00  0.00    -0.222 NA
HETATM   19  C10 UNL     1      25.586   5.334  49.184  1.00  0.00     0.076 A 
HETATM   20  C17 UNL     1      24.285   5.679  48.860  1.00  0.00     0.086 A 
HETATM   21  S1  UNL     1      23.351   4.528  49.993  1.00  0.00    -0.059 SA
BRANCH  19  22
HETATM   22  C11 UNL     1      26.757   5.951  48.570  1.00  0.00    -0.007 A 
HETATM   23  C12 UNL     1      27.939   5.245  48.573  1.00  0.00     0.014 A 
HETATM   24  C13 UNL     1      29.085   5.755  48.015  1.00  0.00     0.001 A 
HETATM   25  C14 UNL     1      29.127   6.998  47.420  1.00  0.00     0.000 A 
HETATM   26  C15 UNL     1      27.969   7.741  47.392  1.00  0.00     0.001 A 
HETATM   27  C16 UNL     1      26.850   7.187  47.963  1.00  0.00     0.014 A 
ENDBRANCH  19  22
ENDBRANCH   8  17
BRANCH   1  28
HETATM   28  O1  UNL     1      19.375   1.840  50.103  1.00  0.00    -0.379 OA
BRANCH  28  29
HETATM   29  C2  UNL     1      18.023   1.598  50.025  1.00  0.00     0.164 C 
HETATM   30  C1  UNL     1      17.629   0.156  50.165  1.00  0.00     0.033 C 
ENDBRANCH  28  29
ENDBRANCH   1  28
TORSDOF 4
ENDMDL
MODEL 4
REMARK VINA RESULT:      -9.0      3.445      7.847
REMARK  4 active torsions:
REMARK  status: ('A' for Active; 'I' for Inactive)
REMARK    1  A    between atoms: C2_2  and  O1_3 
REMARK    2  A    between atoms: O1_3  and  C3_4 
REMARK    3  A    between atoms: N2_11  and  C9_12 
REMARK    4  A    between atoms: C10_14  and  C11_15 
ROOT
HETATM    1  C3  UNL     1      22.598   8.025  49.984  1.00  0.00     0.166 A 
HETATM    2  C4  UNL     1      22.407   7.405  48.666  1.00  0.00     0.007 A 
HETATM    3  C5  UNL     1      23.453   6.874  48.110  1.00  0.00     0.003 A 
HETATM    4  C6  UNL     1      24.942   6.726  48.521  1.00  0.00     0.073 A 
HETATM    5  C7  UNL     1      25.094   7.346  49.862  1.00  0.00     0.003 A 
HETATM    6  C8  UNL     1      24.019   7.911  50.469  1.00  0.00     0.007 A 
HETATM    7  N1  UNL     1      25.069   5.295  48.617  1.00  0.00    -0.206 NA
HETATM    8  N2  UNL     1      26.058   4.733  49.367  1.00  0.00    -0.207 N 
HETATM    9  C18 UNL     1      26.826   5.658  48.949  1.00  0.00     0.037 C 
HETATM   10  C19 UNL     1      27.472   6.469  48.583  1.00  0.00    -0.030 C 
HETATM   11  C20 UNL     1      28.238   7.469  48.132  1.00  0.00     0.085 C 
HETATM   12 CL1  UNL     1      29.675   8.287  47.978  1.00  0.00    -0.075 Cl
HETATM   13  C21 UNL     1      27.048   7.896  47.548  1.00  0.00     0.013 C 
HETATM   14  C22 UNL     1      25.638   7.465  47.459  1.00  0.00     0.038 C 
HETATM   15  C23 UNL     1      24.823   8.743  47.159  1.00  0.00     0.017 C 
HETATM   16  H11 UNL     1      24.145   4.907  48.922  1.00  0.00     0.149 HD
ENDROOT
BRANCH   8  17
HETATM   17  C9  UNL     1      26.282   3.627  50.274  1.00  0.00     0.196 A 
HETATM   18  N3  UNL     1      26.811   2.878  50.914  1.00  0.00    -0.222 NA
HETATM   19  C10 UNL     1      26.307   1.922  51.654  1.00  0.00     0.076 A 
HETATM   20  C17 UNL     1      24.929   1.784  51.674  1.00  0.00     0.086 A 
HETATM   21  S1  UNL     1      24.445   3.169  50.522  1.00  0.00    -0.059 SA
BRANCH  19  22
HETATM   22  C11 UNL     1      27.211   1.062  52.409  1.00  0.00    -0.007 A 
HETATM   23  C12 UNL     1      28.196   1.660  53.163  1.00  0.00     0.014 A 
HETATM   24  C13 UNL     1      29.086   0.922  53.903  1.00  0.00     0.001 A 
HETATM   25  C14 UNL     1      29.053  -0.456  53.939  1.00  0.00     0.000 A 
HETATM   26  C15 UNL     1      28.086  -1.099  53.201  1.00  0.00     0.001 A 
HETATM   27  C16 UNL     1      27.219  -0.316  52.477  1.00  0.00     0.014 A 
ENDBRANCH  19  22
ENDBRANCH   8  17
BRANCH   1  28
HETATM   28  O1  UNL     1      21.732   7.461  50.939  1.00  0.00    -0.379 OA
BRANCH  28  29
HETATM   29  C2  UNL     1      22.097   6.175  51.263  1.00  0.00     0.164 C 
HETATM   30  C1  UNL     1      21.016   5.147  51.089  1.00  0.00     0.033 C 
ENDBRANCH  28  29
ENDBRANCH   1  28
TORSDOF 4
ENDMDL
MODEL 5
REMARK VINA RESULT:      -8.9      4.472      6.929
REMARK  4 active torsions:
REMARK  status: ('A' for Active; 'I' for Inactive)
REMARK    1  A    between atoms: C2_2  and  O1_3 
REMARK    2  A    between atoms: O1_3  and  C3_4 
REMARK    3  A    between atoms: N2_11  and  C9_12 
REMARK    4  A    between atoms: C10_14  and  C11_15 
ROOT
HETATM    1  C3  UNL     1      18.993   1.368  51.671  1.00  0.00     0.166 A 
HETATM    2  C4  UNL     1      19.294   1.146  50.251  1.00  0.00     0.007 A 
HETATM    3  C5  UNL     1      20.364   1.712  49.782  1.00  0.00     0.003 A 
HETATM    4  C6  UNL     1      21.466   2.619  50.390  1.00  0.00     0.073 A 
HETATM    5  C7  UNL     1      21.141   2.806  51.827  1.00  0.00     0.003 A 
HETATM    6  C8  UNL     1      20.028   2.228  52.347  1.00  0.00     0.007 A 
HETATM    7  N1  UNL     1      22.631   1.783  50.248  1.00  0.00    -0.206 NA
HETATM    8  N2  UNL     1      23.727   1.978  51.034  1.00  0.00    -0.207 N 
HETATM    9  C18 UNL     1      23.522   3.229  50.915  1.00  0.00     0.037 C 
HETATM   10  C19 UNL     1      23.325   4.305  50.806  1.00  0.00    -0.030 C 
HETATM   11  C20 UNL     1      23.061   5.610  50.668  1.00  0.00     0.085 C 
HETATM   12 CL1  UNL     1      23.385   7.223  50.892  1.00  0.00    -0.075 Cl
HETATM   13  C21 UNL     1      21.939   5.142  49.988  1.00  0.00     0.013 C 
HETATM   14  C22 UNL     1      21.334   3.851  49.601  1.00  0.00     0.038 C 
HETATM   15  C23 UNL     1      19.827   4.131  49.408  1.00  0.00     0.017 C 
HETATM   16  H11 UNL     1      22.325   0.784  50.329  1.00  0.00     0.149 HD
ENDROOT
BRANCH   8  17
HETATM   17  C9  UNL     1      24.736   1.229  51.753  1.00  0.00     0.196 A 
HETATM   18  N3  UNL     1      25.731   0.817  52.052  1.00  0.00    -0.222 NA
HETATM   19  C10 UNL     1      26.025  -0.007  53.026  1.00  0.00     0.076 A 
HETATM   20  C17 UNL     1      24.985  -0.457  53.822  1.00  0.00     0.086 A 
HETATM   21  S1  UNL     1      23.553   0.430  53.021  1.00  0.00    -0.059 SA
BRANCH  19  22
HETATM   22  C11 UNL     1      27.415  -0.405  53.220  1.00  0.00    -0.007 A 
HETATM   23  C12 UNL     1      28.310   0.553  53.641  1.00  0.00     0.014 A 
HETATM   24  C13 UNL     1      29.635   0.260  53.849  1.00  0.00     0.001 A 
HETATM   25  C14 UNL     1      30.153  -1.002  53.649  1.00  0.00     0.000 A 
HETATM   26  C15 UNL     1      29.296  -1.993  53.228  1.00  0.00     0.001 A 
HETATM   27  C16 UNL     1      27.979  -1.650  53.035  1.00  0.00     0.014 A 
ENDBRANCH  19  22
ENDBRANCH   8  17
BRANCH   1  28
HETATM   28  O1  UNL     1      18.879   0.146  52.361  1.00  0.00    -0.379 OA
BRANCH  28  29
HETATM   29  C2  UNL     1      19.780   0.058  53.397  1.00  0.00     0.164 C 
HETATM   30  C1  UNL     1      20.178  -1.339  53.773  1.00  0.00     0.033 C 
ENDBRANCH  28  29
ENDBRANCH   1  28
TORSDOF 4
ENDMDL
MODEL 6
REMARK VINA RESULT:      -8.7      3.386      7.271
REMARK  4 active torsions:
REMARK  status: ('A' for Active; 'I' for Inactive)
REMARK    1  A    between atoms: C2_2  and  O1_3 
REMARK    2  A    between atoms: O1_3  and  C3_4 
REMARK    3  A    between atoms: N2_11  and  C9_12 
REMARK    4  A    between atoms: C10_14  and  C11_15 
ROOT
HETATM    1  C3  UNL     1      20.671   4.828  50.368  1.00  0.00     0.166 A 
HETATM    2  C4  UNL     1      20.934   4.335  49.010  1.00  0.00     0.007 A 
HETATM    3  C5  UNL     1      22.167   4.361  48.605  1.00  0.00     0.003 A 
HETATM    4  C6  UNL     1      23.508   4.815  49.240  1.00  0.00     0.073 A 
HETATM    5  C7  UNL     1      23.208   5.288  50.616  1.00  0.00     0.003 A 
HETATM    6  C8  UNL     1      21.927   5.273  51.068  1.00  0.00     0.007 A 
HETATM    7  N1  UNL     1      24.233   3.570  49.289  1.00  0.00    -0.206 NA
HETATM    8  N2  UNL     1      25.266   3.401  50.162  1.00  0.00    -0.207 N 
HETATM    9  C18 UNL     1      25.600   4.605  49.915  1.00  0.00     0.037 C 
HETATM   10  C19 UNL     1      25.868   5.648  49.694  1.00  0.00    -0.030 C 
HETATM   11  C20 UNL     1      26.172   6.921  49.417  1.00  0.00     0.085 C 
HETATM   12 CL1  UNL     1      27.117   8.282  49.532  1.00  0.00    -0.075 Cl
HETATM   13  C21 UNL     1      24.998   6.866  48.671  1.00  0.00     0.013 C 
HETATM   14  C22 UNL     1      23.939   5.891  48.338  1.00  0.00     0.038 C 
HETATM   15  C23 UNL     1      22.693   6.728  47.971  1.00  0.00     0.017 C 
HETATM   16  H11 UNL     1      23.540   2.797  49.425  1.00  0.00     0.149 HD
ENDROOT
BRANCH   8  17
HETATM   17  C9  UNL     1      25.835   2.402  51.041  1.00  0.00     0.196 A 
HETATM   18  N3  UNL     1      26.520   1.612  51.438  1.00  0.00    -0.222 NA
HETATM   19  C10 UNL     1      26.458   0.959  52.571  1.00  0.00     0.076 A 
HETATM   20  C17 UNL     1      25.413   1.258  53.429  1.00  0.00     0.086 A 
HETATM   21  S1  UNL     1      24.538   2.570  52.432  1.00  0.00    -0.059 SA
BRANCH  19  22
HETATM   22  C11 UNL     1      27.481  -0.038  52.868  1.00  0.00    -0.007 A 
HETATM   23  C12 UNL     1      27.186  -1.361  52.630  1.00  0.00     0.014 A 
HETATM   24  C13 UNL     1      28.094  -2.360  52.882  1.00  0.00     0.001 A 
HETATM   25  C14 UNL     1      29.351  -2.105  53.387  1.00  0.00     0.000 A 
HETATM   26  C15 UNL     1      29.692  -0.796  53.641  1.00  0.00     0.001 A 
HETATM   27  C16 UNL     1      28.749   0.166  53.372  1.00  0.00     0.014 A 
ENDBRANCH  19  22
ENDBRANCH   8  17
BRANCH   1  28
HETATM   28  O1  UNL     1      20.026   3.848  51.146  1.00  0.00    -0.379 OA
BRANCH  28  29
HETATM   29  C2  UNL     1      20.834   2.757  51.366  1.00  0.00     0.164 C 
HETATM   30  C1  UNL     1      20.630   2.073  52.687  1.00  0.00     0.033 C 
ENDBRANCH  28  29
ENDBRANCH   1  28
TORSDOF 4
ENDMDL
MODEL 7
REMARK VINA RESULT:      -8.6      2.776      7.121
REMARK  4 active torsions:
REMARK  status: ('A' for Active; 'I' for Inactive)
REMARK    1  A    between atoms: C2_2  and  O1_3 
REMARK    2  A    between atoms: O1_3  and  C3_4 
REMARK    3  A    between atoms: N2_11  and  C9_12 
REMARK    4  A    between atoms: C10_14  and  C11_15 
ROOT
HETATM    1  C3  UNL     1      26.747   7.560  48.912  1.00  0.00     0.166 A 
HETATM    2  C4  UNL     1      25.964   8.113  50.025  1.00  0.00     0.007 A 
HETATM    3  C5  UNL     1      24.967   7.399  50.452  1.00  0.00     0.003 A 
HETATM    4  C6  UNL     1      24.365   6.027  50.051  1.00  0.00     0.073 A 
HETATM    5  C7  UNL     1      25.190   5.490  48.939  1.00  0.00     0.003 A 
HETATM    6  C8  UNL     1      26.239   6.213  48.470  1.00  0.00     0.007 A 
HETATM    7  N1  UNL     1      24.585   5.259  51.250  1.00  0.00    -0.206 NA
HETATM    8  N2  UNL     1      24.623   3.898  51.207  1.00  0.00    -0.207 N 
HETATM    9  C18 UNL     1      23.674   3.953  50.360  1.00  0.00     0.037 C 
HETATM   10  C19 UNL     1      22.860   4.021  49.624  1.00  0.00    -0.030 C 
HETATM   11  C20 UNL     1      21.876   4.127  48.723  1.00  0.00     0.085 C 
HETATM   12 CL1  UNL     1      20.724   3.506  47.701  1.00  0.00    -0.075 Cl
HETATM   13  C21 UNL     1      22.113   5.491  48.870  1.00  0.00     0.013 C 
HETATM   14  C22 UNL     1      23.001   6.387  49.638  1.00  0.00     0.038 C 
HETATM   15  C23 UNL     1      23.084   7.699  48.827  1.00  0.00     0.017 C 
HETATM   16  H11 UNL     1      25.461   5.612  51.704  1.00  0.00     0.149 HD
ENDROOT
BRANCH   8  17
HETATM   17  C9  UNL     1      25.346   2.780  51.775  1.00  0.00     0.196 A 
HETATM   18  N3  UNL     1      26.192   2.114  52.077  1.00  0.00    -0.222 NA
HETATM   19  C10 UNL     1      26.158   0.978  52.726  1.00  0.00     0.076 A 
HETATM   20  C17 UNL     1      24.919   0.496  53.112  1.00  0.00     0.086 A 
HETATM   21  S1  UNL     1      23.820   1.847  52.443  1.00  0.00    -0.059 SA
BRANCH  19  22
HETATM   22  C11 UNL     1      27.411   0.286  53.006  1.00  0.00    -0.007 A 
HETATM   23  C12 UNL     1      27.441  -1.083  52.865  1.00  0.00     0.014 A 
HETATM   24  C13 UNL     1      28.582  -1.809  53.108  1.00  0.00     0.001 A 
HETATM   25  C14 UNL     1      29.762  -1.218  53.507  1.00  0.00     0.000 A 
HETATM   26  C15 UNL     1      29.781   0.150  53.660  1.00  0.00     0.001 A 
HETATM   27  C16 UNL     1      28.614   0.830  53.405  1.00  0.00     0.014 A 
ENDBRANCH  19  22
ENDBRANCH   8  17
BRANCH   1  28
HETATM   28  O1  UNL     1      28.109   7.455  49.254  1.00  0.00    -0.379 OA
BRANCH  28  29
HETATM   29  C2  UNL     1      28.891   8.302  48.503  1.00  0.00     0.164 C 
HETATM   30  C1  UNL     1      29.659   9.322  49.293  1.00  0.00     0.033 C 
ENDBRANCH  28  29
ENDBRANCH   1  28
TORSDOF 4
ENDMDL
MODEL 8
REMARK VINA RESULT:      -8.5      2.920      7.989
REMARK  4 active torsions:
REMARK  status: ('A' for Active; 'I' for Inactive)
REMARK    1  A    between atoms: C2_2  and  O1_3 
REMARK    2  A    between atoms: O1_3  and  C3_4 
REMARK    3  A    between atoms: N2_11  and  C9_12 
REMARK    4  A    between atoms: C10_14  and  C11_15 
ROOT
HETATM    1  C3  UNL     1      30.457   7.535  48.249  1.00  0.00     0.166 A 
HETATM    2  C4  UNL     1      29.943   8.562  49.163  1.00  0.00     0.007 A 
HETATM    3  C5  UNL     1      28.653   8.692  49.235  1.00  0.00     0.003 A 
HETATM    4  C6  UNL     1      27.453   7.986  48.550  1.00  0.00     0.073 A 
HETATM    5  C7  UNL     1      28.008   6.944  47.649  1.00  0.00     0.003 A 
HETATM    6  C8  UNL     1      29.353   6.785  47.552  1.00  0.00     0.007 A 
HETATM    7  N1  UNL     1      26.802   7.373  49.679  1.00  0.00    -0.206 NA
HETATM    8  N2  UNL     1      25.975   6.304  49.510  1.00  0.00    -0.207 N 
HETATM    9  C18 UNL     1      25.552   6.869  48.450  1.00  0.00     0.037 C 
HETATM   10  C19 UNL     1      25.203   7.368  47.535  1.00  0.00    -0.030 C 
HETATM   11  C20 UNL     1      24.800   7.990  46.421  1.00  0.00     0.085 C 
HETATM   12 CL1  UNL     1      23.847   8.151  45.071  1.00  0.00    -0.075 Cl
HETATM   13  C21 UNL     1      25.800   8.897  46.763  1.00  0.00     0.013 C 
HETATM   14  C22 UNL     1      26.806   9.091  47.828  1.00  0.00     0.038 C 
HETATM   15  C23 UNL     1      27.917   9.965  47.206  1.00  0.00     0.017 C 
HETATM   16  H11 UNL     1      27.538   7.129  50.384  1.00  0.00     0.149 HD
ENDROOT
BRANCH   8  17
HETATM   17  C9  UNL     1      25.636   5.042  50.133  1.00  0.00     0.196 A 
HETATM   18  N3  UNL     1      25.748   4.041  50.618  1.00  0.00    -0.222 NA
HETATM   19  C10 UNL     1      24.820   3.221  51.044  1.00  0.00     0.076 A 
HETATM   20  C17 UNL     1      23.500   3.612  50.892  1.00  0.00     0.086 A 
HETATM   21  S1  UNL     1      23.742   5.272  50.076  1.00  0.00    -0.059 SA
BRANCH  19  22
HETATM   22  C11 UNL     1      25.219   1.955  51.649  1.00  0.00    -0.007 A 
HETATM   23  C12 UNL     1      24.319   1.320  52.475  1.00  0.00     0.014 A 
HETATM   24  C13 UNL     1      24.617   0.125  53.083  1.00  0.00     0.001 A 
HETATM   25  C14 UNL     1      25.827  -0.511  52.907  1.00  0.00     0.000 A 
HETATM   26  C15 UNL     1      26.759   0.086  52.089  1.00  0.00     0.001 A 
HETATM   27  C16 UNL     1      26.413   1.280  51.505  1.00  0.00     0.014 A 
ENDBRANCH  19  22
ENDBRANCH   8  17
BRANCH   1  28
HETATM   28  O1  UNL     1      31.285   6.621  48.929  1.00  0.00    -0.379 OA
BRANCH  28  29
HETATM   29  C2  UNL     1      32.287   6.139  48.120  1.00  0.00     0.164 C 
HETATM   30  C1  UNL     1      32.361   4.643  48.025  1.00  0.00     0.033 C 
ENDBRANCH  28  29
ENDBRANCH   1  28
TORSDOF 4
ENDMDL
MODEL 9
REMARK VINA RESULT:      -8.1      3.204      4.320
REMARK  4 active torsions:
REMARK  status: ('A' for Active; 'I' for Inactive)
REMARK    1  A    between atoms: C2_2  and  O1_3 
REMARK    2  A    between atoms: O1_3  and  C3_4 
REMARK    3  A    between atoms: N2_11  and  C9_12 
REMARK    4  A    between atoms: C10_14  and  C11_15 
ROOT
HETATM    1  C3  UNL     1      21.399   0.718  52.814  1.00  0.00     0.166 A 
HETATM    2  C4  UNL     1      21.486  -0.114  51.606  1.00  0.00     0.007 A 
HETATM    3  C5  UNL     1      21.321   0.487  50.467  1.00  0.00     0.003 A 
HETATM    4  C6  UNL     1      21.038   1.953  50.045  1.00  0.00     0.073 A 
HETATM    5  C7  UNL     1      20.975   2.766  51.286  1.00  0.00     0.003 A 
HETATM    6  C8  UNL     1      21.143   2.166  52.493  1.00  0.00     0.007 A 
HETATM    7  N1  UNL     1      22.231   2.270  49.302  1.00  0.00    -0.206 NA
HETATM    8  N2  UNL     1      22.617   3.564  49.125  1.00  0.00    -0.207 N 
HETATM    9  C18 UNL     1      21.385   3.854  48.978  1.00  0.00     0.037 C 
HETATM   10  C19 UNL     1      20.317   4.086  48.861  1.00  0.00    -0.030 C 
HETATM   11  C20 UNL     1      19.011   4.347  48.730  1.00  0.00     0.085 C 
HETATM   12 CL1  UNL     1      17.718   5.345  48.430  1.00  0.00    -0.075 Cl
HETATM   13  C21 UNL     1      18.879   2.997  49.045  1.00  0.00     0.013 C 
HETATM   14  C22 UNL     1      19.742   1.841  49.360  1.00  0.00     0.038 C 
HETATM   15  C23 UNL     1      18.862   0.864  50.170  1.00  0.00     0.017 C 
HETATM   16  H11 UNL     1      23.025   1.729  49.719  1.00  0.00     0.149 HD
ENDROOT
BRANCH   8  17
HETATM   17  C9  UNL     1      23.810   4.383  49.104  1.00  0.00     0.196 A 
HETATM   18  N3  UNL     1      24.818   4.773  48.816  1.00  0.00    -0.222 NA
HETATM   19  C10 UNL     1      25.482   5.789  49.307  1.00  0.00     0.076 A 
HETATM   20  C17 UNL     1      24.889   6.509  50.330  1.00  0.00     0.086 A 
HETATM   21  S1  UNL     1      23.286   5.571  50.504  1.00  0.00    -0.059 SA
BRANCH  19  22
HETATM   22  C11 UNL     1      26.796   6.106  48.758  1.00  0.00    -0.007 A 
HETATM   23  C12 UNL     1      27.721   5.091  48.665  1.00  0.00     0.014 A 
HETATM   24  C13 UNL     1      28.979   5.306  48.158  1.00  0.00     0.001 A 
HETATM   25  C14 UNL     1      29.395   6.543  47.715  1.00  0.00     0.000 A 
HETATM   26  C15 UNL     1      28.504   7.590  47.788  1.00  0.00     0.001 A 
HETATM   27  C16 UNL     1      27.258   7.323  48.302  1.00  0.00     0.014 A 
ENDBRANCH  19  22
ENDBRANCH   8  17
BRANCH   1  28
HETATM   28  O1  UNL     1      22.571   0.612  53.586  1.00  0.00    -0.379 OA
BRANCH  28  29
HETATM   29  C2  UNL     1      22.950  -0.699  53.763  1.00  0.00     0.164 C 
HETATM   30  C1  UNL     1      22.573  -1.293  55.089  1.00  0.00     0.033 C 
ENDBRANCH  28  29
ENDBRANCH   1  28
TORSDOF 4
ENDMDL
