MODEL 1
REMARK VINA RESULT:      -7.9      0.000      0.000
REMARK  5 active torsions:
REMARK  status: ('A' for Active; 'I' for Inactive)
REMARK    1  A    between atoms: O1_1  and  C1_2 
REMARK    2  A    between atoms: C1_2  and  C2_3 
REMARK    3  A    between atoms: C2_3  and  N1_4 
REMARK    4  A    between atoms: C2_3  and  C11_16 
REMARK    5  A    between atoms: N1_4  and  C3_5 
ROOT
HETATM    1  C3  UNL     1      24.995   2.477  52.824  1.00  0.00     0.125 C 
HETATM    2  N2  UNL     1      24.394   3.428  53.457  1.00  0.00    -0.155 NA
HETATM    3  N3  UNL     1      23.437   4.335  53.004  1.00  0.00    -0.245 N 
HETATM    4  S1  UNL     1      23.352   5.082  51.424  1.00  0.00    -0.001 SA
HETATM    5  C4  UNL     1      24.580   4.410  50.330  1.00  0.00     0.003 C 
HETATM    6  C5  UNL     1      25.083   3.168  50.439  1.00  0.00    -0.058 C 
HETATM    7  C6  UNL     1      26.118   2.795  49.406  1.00  0.00     0.036 C 
HETATM    8  C7  UNL     1      27.158   3.899  49.473  1.00  0.00     0.005 C 
HETATM    9  C8  UNL     1      26.563   5.219  49.036  1.00  0.00     0.005 C 
HETATM   10  C9  UNL     1      25.066   5.290  49.236  1.00  0.00     0.048 C 
HETATM   11  C10 UNL     1      24.804   2.096  51.394  1.00  0.00     0.115 C 
HETATM   12  H6  UNL     1      22.621   4.687  53.588  1.00  0.00     0.198 HD
ENDROOT
BRANCH   1  13
HETATM   13  N1  UNL     1      25.932   1.729  53.597  1.00  0.00    -0.366 N 
HETATM   14  H5  UNL     1      25.600   1.361  54.518  1.00  0.00     0.161 HD
BRANCH  13  15
HETATM   15  C2  UNL     1      27.253   1.553  53.022  1.00  0.00     0.139 C 
BRANCH  15  16
HETATM   16  C1  UNL     1      28.279   2.388  53.782  1.00  0.00     0.194 C 
BRANCH  16  17
HETATM   17  O1  UNL     1      29.011   3.136  52.856  1.00  0.00    -0.399 OA
HETATM   18  H1  UNL     1      29.128   4.069  53.179  1.00  0.00     0.209 HD
ENDBRANCH  16  17
ENDBRANCH  15  16
BRANCH  15  19
HETATM   19  C11 UNL     1      27.656   0.125  52.992  1.00  0.00    -0.034 A 
HETATM   20  C12 UNL     1      26.711  -0.780  52.515  1.00  0.00     0.009 A 
HETATM   21  C13 UNL     1      27.033  -2.120  52.465  1.00  0.00     0.001 A 
HETATM   22  C14 UNL     1      28.286  -2.527  52.891  1.00  0.00     0.000 A 
HETATM   23  C15 UNL     1      29.239  -1.651  53.368  1.00  0.00     0.001 A 
HETATM   24  C16 UNL     1      28.914  -0.312  53.417  1.00  0.00     0.009 A 
ENDBRANCH  15  19
ENDBRANCH  13  15
ENDBRANCH   1  13
TORSDOF 5
ENDMDL
MODEL 2
REMARK VINA RESULT:      -7.9      2.227      3.336
REMARK  5 active torsions:
REMARK  status: ('A' for Active; 'I' for Inactive)
REMARK    1  A    between atoms: O1_1  and  C1_2 
REMARK    2  A    between atoms: C1_2  and  C2_3 
REMARK    3  A    between atoms: C2_3  and  N1_4 
REMARK    4  A    between atoms: C2_3  and  C11_16 
REMARK    5  A    between atoms: N1_4  and  C3_5 
ROOT
HETATM    1  C3  UNL     1      25.416   2.393  52.529  1.00  0.00     0.125 C 
HETATM    2  N2  UNL     1      25.932   2.679  51.381  1.00  0.00    -0.155 NA
HETATM    3  N3  UNL     1      25.377   3.359  50.298  1.00  0.00    -0.245 N 
HETATM    4  S1  UNL     1      23.719   3.288  49.743  1.00  0.00    -0.001 SA
HETATM    5  C4  UNL     1      22.710   2.339  50.855  1.00  0.00     0.003 C 
HETATM    6  C5  UNL     1      22.965   2.201  52.168  1.00  0.00    -0.058 C 
HETATM    7  C6  UNL     1      21.982   1.352  52.934  1.00  0.00     0.036 C 
HETATM    8  C7  UNL     1      21.913   0.041  52.170  1.00  0.00     0.005 C 
HETATM    9  C8  UNL     1      21.324   0.256  50.794  1.00  0.00     0.005 C 
HETATM   10  C9  UNL     1      21.517   1.665  50.280  1.00  0.00     0.048 C 
HETATM   11  C10 UNL     1      24.043   2.736  53.001  1.00  0.00     0.115 C 
HETATM   12  H6  UNL     1      25.916   4.021  49.664  1.00  0.00     0.198 HD
ENDROOT
BRANCH   1  13
HETATM   13  N1  UNL     1      26.271   1.678  53.419  1.00  0.00    -0.366 N 
HETATM   14  H5  UNL     1      25.874   1.419  54.352  1.00  0.00     0.161 HD
BRANCH  13  15
HETATM   15  C2  UNL     1      27.607   1.381  52.936  1.00  0.00     0.139 C 
BRANCH  15  16
HETATM   16  C1  UNL     1      28.649   2.139  53.754  1.00  0.00     0.194 C 
BRANCH  16  17
HETATM   17  O1  UNL     1      29.199   3.138  52.949  1.00  0.00    -0.399 OA
HETATM   18  H1  UNL     1      28.760   4.011  53.130  1.00  0.00     0.209 HD
ENDBRANCH  16  17
ENDBRANCH  15  16
BRANCH  15  19
HETATM   19  C11 UNL     1      27.887  -0.076  52.948  1.00  0.00    -0.034 A 
HETATM   20  C12 UNL     1      29.144  -0.466  53.403  1.00  0.00     0.009 A 
HETATM   21  C13 UNL     1      29.457  -1.809  53.435  1.00  0.00     0.001 A 
HETATM   22  C14 UNL     1      28.513  -2.730  53.013  1.00  0.00     0.000 A 
HETATM   23  C15 UNL     1      27.263  -2.370  52.558  1.00  0.00     0.001 A 
HETATM   24  C16 UNL     1      26.953  -1.027  52.527  1.00  0.00     0.009 A 
ENDBRANCH  15  19
ENDBRANCH  13  15
ENDBRANCH   1  13
TORSDOF 5
ENDMDL
MODEL 3
REMARK VINA RESULT:      -7.9      3.269      6.350
REMARK  5 active torsions:
REMARK  status: ('A' for Active; 'I' for Inactive)
REMARK    1  A    between atoms: O1_1  and  C1_2 
REMARK    2  A    between atoms: C1_2  and  C2_3 
REMARK    3  A    between atoms: C2_3  and  N1_4 
REMARK    4  A    between atoms: C2_3  and  C11_16 
REMARK    5  A    between atoms: N1_4  and  C3_5 
ROOT
HETATM    1  C3  UNL     1      25.157   2.324  53.007  1.00  0.00     0.125 C 
HETATM    2  N2  UNL     1      25.969   2.211  54.004  1.00  0.00    -0.155 NA
HETATM    3  N3  UNL     1      26.472   1.066  54.619  1.00  0.00    -0.245 N 
HETATM    4  S1  UNL     1      25.628  -0.442  54.897  1.00  0.00    -0.001 SA
HETATM    5  C4  UNL     1      24.027  -0.433  54.126  1.00  0.00     0.003 C 
HETATM    6  C5  UNL     1      23.722   0.295  53.039  1.00  0.00    -0.058 C 
HETATM    7  C6  UNL     1      22.304   0.159  52.544  1.00  0.00     0.036 C 
HETATM    8  C7  UNL     1      21.434   0.450  53.754  1.00  0.00     0.005 C 
HETATM    9  C8  UNL     1      21.629  -0.609  54.817  1.00  0.00     0.005 C 
HETATM   10  C9  UNL     1      22.978  -1.288  54.738  1.00  0.00     0.048 C 
HETATM   11  C10 UNL     1      24.532   1.211  52.234  1.00  0.00     0.115 C 
HETATM   12  H6  UNL     1      27.460   0.975  55.003  1.00  0.00     0.198 HD
ENDROOT
BRANCH   1  13
HETATM   13  N1  UNL     1      24.844   3.662  52.625  1.00  0.00    -0.366 N 
HETATM   14  H5  UNL     1      25.039   4.414  53.326  1.00  0.00     0.161 HD
BRANCH  13  15
HETATM   15  C2  UNL     1      24.284   3.844  51.298  1.00  0.00     0.139 C 
BRANCH  15  16
HETATM   16  C1  UNL     1      23.021   4.697  51.366  1.00  0.00     0.194 C 
BRANCH  16  17
HETATM   17  O1  UNL     1      22.893   5.191  52.666  1.00  0.00    -0.399 OA
HETATM   18  H1  UNL     1      22.338   6.017  52.670  1.00  0.00     0.209 HD
ENDBRANCH  16  17
ENDBRANCH  15  16
BRANCH  15  19
HETATM   19  C11 UNL     1      25.270   4.438  50.360  1.00  0.00    -0.034 A 
HETATM   20  C12 UNL     1      25.076   5.773  50.014  1.00  0.00     0.009 A 
HETATM   21  C13 UNL     1      25.962   6.374  49.146  1.00  0.00     0.001 A 
HETATM   22  C14 UNL     1      27.019   5.633  48.643  1.00  0.00     0.000 A 
HETATM   23  C15 UNL     1      27.232   4.311  48.970  1.00  0.00     0.001 A 
HETATM   24  C16 UNL     1      26.344   3.712  49.838  1.00  0.00     0.009 A 
ENDBRANCH  15  19
ENDBRANCH  13  15
ENDBRANCH   1  13
TORSDOF 5
ENDMDL
MODEL 4
REMARK VINA RESULT:      -7.5      3.370      6.391
REMARK  5 active torsions:
REMARK  status: ('A' for Active; 'I' for Inactive)
REMARK    1  A    between atoms: O1_1  and  C1_2 
REMARK    2  A    between atoms: C1_2  and  C2_3 
REMARK    3  A    between atoms: C2_3  and  N1_4 
REMARK    4  A    between atoms: C2_3  and  C11_16 
REMARK    5  A    between atoms: N1_4  and  C3_5 
ROOT
HETATM    1  C3  UNL     1      25.425   2.136  52.829  1.00  0.00     0.125 C 
HETATM    2  N2  UNL     1      26.235   2.411  53.797  1.00  0.00    -0.155 NA
HETATM    3  N3  UNL     1      26.988   1.556  54.599  1.00  0.00    -0.245 N 
HETATM    4  S1  UNL     1      26.520  -0.023  55.193  1.00  0.00    -0.001 SA
HETATM    5  C4  UNL     1      24.966  -0.535  54.499  1.00  0.00     0.003 C 
HETATM    6  C5  UNL     1      24.506  -0.124  53.305  1.00  0.00    -0.058 C 
HETATM    7  C6  UNL     1      23.162  -0.678  52.902  1.00  0.00     0.036 C 
HETATM    8  C7  UNL     1      22.240  -0.366  54.068  1.00  0.00     0.005 C 
HETATM    9  C8  UNL     1      22.671  -1.122  55.305  1.00  0.00     0.005 C 
HETATM   10  C9  UNL     1      24.142  -1.473  55.304  1.00  0.00     0.048 C 
HETATM   11  C10 UNL     1      25.083   0.780  52.309  1.00  0.00     0.115 C 
HETATM   12  H6  UNL     1      27.967   1.772  54.954  1.00  0.00     0.198 HD
ENDROOT
BRANCH   1  13
HETATM   13  N1  UNL     1      24.809   3.264  52.212  1.00  0.00    -0.366 N 
HETATM   14  H5  UNL     1      25.445   4.011  51.847  1.00  0.00     0.161 HD
BRANCH  13  15
HETATM   15  C2  UNL     1      23.359   3.260  52.152  1.00  0.00     0.139 C 
BRANCH  15  16
HETATM   16  C1  UNL     1      22.812   4.663  52.400  1.00  0.00     0.194 C 
BRANCH  16  17
HETATM   17  O1  UNL     1      23.868   5.482  52.806  1.00  0.00    -0.399 OA
HETATM   18  H1  UNL     1      24.204   5.199  53.698  1.00  0.00     0.209 HD
ENDBRANCH  16  17
ENDBRANCH  15  16
BRANCH  15  19
HETATM   19  C11 UNL     1      22.861   2.722  50.862  1.00  0.00    -0.034 A 
HETATM   20  C12 UNL     1      23.466   3.211  49.707  1.00  0.00     0.009 A 
HETATM   21  C13 UNL     1      23.043   2.744  48.480  1.00  0.00     0.001 A 
HETATM   22  C14 UNL     1      22.027   1.804  48.432  1.00  0.00     0.000 A 
HETATM   23  C15 UNL     1      21.411   1.305  49.561  1.00  0.00     0.001 A 
HETATM   24  C16 UNL     1      21.837   1.773  50.786  1.00  0.00     0.009 A 
ENDBRANCH  15  19
ENDBRANCH  13  15
ENDBRANCH   1  13
TORSDOF 5
ENDMDL
MODEL 5
REMARK VINA RESULT:      -7.5      3.065      6.156
REMARK  5 active torsions:
REMARK  status: ('A' for Active; 'I' for Inactive)
REMARK    1  A    between atoms: O1_1  and  C1_2 
REMARK    2  A    between atoms: C1_2  and  C2_3 
REMARK    3  A    between atoms: C2_3  and  N1_4 
REMARK    4  A    between atoms: C2_3  and  C11_16 
REMARK    5  A    between atoms: N1_4  and  C3_5 
ROOT
HETATM    1  C3  UNL     1      22.685   2.068  51.745  1.00  0.00     0.125 C 
HETATM    2  N2  UNL     1      21.849   1.085  51.714  1.00  0.00    -0.155 NA
HETATM    3  N3  UNL     1      21.659   0.047  52.624  1.00  0.00    -0.245 N 
HETATM    4  S1  UNL     1      22.889  -0.786  53.550  1.00  0.00    -0.001 SA
HETATM    5  C4  UNL     1      24.480  -0.027  53.331  1.00  0.00     0.003 C 
HETATM    6  C5  UNL     1      24.658   1.270  53.028  1.00  0.00    -0.058 C 
HETATM    7  C6  UNL     1      26.093   1.712  52.885  1.00  0.00     0.036 C 
HETATM    8  C7  UNL     1      26.706   0.748  51.885  1.00  0.00     0.005 C 
HETATM    9  C8  UNL     1      26.735  -0.656  52.448  1.00  0.00     0.005 C 
HETATM   10  C9  UNL     1      25.673  -0.898  53.496  1.00  0.00     0.048 C 
HETATM   11  C10 UNL     1      23.694   2.349  52.808  1.00  0.00     0.115 C 
HETATM   12  H6  UNL     1      20.712  -0.371  52.869  1.00  0.00     0.198 HD
ENDROOT
BRANCH   1  13
HETATM   13  N1  UNL     1      22.613   2.964  50.637  1.00  0.00    -0.366 N 
HETATM   14  H5  UNL     1      21.965   3.781  50.729  1.00  0.00     0.161 HD
BRANCH  13  15
HETATM   15  C2  UNL     1      23.448   2.648  49.493  1.00  0.00     0.139 C 
BRANCH  15  16
HETATM   16  C1  UNL     1      22.600   2.532  48.230  1.00  0.00     0.194 C 
BRANCH  16  17
HETATM   17  O1  UNL     1      21.641   1.537  48.435  1.00  0.00    -0.399 OA
HETATM   18  H1  UNL     1      20.897   1.882  48.996  1.00  0.00     0.209 HD
ENDBRANCH  16  17
ENDBRANCH  15  16
BRANCH  15  19
HETATM   19  C11 UNL     1      24.531   3.647  49.309  1.00  0.00    -0.034 A 
HETATM   20  C12 UNL     1      24.138   4.936  48.957  1.00  0.00     0.009 A 
HETATM   21  C13 UNL     1      25.104   5.903  48.774  1.00  0.00     0.001 A 
HETATM   22  C14 UNL     1      26.436   5.565  48.943  1.00  0.00     0.000 A 
HETATM   23  C15 UNL     1      26.851   4.296  49.290  1.00  0.00     0.001 A 
HETATM   24  C16 UNL     1      25.883   3.331  49.473  1.00  0.00     0.009 A 
ENDBRANCH  15  19
ENDBRANCH  13  15
ENDBRANCH   1  13
TORSDOF 5
ENDMDL
MODEL 6
REMARK VINA RESULT:      -7.5      2.428      3.176
REMARK  5 active torsions:
REMARK  status: ('A' for Active; 'I' for Inactive)
REMARK    1  A    between atoms: O1_1  and  C1_2 
REMARK    2  A    between atoms: C1_2  and  C2_3 
REMARK    3  A    between atoms: C2_3  and  N1_4 
REMARK    4  A    between atoms: C2_3  and  C11_16 
REMARK    5  A    between atoms: N1_4  and  C3_5 
ROOT
HETATM    1  C3  UNL     1      25.329   1.740  51.780  1.00  0.00     0.125 C 
HETATM    2  N2  UNL     1      26.396   2.281  51.293  1.00  0.00    -0.155 NA
HETATM    3  N3  UNL     1      26.591   3.561  50.777  1.00  0.00    -0.245 N 
HETATM    4  S1  UNL     1      25.458   4.504  49.834  1.00  0.00    -0.001 SA
HETATM    5  C4  UNL     1      23.879   3.695  49.729  1.00  0.00     0.003 C 
HETATM    6  C5  UNL     1      23.407   2.848  50.660  1.00  0.00    -0.058 C 
HETATM    7  C6  UNL     1      22.043   2.269  50.377  1.00  0.00     0.036 C 
HETATM    8  C7  UNL     1      22.148   1.672  48.985  1.00  0.00     0.005 C 
HETATM    9  C8  UNL     1      22.384   2.756  47.957  1.00  0.00     0.005 C 
HETATM   10  C9  UNL     1      23.048   3.986  48.533  1.00  0.00     0.048 C 
HETATM   11  C10 UNL     1      23.988   2.379  51.918  1.00  0.00     0.115 C 
HETATM   12  H6  UNL     1      27.480   4.130  50.903  1.00  0.00     0.198 HD
ENDROOT
BRANCH   1  13
HETATM   13  N1  UNL     1      25.479   0.393  52.225  1.00  0.00    -0.366 N 
HETATM   14  H5  UNL     1      25.187  -0.361  51.561  1.00  0.00     0.161 HD
BRANCH  13  15
HETATM   15  C2  UNL     1      26.023   0.208  53.558  1.00  0.00     0.139 C 
BRANCH  15  16
HETATM   16  C1  UNL     1      25.139  -0.737  54.367  1.00  0.00     0.194 C 
BRANCH  16  17
HETATM   17  O1  UNL     1      25.601  -0.752  55.685  1.00  0.00    -0.399 OA
HETATM   18  H1  UNL     1      25.136  -0.058  56.224  1.00  0.00     0.209 HD
ENDBRANCH  16  17
ENDBRANCH  15  16
BRANCH  15  19
HETATM   19  C11 UNL     1      27.422  -0.286  53.518  1.00  0.00    -0.034 A 
HETATM   20  C12 UNL     1      28.413   0.616  53.899  1.00  0.00     0.009 A 
HETATM   21  C13 UNL     1      29.730   0.209  53.881  1.00  0.00     0.001 A 
HETATM   22  C14 UNL     1      30.031  -1.083  53.484  1.00  0.00     0.000 A 
HETATM   23  C15 UNL     1      29.068  -1.994  53.102  1.00  0.00     0.001 A 
HETATM   24  C16 UNL     1      27.752  -1.585  53.121  1.00  0.00     0.009 A 
ENDBRANCH  15  19
ENDBRANCH  13  15
ENDBRANCH   1  13
TORSDOF 5
ENDMDL
MODEL 7
REMARK VINA RESULT:      -7.4      3.564      4.270
REMARK  5 active torsions:
REMARK  status: ('A' for Active; 'I' for Inactive)
REMARK    1  A    between atoms: O1_1  and  C1_2 
REMARK    2  A    between atoms: C1_2  and  C2_3 
REMARK    3  A    between atoms: C2_3  and  N1_4 
REMARK    4  A    between atoms: C2_3  and  C11_16 
REMARK    5  A    between atoms: N1_4  and  C3_5 
ROOT
HETATM    1  C3  UNL     1      22.095  -0.019  52.540  1.00  0.00     0.125 C 
HETATM    2  N2  UNL     1      20.920   0.075  53.067  1.00  0.00    -0.155 NA
HETATM    3  N3  UNL     1      19.852   0.903  52.723  1.00  0.00    -0.245 N 
HETATM    4  S1  UNL     1      19.936   2.558  52.161  1.00  0.00    -0.001 SA
HETATM    5  C4  UNL     1      21.619   3.062  51.896  1.00  0.00     0.003 C 
HETATM    6  C5  UNL     1      22.615   2.215  51.584  1.00  0.00    -0.058 C 
HETATM    7  C6  UNL     1      23.971   2.849  51.401  1.00  0.00     0.036 C 
HETATM    8  C7  UNL     1      24.207   3.649  52.670  1.00  0.00     0.005 C 
HETATM    9  C8  UNL     1      23.208   4.780  52.780  1.00  0.00     0.005 C 
HETATM   10  C9  UNL     1      21.921   4.510  52.034  1.00  0.00     0.048 C 
HETATM   11  C10 UNL     1      22.621   0.766  51.385  1.00  0.00     0.115 C 
HETATM   12  H6  UNL     1      18.830   0.612  52.763  1.00  0.00     0.198 HD
ENDROOT
BRANCH   1  13
HETATM   13  N1  UNL     1      22.957  -0.981  53.144  1.00  0.00    -0.366 N 
HETATM   14  H5  UNL     1      22.970  -1.938  52.722  1.00  0.00     0.161 HD
BRANCH  13  15
HETATM   15  C2  UNL     1      23.732  -0.530  54.286  1.00  0.00     0.139 C 
BRANCH  15  16
HETATM   16  C1  UNL     1      23.492  -1.443  55.485  1.00  0.00     0.194 C 
BRANCH  16  17
HETATM   17  O1  UNL     1      22.176  -1.908  55.428  1.00  0.00    -0.399 OA
HETATM   18  H1  UNL     1      21.637  -1.348  54.807  1.00  0.00     0.209 HD
ENDBRANCH  16  17
ENDBRANCH  15  16
BRANCH  15  19
HETATM   19  C11 UNL     1      25.180  -0.445  53.971  1.00  0.00    -0.034 A 
HETATM   20  C12 UNL     1      26.009   0.045  54.977  1.00  0.00     0.009 A 
HETATM   21  C13 UNL     1      27.363   0.146  54.738  1.00  0.00     0.001 A 
HETATM   22  C14 UNL     1      27.860  -0.242  53.504  1.00  0.00     0.000 A 
HETATM   23  C15 UNL     1      27.060  -0.730  52.492  1.00  0.00     0.001 A 
HETATM   24  C16 UNL     1      25.706  -0.829  52.735  1.00  0.00     0.009 A 
ENDBRANCH  15  19
ENDBRANCH  13  15
ENDBRANCH   1  13
TORSDOF 5
ENDMDL
MODEL 8
REMARK VINA RESULT:      -7.3      2.636      3.636
REMARK  5 active torsions:
REMARK  status: ('A' for Active; 'I' for Inactive)
REMARK    1  A    between atoms: O1_1  and  C1_2 
REMARK    2  A    between atoms: C1_2  and  C2_3 
REMARK    3  A    between atoms: C2_3  and  N1_4 
REMARK    4  A    between atoms: C2_3  and  C11_16 
REMARK    5  A    between atoms: N1_4  and  C3_5 
ROOT
HETATM    1  C3  UNL     1      24.061   3.268  52.498  1.00  0.00     0.125 C 
HETATM    2  N2  UNL     1      23.806   4.364  53.132  1.00  0.00    -0.155 NA
HETATM    3  N3  UNL     1      23.287   5.567  52.659  1.00  0.00    -0.245 N 
HETATM    4  S1  UNL     1      23.604   6.319  51.110  1.00  0.00    -0.001 SA
HETATM    5  C4  UNL     1      24.577   5.259  50.069  1.00  0.00     0.003 C 
HETATM    6  C5  UNL     1      24.579   3.918  50.156  1.00  0.00    -0.058 C 
HETATM    7  C6  UNL     1      25.478   3.205  49.177  1.00  0.00     0.036 C 
HETATM    8  C7  UNL     1      26.844   3.844  49.359  1.00  0.00     0.005 C 
HETATM    9  C8  UNL     1      26.812   5.298  48.943  1.00  0.00     0.005 C 
HETATM   10  C9  UNL     1      25.435   5.915  49.049  1.00  0.00     0.048 C 
HETATM   11  C10 UNL     1      23.852   3.009  51.044  1.00  0.00     0.115 C 
HETATM   12  H6  UNL     1      22.616   6.187  53.203  1.00  0.00     0.198 HD
ENDROOT
BRANCH   1  13
HETATM   13  N1  UNL     1      24.594   2.213  53.296  1.00  0.00    -0.366 N 
HETATM   14  H5  UNL     1      25.016   2.481  54.216  1.00  0.00     0.161 HD
BRANCH  13  15
HETATM   15  C2  UNL     1      24.496   0.872  52.749  1.00  0.00     0.139 C 
BRANCH  15  16
HETATM   16  C1  UNL     1      25.800   0.111  52.968  1.00  0.00     0.194 C 
BRANCH  16  17
HETATM   17  O1  UNL     1      26.524   0.125  51.774  1.00  0.00    -0.399 OA
HETATM   18  H1  UNL     1      26.154   0.807  51.152  1.00  0.00     0.209 HD
ENDBRANCH  16  17
ENDBRANCH  15  16
BRANCH  15  19
HETATM   19  C11 UNL     1      23.348   0.126  53.321  1.00  0.00    -0.034 A 
HETATM   20  C12 UNL     1      23.610  -0.660  54.440  1.00  0.00     0.009 A 
HETATM   21  C13 UNL     1      22.580  -1.375  55.013  1.00  0.00     0.001 A 
HETATM   22  C14 UNL     1      21.313  -1.292  54.457  1.00  0.00     0.000 A 
HETATM   23  C15 UNL     1      21.028  -0.522  53.349  1.00  0.00     0.001 A 
HETATM   24  C16 UNL     1      22.061   0.192  52.780  1.00  0.00     0.009 A 
ENDBRANCH  15  19
ENDBRANCH  13  15
ENDBRANCH   1  13
TORSDOF 5
ENDMDL
MODEL 9
REMARK VINA RESULT:      -7.0      3.048      6.170
REMARK  5 active torsions:
REMARK  status: ('A' for Active; 'I' for Inactive)
REMARK    1  A    between atoms: O1_1  and  C1_2 
REMARK    2  A    between atoms: C1_2  and  C2_3 
REMARK    3  A    between atoms: C2_3  and  N1_4 
REMARK    4  A    between atoms: C2_3  and  C11_16 
REMARK    5  A    between atoms: N1_4  and  C3_5 
ROOT
HETATM    1  C3  UNL     1      23.362   3.076  50.100  1.00  0.00     0.125 C 
HETATM    2  N2  UNL     1      22.351   2.551  49.493  1.00  0.00    -0.155 NA
HETATM    3  N3  UNL     1      21.146   2.079  50.011  1.00  0.00    -0.245 N 
HETATM    4  S1  UNL     1      20.903   1.245  51.530  1.00  0.00    -0.001 SA
HETATM    5  C4  UNL     1      22.401   1.199  52.484  1.00  0.00     0.003 C 
HETATM    6  C5  UNL     1      23.377   2.118  52.393  1.00  0.00    -0.058 C 
HETATM    7  C6  UNL     1      24.567   1.892  53.293  1.00  0.00     0.036 C 
HETATM    8  C7  UNL     1      25.019   0.473  53.000  1.00  0.00     0.005 C 
HETATM    9  C8  UNL     1      23.958  -0.521  53.421  1.00  0.00     0.005 C 
HETATM   10  C9  UNL     1      22.565   0.066  53.432  1.00  0.00     0.048 C 
HETATM   11  C10 UNL     1      23.495   3.320  51.566  1.00  0.00     0.115 C 
HETATM   12  H6  UNL     1      20.205   2.176  49.525  1.00  0.00     0.198 HD
ENDROOT
BRANCH   1  13
HETATM   13  N1  UNL     1      24.449   3.454  49.258  1.00  0.00    -0.366 N 
HETATM   14  H5  UNL     1      24.318   3.327  48.228  1.00  0.00     0.161 HD
BRANCH  13  15
HETATM   15  C2  UNL     1      25.630   3.979  49.919  1.00  0.00     0.139 C 
BRANCH  15  16
HETATM   16  C1  UNL     1      26.642   2.864  50.165  1.00  0.00     0.194 C 
BRANCH  16  17
HETATM   17  O1  UNL     1      27.221   3.064  51.420  1.00  0.00    -0.399 OA
HETATM   18  H1  UNL     1      27.413   2.192  51.857  1.00  0.00     0.209 HD
ENDBRANCH  16  17
ENDBRANCH  15  16
BRANCH  15  19
HETATM   19  C11 UNL     1      26.246   5.089  49.150  1.00  0.00    -0.034 A 
HETATM   20  C12 UNL     1      25.414   6.155  48.818  1.00  0.00     0.009 A 
HETATM   21  C13 UNL     1      25.935   7.213  48.103  1.00  0.00     0.001 A 
HETATM   22  C14 UNL     1      27.270   7.184  47.735  1.00  0.00     0.000 A 
HETATM   23  C15 UNL     1      28.114   6.140  48.051  1.00  0.00     0.001 A 
HETATM   24  C16 UNL     1      27.590   5.084  48.765  1.00  0.00     0.009 A 
ENDBRANCH  15  19
ENDBRANCH  13  15
ENDBRANCH   1  13
TORSDOF 5
ENDMDL
