MODEL 1
REMARK VINA RESULT:      -7.7      0.000      0.000
REMARK  6 active torsions:
REMARK  status: ('A' for Active; 'I' for Inactive)
REMARK    1  A    between atoms: C2_2  and  C3_3 
REMARK    2  A    between atoms: C3_3  and  O1_4 
REMARK    3  A    between atoms: C6_7  and  N1_8 
REMARK    4  A    between atoms: N1_8  and  C7_9 
REMARK    5  A    between atoms: C12_16  and  O2_17 
REMARK    6  A    between atoms: C17_22  and  O3_23 
ROOT
HETATM    1  N1  UNL     1      24.889   1.792  50.990  1.00  0.00    -0.340 N 
HETATM    2  H8  UNL     1      24.715   1.055  50.274  1.00  0.00     0.167 HD
ENDROOT
BRANCH   1   3
HETATM    3  C6  UNL     1      25.672   1.245  52.047  1.00  0.00     0.035 A 
HETATM    4  C5  UNL     1      26.999   1.240  52.230  1.00  0.00     0.051 A 
HETATM    5  C3  UNL     1      27.370   0.534  53.511  1.00  0.00     0.146 A 
HETATM    6  C17 UNL     1      26.015   0.144  54.009  1.00  0.00     0.090 A 
HETATM    7  C16 UNL     1      25.060   0.544  53.186  1.00  0.00     0.065 A 
BRANCH   5   8
HETATM    8  C2  UNL     1      28.218  -0.636  53.246  1.00  0.00     0.012 C 
HETATM    9  C1  UNL     1      29.428  -1.084  53.533  1.00  0.00     0.010 C 
ENDBRANCH   5   8
BRANCH   5  10
HETATM   10  O1  UNL     1      27.898   1.460  54.379  1.00  0.00    -0.370 OA
HETATM   11  C4  UNL     1      28.632   2.426  53.709  1.00  0.00     0.204 C 
ENDBRANCH   5  10
BRANCH   6  12
HETATM   12  O3  UNL     1      25.972  -0.547  55.205  1.00  0.00    -0.356 OA
HETATM   13  C18 UNL     1      24.802  -1.123  55.725  1.00  0.00     0.209 C 
ENDBRANCH   6  12
ENDBRANCH   1   3
BRANCH   1  14
HETATM   14  C7  UNL     1      24.492   3.156  51.066  1.00  0.00     0.142 A 
HETATM   15  N2  UNL     1      23.407   3.417  51.780  1.00  0.00    -0.224 NA
HETATM   16  C8  UNL     1      22.958   4.699  51.903  1.00  0.00     0.236 A 
HETATM   17  N3  UNL     1      23.613   5.732  51.296  1.00  0.00    -0.241 NA
HETATM   18  C9  UNL     1      24.728   5.434  50.565  1.00  0.00     0.072 A 
HETATM   19  C10 UNL     1      25.372   6.517  49.959  1.00  0.00     0.035 A 
HETATM   20  C15 UNL     1      25.205   4.148  50.425  1.00  0.00     0.041 A 
HETATM   21  C11 UNL     1      26.499   6.171  49.226  1.00  0.00     0.039 A 
HETATM   22  C12 UNL     1      26.999   4.897  49.067  1.00  0.00     0.069 A 
HETATM   23  C14 UNL     1      26.332   3.861  49.684  1.00  0.00     0.054 A 
BRANCH  22  24
HETATM   24  O2  UNL     1      28.135   4.647  48.314  1.00  0.00    -0.356 OA
HETATM   25  C13 UNL     1      29.221   5.508  48.209  1.00  0.00     0.210 C 
ENDBRANCH  22  24
ENDBRANCH   1  14
TORSDOF 6
ENDMDL
MODEL 2
REMARK VINA RESULT:      -7.4      2.242      7.228
REMARK  6 active torsions:
REMARK  status: ('A' for Active; 'I' for Inactive)
REMARK    1  A    between atoms: C2_2  and  C3_3 
REMARK    2  A    between atoms: C3_3  and  O1_4 
REMARK    3  A    between atoms: C6_7  and  N1_8 
REMARK    4  A    between atoms: N1_8  and  C7_9 
REMARK    5  A    between atoms: C12_16  and  O2_17 
REMARK    6  A    between atoms: C17_22  and  O3_23 
ROOT
HETATM    1  N1  UNL     1      26.458   2.049  50.624  1.00  0.00    -0.340 N 
HETATM    2  H8  UNL     1      26.306   1.384  49.836  1.00  0.00     0.167 HD
ENDROOT
BRANCH   1   3
HETATM    3  C6  UNL     1      26.120   3.366  50.197  1.00  0.00     0.035 A 
HETATM    4  C5  UNL     1      25.064   4.133  50.501  1.00  0.00     0.051 A 
HETATM    5  C3  UNL     1      25.139   5.467  49.801  1.00  0.00     0.146 A 
HETATM    6  C17 UNL     1      26.423   5.309  49.051  1.00  0.00     0.090 A 
HETATM    7  C16 UNL     1      26.975   4.128  49.274  1.00  0.00     0.065 A 
BRANCH   5   8
HETATM    8  C2  UNL     1      23.994   5.659  48.900  1.00  0.00     0.012 C 
HETATM    9  C1  UNL     1      23.088   4.938  48.262  1.00  0.00     0.010 C 
ENDBRANCH   5   8
BRANCH   5  10
HETATM   10  O1  UNL     1      25.312   6.446  50.751  1.00  0.00    -0.370 OA
HETATM   11  C4  UNL     1      24.395   7.472  50.598  1.00  0.00     0.204 C 
ENDBRANCH   5  10
BRANCH   6  12
HETATM   12  O3  UNL     1      26.819   6.380  48.272  1.00  0.00    -0.356 OA
HETATM   13  C18 UNL     1      28.159   6.665  47.972  1.00  0.00     0.209 C 
ENDBRANCH   6  12
ENDBRANCH   1   3
BRANCH   1  14
HETATM   14  C7  UNL     1      26.916   1.858  51.956  1.00  0.00     0.142 A 
HETATM   15  N2  UNL     1      28.027   2.494  52.297  1.00  0.00    -0.224 NA
HETATM   16  C8  UNL     1      28.535   2.363  53.556  1.00  0.00     0.236 A 
HETATM   17  N3  UNL     1      27.914   1.578  54.484  1.00  0.00    -0.241 NA
HETATM   18  C9  UNL     1      26.771   0.932  54.105  1.00  0.00     0.072 A 
HETATM   19  C10 UNL     1      26.163   0.137  55.081  1.00  0.00     0.035 A 
HETATM   20  C15 UNL     1      26.235   1.046  52.840  1.00  0.00     0.041 A 
HETATM   21  C11 UNL     1      25.007  -0.501  54.656  1.00  0.00     0.039 A 
HETATM   22  C12 UNL     1      24.447  -0.407  53.400  1.00  0.00     0.069 A 
HETATM   23  C14 UNL     1      25.080   0.389  52.470  1.00  0.00     0.054 A 
BRANCH  22  24
HETATM   24  O2  UNL     1      23.285  -1.084  53.065  1.00  0.00    -0.356 OA
HETATM   25  C13 UNL     1      22.185  -1.231  53.902  1.00  0.00     0.210 C 
ENDBRANCH  22  24
ENDBRANCH   1  14
TORSDOF 6
ENDMDL
MODEL 3
REMARK VINA RESULT:      -7.1      2.530      4.463
REMARK  6 active torsions:
REMARK  status: ('A' for Active; 'I' for Inactive)
REMARK    1  A    between atoms: C2_2  and  C3_3 
REMARK    2  A    between atoms: C3_3  and  O1_4 
REMARK    3  A    between atoms: C6_7  and  N1_8 
REMARK    4  A    between atoms: N1_8  and  C7_9 
REMARK    5  A    between atoms: C12_16  and  O2_17 
REMARK    6  A    between atoms: C17_22  and  O3_23 
ROOT
HETATM    1  N1  UNL     1      24.756   1.677  51.158  1.00  0.00    -0.340 N 
HETATM    2  H8  UNL     1      24.914   1.132  50.283  1.00  0.00     0.167 HD
ENDROOT
BRANCH   1   3
HETATM    3  C6  UNL     1      25.584   1.153  52.192  1.00  0.00     0.035 A 
HETATM    4  C5  UNL     1      26.919   1.127  52.306  1.00  0.00     0.051 A 
HETATM    5  C3  UNL     1      27.344   0.461  53.591  1.00  0.00     0.146 A 
HETATM    6  C17 UNL     1      26.009   0.117  54.174  1.00  0.00     0.090 A 
HETATM    7  C16 UNL     1      25.020   0.506  53.387  1.00  0.00     0.065 A 
BRANCH   5   8
HETATM    8  C2  UNL     1      28.154  -0.736  53.326  1.00  0.00     0.012 C 
HETATM    9  C1  UNL     1      29.419  -1.119  53.363  1.00  0.00     0.010 C 
ENDBRANCH   5   8
BRANCH   5  10
HETATM   10  O1  UNL     1      27.934   1.407  54.395  1.00  0.00    -0.370 OA
HETATM   11  C4  UNL     1      28.655   2.328  53.653  1.00  0.00     0.204 C 
ENDBRANCH   5  10
BRANCH   6  12
HETATM   12  O3  UNL     1      26.017  -0.529  55.395  1.00  0.00    -0.356 OA
HETATM   13  C18 UNL     1      24.895  -1.175  55.936  1.00  0.00     0.209 C 
ENDBRANCH   6  12
ENDBRANCH   1   3
BRANCH   1  14
HETATM   14  C7  UNL     1      23.905   2.778  51.453  1.00  0.00     0.142 A 
HETATM   15  N2  UNL     1      24.490   3.960  51.572  1.00  0.00    -0.224 NA
HETATM   16  C8  UNL     1      23.746   5.068  51.856  1.00  0.00     0.236 A 
HETATM   17  N3  UNL     1      22.394   4.981  52.021  1.00  0.00    -0.241 NA
HETATM   18  C9  UNL     1      21.818   3.748  51.893  1.00  0.00     0.072 A 
HETATM   19  C10 UNL     1      20.432   3.698  52.070  1.00  0.00     0.035 A 
HETATM   20  C15 UNL     1      22.544   2.613  51.607  1.00  0.00     0.041 A 
HETATM   21  C11 UNL     1      19.887   2.429  51.933  1.00  0.00     0.039 A 
HETATM   22  C12 UNL     1      20.586   1.276  51.647  1.00  0.00     0.069 A 
HETATM   23  C14 UNL     1      21.951   1.374  51.481  1.00  0.00     0.054 A 
BRANCH  22  24
HETATM   24  O2  UNL     1      19.954   0.048  51.529  1.00  0.00    -0.356 OA
HETATM   25  C13 UNL     1      18.732  -0.272  52.108  1.00  0.00     0.210 C 
ENDBRANCH  22  24
ENDBRANCH   1  14
TORSDOF 6
ENDMDL
MODEL 4
REMARK VINA RESULT:      -6.9      2.348      6.943
REMARK  6 active torsions:
REMARK  status: ('A' for Active; 'I' for Inactive)
REMARK    1  A    between atoms: C2_2  and  C3_3 
REMARK    2  A    between atoms: C3_3  and  O1_4 
REMARK    3  A    between atoms: C6_7  and  N1_8 
REMARK    4  A    between atoms: N1_8  and  C7_9 
REMARK    5  A    between atoms: C12_16  and  O2_17 
REMARK    6  A    between atoms: C17_22  and  O3_23 
ROOT
HETATM    1  N1  UNL     1      26.485   2.027  50.725  1.00  0.00    -0.340 N 
HETATM    2  H8  UNL     1      26.531   1.437  49.867  1.00  0.00     0.167 HD
ENDROOT
BRANCH   1   3
HETATM    3  C6  UNL     1      25.798   3.238  50.425  1.00  0.00     0.035 A 
HETATM    4  C5  UNL     1      25.881   4.041  49.356  1.00  0.00     0.051 A 
HETATM    5  C3  UNL     1      24.950   5.221  49.485  1.00  0.00     0.146 A 
HETATM    6  C17 UNL     1      24.333   4.935  50.818  1.00  0.00     0.090 A 
HETATM    7  C16 UNL     1      24.810   3.820  51.346  1.00  0.00     0.065 A 
BRANCH   5   8
HETATM    8  C2  UNL     1      25.694   6.488  49.483  1.00  0.00     0.012 C 
HETATM    9  C1  UNL     1      26.849   6.972  49.058  1.00  0.00     0.010 C 
ENDBRANCH   5   8
BRANCH   5  10
HETATM   10  O1  UNL     1      23.972   5.109  48.525  1.00  0.00    -0.370 OA
HETATM   11  C4  UNL     1      23.617   6.347  48.014  1.00  0.00     0.204 C 
ENDBRANCH   5  10
BRANCH   6  12
HETATM   12  O3  UNL     1      23.397   5.845  51.272  1.00  0.00    -0.356 OA
HETATM   13  C18 UNL     1      22.041   5.534  51.457  1.00  0.00     0.209 C 
ENDBRANCH   6  12
ENDBRANCH   1   3
BRANCH   1  14
HETATM   14  C7  UNL     1      26.968   1.822  52.047  1.00  0.00     0.142 A 
HETATM   15  N2  UNL     1      28.079   2.464  52.376  1.00  0.00    -0.224 NA
HETATM   16  C8  UNL     1      28.610   2.322  53.625  1.00  0.00     0.236 A 
HETATM   17  N3  UNL     1      28.011   1.521  54.553  1.00  0.00    -0.241 NA
HETATM   18  C9  UNL     1      26.867   0.870  54.187  1.00  0.00     0.072 A 
HETATM   19  C10 UNL     1      26.283   0.058  55.163  1.00  0.00     0.035 A 
HETATM   20  C15 UNL     1      26.308   0.995  52.933  1.00  0.00     0.041 A 
HETATM   21  C11 UNL     1      25.124  -0.584  54.750  1.00  0.00     0.039 A 
HETATM   22  C12 UNL     1      24.542  -0.479  53.506  1.00  0.00     0.069 A 
HETATM   23  C14 UNL     1      25.153   0.333  52.575  1.00  0.00     0.054 A 
BRANCH  22  24
HETATM   24  O2  UNL     1      23.380  -1.162  53.182  1.00  0.00    -0.356 OA
HETATM   25  C13 UNL     1      22.153  -0.975  53.807  1.00  0.00     0.210 C 
ENDBRANCH  22  24
ENDBRANCH   1  14
TORSDOF 6
ENDMDL
MODEL 5
REMARK VINA RESULT:      -6.8      2.565      4.532
REMARK  6 active torsions:
REMARK  status: ('A' for Active; 'I' for Inactive)
REMARK    1  A    between atoms: C2_2  and  C3_3 
REMARK    2  A    between atoms: C3_3  and  O1_4 
REMARK    3  A    between atoms: C6_7  and  N1_8 
REMARK    4  A    between atoms: N1_8  and  C7_9 
REMARK    5  A    between atoms: C12_16  and  O2_17 
REMARK    6  A    between atoms: C17_22  and  O3_23 
ROOT
HETATM    1  N1  UNL     1      24.956   3.165  52.452  1.00  0.00    -0.340 N 
HETATM    2  H8  UNL     1      24.993   3.975  53.107  1.00  0.00     0.167 HD
ENDROOT
BRANCH   1   3
HETATM    3  C6  UNL     1      25.758   2.107  52.967  1.00  0.00     0.035 A 
HETATM    4  C5  UNL     1      26.902   1.582  52.507  1.00  0.00     0.051 A 
HETATM    5  C3  UNL     1      27.387   0.466  53.398  1.00  0.00     0.146 A 
HETATM    6  C17 UNL     1      26.311   0.459  54.437  1.00  0.00     0.090 A 
HETATM    7  C16 UNL     1      25.395   1.382  54.194  1.00  0.00     0.065 A 
BRANCH   5   8
HETATM    8  C2  UNL     1      27.455  -0.807  52.667  1.00  0.00     0.012 C 
HETATM    9  C1  UNL     1      26.673  -1.824  52.348  1.00  0.00     0.010 C 
ENDBRANCH   5   8
BRANCH   5  10
HETATM   10  O1  UNL     1      28.560   0.866  53.995  1.00  0.00    -0.370 OA
HETATM   11  C4  UNL     1      29.597  -0.008  53.716  1.00  0.00     0.204 C 
ENDBRANCH   5  10
BRANCH   6  12
HETATM   12  O3  UNL     1      26.435  -0.474  55.449  1.00  0.00    -0.356 OA
HETATM   13  C18 UNL     1      25.341  -1.015  56.141  1.00  0.00     0.209 C 
ENDBRANCH   6  12
ENDBRANCH   1   3
BRANCH   1  14
HETATM   14  C7  UNL     1      24.278   2.971  51.216  1.00  0.00     0.142 A 
HETATM   15  N2  UNL     1      24.709   3.685  50.187  1.00  0.00    -0.224 NA
HETATM   16  C8  UNL     1      24.113   3.560  48.966  1.00  0.00     0.236 A 
HETATM   17  N3  UNL     1      23.067   2.703  48.782  1.00  0.00    -0.241 NA
HETATM   18  C9  UNL     1      22.642   1.980  49.861  1.00  0.00     0.072 A 
HETATM   19  C10 UNL     1      21.568   1.113  49.635  1.00  0.00     0.035 A 
HETATM   20  C15 UNL     1      23.226   2.085  51.105  1.00  0.00     0.041 A 
HETATM   21  C11 UNL     1      21.168   0.399  50.755  1.00  0.00     0.039 A 
HETATM   22  C12 UNL     1      21.731   0.483  52.010  1.00  0.00     0.069 A 
HETATM   23  C14 UNL     1      22.787   1.350  52.186  1.00  0.00     0.054 A 
BRANCH  22  24
HETATM   24  O2  UNL     1      21.261  -0.273  53.073  1.00  0.00    -0.356 OA
HETATM   25  C13 UNL     1      21.805  -0.263  54.352  1.00  0.00     0.210 C 
ENDBRANCH  22  24
ENDBRANCH   1  14
TORSDOF 6
ENDMDL
MODEL 6
REMARK VINA RESULT:      -6.7      2.131      6.615
REMARK  6 active torsions:
REMARK  status: ('A' for Active; 'I' for Inactive)
REMARK    1  A    between atoms: C2_2  and  C3_3 
REMARK    2  A    between atoms: C3_3  and  O1_4 
REMARK    3  A    between atoms: C6_7  and  N1_8 
REMARK    4  A    between atoms: N1_8  and  C7_9 
REMARK    5  A    between atoms: C12_16  and  O2_17 
REMARK    6  A    between atoms: C17_22  and  O3_23 
ROOT
HETATM    1  N1  UNL     1      23.560   4.076  52.732  1.00  0.00    -0.340 N 
HETATM    2  H8  UNL     1      23.454   4.780  53.494  1.00  0.00     0.167 HD
ENDROOT
BRANCH   1   3
HETATM    3  C6  UNL     1      23.952   4.737  51.533  1.00  0.00     0.035 A 
HETATM    4  C5  UNL     1      24.386   4.236  50.368  1.00  0.00     0.051 A 
HETATM    5  C3  UNL     1      24.683   5.336  49.379  1.00  0.00     0.146 A 
HETATM    6  C17 UNL     1      24.341   6.539  50.198  1.00  0.00     0.090 A 
HETATM    7  C16 UNL     1      23.930   6.202  51.409  1.00  0.00     0.065 A 
BRANCH   5   8
HETATM    8  C2  UNL     1      26.097   5.324  48.981  1.00  0.00     0.012 C 
HETATM    9  C1  UNL     1      27.133   4.502  48.982  1.00  0.00     0.010 C 
ENDBRANCH   5   8
BRANCH   5  10
HETATM   10  O1  UNL     1      23.779   5.246  48.346  1.00  0.00    -0.370 OA
HETATM   11  C4  UNL     1      23.037   4.079  48.419  1.00  0.00     0.204 C 
ENDBRANCH   5  10
BRANCH   6  12
HETATM   12  O3  UNL     1      24.501   7.768  49.587  1.00  0.00    -0.356 OA
HETATM   13  C18 UNL     1      23.430   8.611  49.251  1.00  0.00     0.209 C 
ENDBRANCH   6  12
ENDBRANCH   1   3
BRANCH   1  14
HETATM   14  C7  UNL     1      23.386   2.664  52.711  1.00  0.00     0.142 A 
HETATM   15  N2  UNL     1      22.212   2.220  52.287  1.00  0.00    -0.224 NA
HETATM   16  C8  UNL     1      21.962   0.880  52.237  1.00  0.00     0.236 A 
HETATM   17  N3  UNL     1      22.910  -0.024  52.620  1.00  0.00    -0.241 NA
HETATM   18  C9  UNL     1      24.111   0.462  53.054  1.00  0.00     0.072 A 
HETATM   19  C10 UNL     1      25.056  -0.494  53.439  1.00  0.00     0.035 A 
HETATM   20  C15 UNL     1      24.391   1.810  53.115  1.00  0.00     0.041 A 
HETATM   21  C11 UNL     1      26.261   0.041  53.873  1.00  0.00     0.039 A 
HETATM   22  C12 UNL     1      26.570   1.382  53.945  1.00  0.00     0.069 A 
HETATM   23  C14 UNL     1      25.608   2.287  53.555  1.00  0.00     0.054 A 
BRANCH  22  24
HETATM   24  O2  UNL     1      27.805   1.824  54.394  1.00  0.00    -0.356 OA
HETATM   25  C13 UNL     1      29.013   1.182  54.147  1.00  0.00     0.210 C 
ENDBRANCH  22  24
ENDBRANCH   1  14
TORSDOF 6
ENDMDL
MODEL 7
REMARK VINA RESULT:      -6.7      1.991      6.866
REMARK  6 active torsions:
REMARK  status: ('A' for Active; 'I' for Inactive)
REMARK    1  A    between atoms: C2_2  and  C3_3 
REMARK    2  A    between atoms: C3_3  and  O1_4 
REMARK    3  A    between atoms: C6_7  and  N1_8 
REMARK    4  A    between atoms: N1_8  and  C7_9 
REMARK    5  A    between atoms: C12_16  and  O2_17 
REMARK    6  A    between atoms: C17_22  and  O3_23 
ROOT
HETATM    1  N1  UNL     1      23.976   4.136  52.602  1.00  0.00    -0.340 N 
HETATM    2  H8  UNL     1      24.124   4.804  53.388  1.00  0.00     0.167 HD
ENDROOT
BRANCH   1   3
HETATM    3  C6  UNL     1      24.289   4.783  51.371  1.00  0.00     0.035 A 
HETATM    4  C5  UNL     1      23.640   5.751  50.711  1.00  0.00     0.051 A 
HETATM    5  C3  UNL     1      24.360   6.120  49.438  1.00  0.00     0.146 A 
HETATM    6  C17 UNL     1      25.525   5.185  49.503  1.00  0.00     0.090 A 
HETATM    7  C16 UNL     1      25.485   4.433  50.590  1.00  0.00     0.065 A 
BRANCH   5   8
HETATM    8  C2  UNL     1      23.517   5.870  48.260  1.00  0.00     0.012 C 
HETATM    9  C1  UNL     1      23.042   6.519  47.210  1.00  0.00     0.010 C 
ENDBRANCH   5   8
BRANCH   5  10
HETATM   10  O1  UNL     1      24.831   7.406  49.563  1.00  0.00    -0.370 OA
HETATM   11  C4  UNL     1      24.028   8.163  50.400  1.00  0.00     0.204 C 
ENDBRANCH   5  10
BRANCH   6  12
HETATM   12  O3  UNL     1      26.427   5.248  48.458  1.00  0.00    -0.356 OA
HETATM   13  C18 UNL     1      27.804   5.027  48.610  1.00  0.00     0.209 C 
ENDBRANCH   6  12
ENDBRANCH   1   3
BRANCH   1  14
HETATM   14  C7  UNL     1      23.543   2.781  52.572  1.00  0.00     0.142 A 
HETATM   15  N2  UNL     1      22.352   2.553  52.040  1.00  0.00    -0.224 NA
HETATM   16  C8  UNL     1      21.861   1.282  51.975  1.00  0.00     0.236 A 
HETATM   17  N3  UNL     1      22.583   0.227  52.453  1.00  0.00    -0.241 NA
HETATM   18  C9  UNL     1      23.808   0.491  52.998  1.00  0.00     0.072 A 
HETATM   19  C10 UNL     1      24.517  -0.614  53.477  1.00  0.00     0.035 A 
HETATM   20  C15 UNL     1      24.329   1.765  53.076  1.00  0.00     0.041 A 
HETATM   21  C11 UNL     1      25.755  -0.302  54.022  1.00  0.00     0.039 A 
HETATM   22  C12 UNL     1      26.302   0.960  54.115  1.00  0.00     0.069 A 
HETATM   23  C14 UNL     1      25.567   2.018  53.629  1.00  0.00     0.054 A 
BRANCH  22  24
HETATM   24  O2  UNL     1      27.550   1.175  54.678  1.00  0.00    -0.356 OA
HETATM   25  C13 UNL     1      28.529   0.200  54.830  1.00  0.00     0.210 C 
ENDBRANCH  22  24
ENDBRANCH   1  14
TORSDOF 6
ENDMDL
MODEL 8
REMARK VINA RESULT:      -6.7      2.652      7.112
REMARK  6 active torsions:
REMARK  status: ('A' for Active; 'I' for Inactive)
REMARK    1  A    between atoms: C2_2  and  C3_3 
REMARK    2  A    between atoms: C3_3  and  O1_4 
REMARK    3  A    between atoms: C6_7  and  N1_8 
REMARK    4  A    between atoms: N1_8  and  C7_9 
REMARK    5  A    between atoms: C12_16  and  O2_17 
REMARK    6  A    between atoms: C17_22  and  O3_23 
ROOT
HETATM    1  N1  UNL     1      24.436   1.745  51.239  1.00  0.00    -0.340 N 
HETATM    2  H8  UNL     1      25.441   1.533  51.061  1.00  0.00     0.167 HD
ENDROOT
BRANCH   1   3
HETATM    3  C6  UNL     1      24.114   3.007  50.660  1.00  0.00     0.035 A 
HETATM    4  C5  UNL     1      24.125   3.402  49.380  1.00  0.00     0.051 A 
HETATM    5  C3  UNL     1      23.702   4.844  49.250  1.00  0.00     0.146 A 
HETATM    6  C17 UNL     1      23.454   5.185  50.686  1.00  0.00     0.090 A 
HETATM    7  C16 UNL     1      23.686   4.152  51.478  1.00  0.00     0.065 A 
BRANCH   5   8
HETATM    8  C2  UNL     1      24.774   5.662  48.667  1.00  0.00     0.012 C 
HETATM    9  C1  UNL     1      26.010   6.042  48.943  1.00  0.00     0.010 C 
ENDBRANCH   5   8
BRANCH   5  10
HETATM   10  O1  UNL     1      22.500   4.885  48.584  1.00  0.00    -0.370 OA
HETATM   11  C4  UNL     1      22.603   5.579  47.390  1.00  0.00     0.204 C 
ENDBRANCH   5  10
BRANCH   6  12
HETATM   12  O3  UNL     1      23.038   6.476  50.951  1.00  0.00    -0.356 OA
HETATM   13  C18 UNL     1      21.689   6.860  50.995  1.00  0.00     0.209 C 
ENDBRANCH   6  12
ENDBRANCH   1   3
BRANCH   1  14
HETATM   14  C7  UNL     1      23.417   1.023  51.919  1.00  0.00     0.142 A 
HETATM   15  N2  UNL     1      22.199   1.094  51.405  1.00  0.00    -0.224 NA
HETATM   16  C8  UNL     1      21.163   0.432  51.997  1.00  0.00     0.236 A 
HETATM   17  N3  UNL     1      21.361  -0.311  53.125  1.00  0.00    -0.241 NA
HETATM   18  C9  UNL     1      22.628  -0.366  53.635  1.00  0.00     0.072 A 
HETATM   19  C10 UNL     1      22.792  -1.136  54.790  1.00  0.00     0.035 A 
HETATM   20  C15 UNL     1      23.692   0.292  53.057  1.00  0.00     0.041 A 
HETATM   21  C11 UNL     1      24.092  -1.165  55.274  1.00  0.00     0.039 A 
HETATM   22  C12 UNL     1      25.175  -0.518  54.720  1.00  0.00     0.069 A 
HETATM   23  C14 UNL     1      24.966   0.229  53.581  1.00  0.00     0.054 A 
BRANCH  22  24
HETATM   24  O2  UNL     1      26.442  -0.605  55.277  1.00  0.00    -0.356 OA
HETATM   25  C13 UNL     1      27.544   0.125  54.852  1.00  0.00     0.210 C 
ENDBRANCH  22  24
ENDBRANCH   1  14
TORSDOF 6
ENDMDL
MODEL 9
REMARK VINA RESULT:      -6.6      2.650      6.924
REMARK  6 active torsions:
REMARK  status: ('A' for Active; 'I' for Inactive)
REMARK    1  A    between atoms: C2_2  and  C3_3 
REMARK    2  A    between atoms: C3_3  and  O1_4 
REMARK    3  A    between atoms: C6_7  and  N1_8 
REMARK    4  A    between atoms: N1_8  and  C7_9 
REMARK    5  A    between atoms: C12_16  and  O2_17 
REMARK    6  A    between atoms: C17_22  and  O3_23 
ROOT
HETATM    1  N1  UNL     1      26.315   2.180  50.702  1.00  0.00    -0.340 N 
HETATM    2  H8  UNL     1      26.471   1.720  49.779  1.00  0.00     0.167 HD
ENDROOT
BRANCH   1   3
HETATM    3  C6  UNL     1      25.396   3.257  50.540  1.00  0.00     0.035 A 
HETATM    4  C5  UNL     1      25.060   4.245  51.380  1.00  0.00     0.051 A 
HETATM    5  C3  UNL     1      24.032   5.160  50.764  1.00  0.00     0.146 A 
HETATM    6  C17 UNL     1      23.851   4.507  49.430  1.00  0.00     0.090 A 
HETATM    7  C16 UNL     1      24.618   3.437  49.305  1.00  0.00     0.065 A 
BRANCH   5   8
HETATM    8  C2  UNL     1      22.789   5.167  51.547  1.00  0.00     0.012 C 
HETATM    9  C1  UNL     1      22.045   4.335  52.256  1.00  0.00     0.010 C 
ENDBRANCH   5   8
BRANCH   5  10
HETATM   10  O1  UNL     1      24.611   6.391  50.565  1.00  0.00    -0.370 OA
HETATM   11  C4  UNL     1      23.763   7.419  50.943  1.00  0.00     0.204 C 
ENDBRANCH   5  10
BRANCH   6  12
HETATM   12  O3  UNL     1      22.946   5.099  48.570  1.00  0.00    -0.356 OA
HETATM   13  C18 UNL     1      21.809   4.444  48.072  1.00  0.00     0.209 C 
ENDBRANCH   6  12
ENDBRANCH   1   3
BRANCH   1  14
HETATM   14  C7  UNL     1      26.842   1.918  51.997  1.00  0.00     0.142 A 
HETATM   15  N2  UNL     1      27.977   2.526  52.308  1.00  0.00    -0.224 NA
HETATM   16  C8  UNL     1      28.550   2.327  53.530  1.00  0.00     0.236 A 
HETATM   17  N3  UNL     1      27.969   1.503  54.450  1.00  0.00    -0.241 NA
HETATM   18  C9  UNL     1      26.800   0.887  54.102  1.00  0.00     0.072 A 
HETATM   19  C10 UNL     1      26.236   0.050  55.069  1.00  0.00     0.035 A 
HETATM   20  C15 UNL     1      26.198   1.070  52.875  1.00  0.00     0.041 A 
HETATM   21  C11 UNL     1      25.050  -0.555  54.675  1.00  0.00     0.039 A 
HETATM   22  C12 UNL     1      24.425  -0.392  53.458  1.00  0.00     0.069 A 
HETATM   23  C14 UNL     1      25.018   0.443  52.536  1.00  0.00     0.054 A 
BRANCH  22  24
HETATM   24  O2  UNL     1      23.239  -1.040  53.153  1.00  0.00    -0.356 OA
HETATM   25  C13 UNL     1      22.045  -0.401  52.840  1.00  0.00     0.210 C 
ENDBRANCH  22  24
ENDBRANCH   1  14
TORSDOF 6
ENDMDL
