MODEL 1
REMARK VINA RESULT:      -8.2      0.000      0.000
REMARK  4 active torsions:
REMARK  status: ('A' for Active; 'I' for Inactive)
REMARK    1  A    between atoms: N1_1  and  C1_2 
REMARK    2  A    between atoms: C8_10  and  C9_11 
REMARK    3  A    between atoms: C9_11  and  C10_12 
REMARK    4  A    between atoms: C11_13  and  C12_14 
ROOT
HETATM    1  C1  UNL     1      27.095   1.426  52.581  1.00  0.00     0.045 C 
HETATM    2  S1  UNL     1      28.453   2.138  53.225  1.00  0.00    -0.110 SA
HETATM    3  C2  UNL     1      28.960   1.332  54.567  1.00  0.00     0.078 C 
HETATM    4  C3  UNL     1      29.320  -0.101  54.430  1.00  0.00     0.097 C 
HETATM    5  C4  UNL     1      28.523  -0.888  53.611  1.00  0.00    -0.169 C 
HETATM    6  C5  UNL     1      27.848  -1.528  52.916  1.00  0.00     0.039 A 
HETATM    7  C6  UNL     1      27.036  -2.287  52.057  1.00  0.00     0.020 A 
HETATM    8  C7  UNL     1      26.445  -1.098  52.204  1.00  0.00     0.024 A 
HETATM    9  C8  UNL     1      26.664   0.119  52.922  1.00  0.00     0.051 C 
ENDROOT
BRANCH   9  10
HETATM   10  C9  UNL     1      26.042   0.120  54.344  1.00  0.00     0.038 C 
BRANCH  10  11
HETATM   11  C10 UNL     1      24.659  -0.350  54.410  1.00  0.00    -0.025 C 
HETATM   12  C11 UNL     1      23.690   0.116  53.597  1.00  0.00     0.007 C 
BRANCH  12  13
HETATM   13  C12 UNL     1      22.278  -0.230  53.518  1.00  0.00    -0.036 A 
HETATM   14  C13 UNL     1      21.396   0.476  52.749  1.00  0.00     0.012 A 
HETATM   15  C14 UNL     1      20.040   0.171  52.651  1.00  0.00     0.020 A 
HETATM   16  C15 UNL     1      19.587  -0.908  53.382  1.00  0.00     0.011 A 
HETATM   17 BR1  UNL     1      17.736  -1.369  53.283  1.00  0.00    -0.051 Br
HETATM   18  C16 UNL     1      20.472  -1.616  54.153  1.00  0.00     0.020 A 
HETATM   19  C17 UNL     1      21.807  -1.302  54.238  1.00  0.00     0.012 A 
ENDBRANCH  12  13
ENDBRANCH  10  11
ENDBRANCH   9  10
BRANCH   1  20
HETATM   20  N1  UNL     1      26.822   2.588  51.794  1.00  0.00    -0.397 N 
HETATM   21  H1  UNL     1      25.964   2.850  51.264  1.00  0.00     0.156 HD
HETATM   22  H2  UNL     1      27.430   3.413  51.591  1.00  0.00     0.156 HD
ENDBRANCH   1  20
TORSDOF 4
ENDMDL
MODEL 2
REMARK VINA RESULT:      -7.6      5.788      8.407
REMARK  4 active torsions:
REMARK  status: ('A' for Active; 'I' for Inactive)
REMARK    1  A    between atoms: N1_1  and  C1_2 
REMARK    2  A    between atoms: C8_10  and  C9_11 
REMARK    3  A    between atoms: C9_11  and  C10_12 
REMARK    4  A    between atoms: C11_13  and  C12_14 
ROOT
HETATM    1  C1  UNL     1      23.605   3.831  52.584  1.00  0.00     0.045 C 
HETATM    2  S1  UNL     1      22.032   4.185  52.177  1.00  0.00    -0.110 SA
HETATM    3  C2  UNL     1      21.453   3.112  51.074  1.00  0.00     0.078 C 
HETATM    4  C3  UNL     1      21.427   1.674  51.441  1.00  0.00     0.097 C 
HETATM    5  C4  UNL     1      22.511   1.172  52.148  1.00  0.00    -0.169 C 
HETATM    6  C5  UNL     1      23.424   0.773  52.745  1.00  0.00     0.039 A 
HETATM    7  C6  UNL     1      24.524   0.308  53.484  1.00  0.00     0.020 A 
HETATM    8  C7  UNL     1      24.819   1.548  53.083  1.00  0.00     0.024 A 
HETATM    9  C8  UNL     1      24.221   2.586  52.302  1.00  0.00     0.051 C 
ENDROOT
BRANCH   9  10
HETATM   10  C9  UNL     1      24.544   2.485  50.787  1.00  0.00     0.038 C 
BRANCH  10  11
HETATM   11  C10 UNL     1      25.677   3.297  50.345  1.00  0.00    -0.025 C 
HETATM   12  C11 UNL     1      25.555   4.291  49.443  1.00  0.00     0.007 C 
BRANCH  12  13
HETATM   13  C12 UNL     1      26.556   5.193  48.891  1.00  0.00    -0.036 A 
HETATM   14  C13 UNL     1      27.845   4.800  48.663  1.00  0.00     0.012 A 
HETATM   15  C14 UNL     1      28.826   5.637  48.136  1.00  0.00     0.020 A 
HETATM   16  C15 UNL     1      28.451   6.931  47.837  1.00  0.00     0.011 A 
HETATM   17 BR1  UNL     1      29.758   8.120  47.113  1.00  0.00    -0.051 Br
HETATM   18  C16 UNL     1      27.158   7.324  48.066  1.00  0.00     0.020 A 
HETATM   19  C17 UNL     1      26.202   6.486  48.586  1.00  0.00     0.012 A 
ENDBRANCH  12  13
ENDBRANCH  10  11
ENDBRANCH   9  10
BRANCH   1  20
HETATM   20  N1  UNL     1      23.780   5.127  53.161  1.00  0.00    -0.397 N 
HETATM   21  H1  UNL     1      24.212   5.402  54.069  1.00  0.00     0.156 HD
HETATM   22  H2  UNL     1      23.509   6.065  52.788  1.00  0.00     0.156 HD
ENDBRANCH   1  20
TORSDOF 4
ENDMDL
MODEL 3
REMARK VINA RESULT:      -7.3      7.066      8.835
REMARK  4 active torsions:
REMARK  status: ('A' for Active; 'I' for Inactive)
REMARK    1  A    between atoms: N1_1  and  C1_2 
REMARK    2  A    between atoms: C8_10  and  C9_11 
REMARK    3  A    between atoms: C9_11  and  C10_12 
REMARK    4  A    between atoms: C11_13  and  C12_14 
ROOT
HETATM    1  C1  UNL     1      28.936   8.541  48.848  1.00  0.00     0.045 C 
HETATM    2  S1  UNL     1      30.587   8.606  49.037  1.00  0.00    -0.110 SA
HETATM    3  C2  UNL     1      31.334   7.504  48.072  1.00  0.00     0.078 C 
HETATM    4  C3  UNL     1      31.125   7.600  46.606  1.00  0.00     0.097 C 
HETATM    5  C4  UNL     1      29.849   7.915  46.159  1.00  0.00    -0.169 C 
HETATM    6  C5  UNL     1      28.776   8.185  45.805  1.00  0.00     0.039 A 
HETATM    7  C6  UNL     1      27.480   8.533  45.392  1.00  0.00     0.020 A 
HETATM    8  C7  UNL     1      27.421   8.303  46.707  1.00  0.00     0.024 A 
HETATM    9  C8  UNL     1      28.302   7.895  47.757  1.00  0.00     0.051 C 
ENDROOT
BRANCH   9  10
HETATM   10  C9  UNL     1      28.386   6.355  47.931  1.00  0.00     0.038 C 
BRANCH  10  11
HETATM   11  C10 UNL     1      27.281   5.760  48.682  1.00  0.00    -0.025 C 
HETATM   12  C11 UNL     1      27.226   4.447  48.980  1.00  0.00     0.007 C 
BRANCH  12  13
HETATM   13  C12 UNL     1      26.221   3.687  49.710  1.00  0.00    -0.036 A 
HETATM   14  C13 UNL     1      26.542   2.866  50.754  1.00  0.00     0.012 A 
HETATM   15  C14 UNL     1      25.604   2.127  51.473  1.00  0.00     0.020 A 
HETATM   16  C15 UNL     1      24.285   2.246  51.087  1.00  0.00     0.011 A 
HETATM   17 BR1  UNL     1      22.959   1.254  52.039  1.00  0.00    -0.051 Br
HETATM   18  C16 UNL     1      23.963   3.070  50.040  1.00  0.00     0.020 A 
HETATM   19  C17 UNL     1      24.900   3.793  49.341  1.00  0.00     0.012 A 
ENDBRANCH  12  13
ENDBRANCH  10  11
ENDBRANCH   9  10
BRANCH   1  20
HETATM   20  N1  UNL     1      28.737   9.283  50.054  1.00  0.00    -0.397 N 
HETATM   21  H1  UNL     1      27.982   9.954  50.309  1.00  0.00     0.156 HD
HETATM   22  H2  UNL     1      29.311   9.300  50.927  1.00  0.00     0.156 HD
ENDBRANCH   1  20
TORSDOF 4
ENDMDL
MODEL 4
REMARK VINA RESULT:      -7.0      6.460      8.248
REMARK  4 active torsions:
REMARK  status: ('A' for Active; 'I' for Inactive)
REMARK    1  A    between atoms: N1_1  and  C1_2 
REMARK    2  A    between atoms: C8_10  and  C9_11 
REMARK    3  A    between atoms: C9_11  and  C10_12 
REMARK    4  A    between atoms: C11_13  and  C12_14 
ROOT
HETATM    1  C1  UNL     1      27.276   8.432  49.529  1.00  0.00     0.045 C 
HETATM    2  S1  UNL     1      28.810   8.875  49.064  1.00  0.00    -0.110 SA
HETATM    3  C2  UNL     1      29.309   7.996  47.766  1.00  0.00     0.078 C 
HETATM    4  C3  UNL     1      28.508   8.070  46.519  1.00  0.00     0.097 C 
HETATM    5  C4  UNL     1      27.125   8.089  46.645  1.00  0.00    -0.169 C 
HETATM    6  C5  UNL     1      25.971   8.109  46.771  1.00  0.00     0.039 A 
HETATM    7  C6  UNL     1      24.577   8.155  46.939  1.00  0.00     0.020 A 
HETATM    8  C7  UNL     1      25.107   7.891  48.137  1.00  0.00     0.024 A 
HETATM    9  C8  UNL     1      26.401   7.679  48.707  1.00  0.00     0.051 C 
ENDROOT
BRANCH   9  10
HETATM   10  C9  UNL     1      26.861   6.197  48.660  1.00  0.00     0.038 C 
BRANCH  10  11
HETATM   11  C10 UNL     1      26.095   5.288  49.512  1.00  0.00    -0.025 C 
HETATM   12  C11 UNL     1      26.500   4.033  49.789  1.00  0.00     0.007 C 
BRANCH  12  13
HETATM   13  C12 UNL     1      25.879   2.999  50.606  1.00  0.00    -0.036 A 
HETATM   14  C13 UNL     1      24.523   2.897  50.745  1.00  0.00     0.012 A 
HETATM   15  C14 UNL     1      23.897   1.921  51.518  1.00  0.00     0.020 A 
HETATM   16  C15 UNL     1      24.713   1.019  52.169  1.00  0.00     0.011 A 
HETATM   17 BR1  UNL     1      23.907  -0.340  53.241  1.00  0.00    -0.051 Br
HETATM   18  C16 UNL     1      26.074   1.122  52.028  1.00  0.00     0.020 A 
HETATM   19  C17 UNL     1      26.675   2.091  51.262  1.00  0.00     0.012 A 
ENDBRANCH  12  13
ENDBRANCH  10  11
ENDBRANCH   9  10
BRANCH   1  20
HETATM   20  N1  UNL     1      27.437   9.083  50.792  1.00  0.00    -0.397 N 
HETATM   21  H1  UNL     1      27.205   8.747  51.751  1.00  0.00     0.156 HD
HETATM   22  H2  UNL     1      27.822  10.029  51.008  1.00  0.00     0.156 HD
ENDBRANCH   1  20
TORSDOF 4
ENDMDL
MODEL 5
REMARK VINA RESULT:      -6.8      6.102      8.559
REMARK  4 active torsions:
REMARK  status: ('A' for Active; 'I' for Inactive)
REMARK    1  A    between atoms: N1_1  and  C1_2 
REMARK    2  A    between atoms: C8_10  and  C9_11 
REMARK    3  A    between atoms: C9_11  and  C10_12 
REMARK    4  A    between atoms: C11_13  and  C12_14 
ROOT
HETATM    1  C1  UNL     1      22.553   1.508  51.274  1.00  0.00     0.045 C 
HETATM    2  S1  UNL     1      23.015   0.343  52.367  1.00  0.00    -0.110 SA
HETATM    3  C2  UNL     1      24.550   0.606  52.895  1.00  0.00     0.078 C 
HETATM    4  C3  UNL     1      24.847   1.892  53.575  1.00  0.00     0.097 C 
HETATM    5  C4  UNL     1      24.261   3.040  53.061  1.00  0.00    -0.169 C 
HETATM    6  C5  UNL     1      23.756   3.988  52.619  1.00  0.00     0.039 A 
HETATM    7  C6  UNL     1      23.123   5.124  52.089  1.00  0.00     0.020 A 
HETATM    8  C7  UNL     1      22.898   4.119  51.238  1.00  0.00     0.024 A 
HETATM    9  C8  UNL     1      23.241   2.737  51.108  1.00  0.00     0.051 C 
ENDROOT
BRANCH   9  10
HETATM   10  C9  UNL     1      24.577   2.499  50.356  1.00  0.00     0.038 C 
BRANCH  10  11
HETATM   11  C10 UNL     1      25.034   3.626  49.543  1.00  0.00    -0.025 C 
HETATM   12  C11 UNL     1      26.289   4.113  49.612  1.00  0.00     0.007 C 
BRANCH  12  13
HETATM   13  C12 UNL     1      26.915   5.212  48.890  1.00  0.00    -0.036 A 
HETATM   14  C13 UNL     1      28.229   5.185  48.516  1.00  0.00     0.012 A 
HETATM   15  C14 UNL     1      28.857   6.218  47.824  1.00  0.00     0.020 A 
HETATM   16  C15 UNL     1      28.089   7.320  47.511  1.00  0.00     0.011 A 
HETATM   17 BR1  UNL     1      28.901   8.765  46.563  1.00  0.00    -0.051 Br
HETATM   18  C16 UNL     1      26.770   7.347  47.886  1.00  0.00     0.020 A 
HETATM   19  C17 UNL     1      26.165   6.319  48.568  1.00  0.00     0.012 A 
ENDBRANCH  12  13
ENDBRANCH  10  11
ENDBRANCH   9  10
BRANCH   1  20
HETATM   20  N1  UNL     1      21.454   0.705  50.835  1.00  0.00    -0.397 N 
HETATM   21  H1  UNL     1      21.368  -0.331  50.770  1.00  0.00     0.156 HD
HETATM   22  H2  UNL     1      20.512   0.998  50.491  1.00  0.00     0.156 HD
ENDBRANCH   1  20
TORSDOF 4
ENDMDL
MODEL 6
REMARK VINA RESULT:      -6.7      6.797      9.624
REMARK  4 active torsions:
REMARK  status: ('A' for Active; 'I' for Inactive)
REMARK    1  A    between atoms: N1_1  and  C1_2 
REMARK    2  A    between atoms: C8_10  and  C9_11 
REMARK    3  A    between atoms: C9_11  and  C10_12 
REMARK    4  A    between atoms: C11_13  and  C12_14 
ROOT
HETATM    1  C1  UNL     1      24.088   5.154  51.290  1.00  0.00     0.045 C 
HETATM    2  S1  UNL     1      22.833   5.935  50.529  1.00  0.00    -0.110 SA
HETATM    3  C2  UNL     1      22.352   5.111  49.189  1.00  0.00     0.078 C 
HETATM    4  C3  UNL     1      21.874   3.716  49.357  1.00  0.00     0.097 C 
HETATM    5  C4  UNL     1      22.554   2.909  50.259  1.00  0.00    -0.169 C 
HETATM    6  C5  UNL     1      23.133   2.251  51.022  1.00  0.00     0.039 A 
HETATM    7  C6  UNL     1      23.828   1.474  51.963  1.00  0.00     0.020 A 
HETATM    8  C7  UNL     1      24.517   2.608  51.808  1.00  0.00     0.024 A 
HETATM    9  C8  UNL     1      24.438   3.805  51.030  1.00  0.00     0.051 C 
ENDROOT
BRANCH   9  10
HETATM   10  C9  UNL     1      25.147   3.696  49.654  1.00  0.00     0.038 C 
BRANCH  10  11
HETATM   11  C10 UNL     1      26.448   4.359  49.579  1.00  0.00    -0.025 C 
HETATM   12  C11 UNL     1      26.737   5.297  48.655  1.00  0.00     0.007 C 
BRANCH  12  13
HETATM   13  C12 UNL     1      27.960   6.056  48.431  1.00  0.00    -0.036 A 
HETATM   14  C13 UNL     1      29.161   5.449  48.192  1.00  0.00     0.012 A 
HETATM   15  C14 UNL     1      30.349   6.146  47.974  1.00  0.00     0.020 A 
HETATM   16  C15 UNL     1      30.281   7.523  48.006  1.00  0.00     0.011 A 
HETATM   17 BR1  UNL     1      31.880   8.526  47.713  1.00  0.00    -0.051 Br
HETATM   18  C16 UNL     1      29.076   8.131  48.245  1.00  0.00     0.020 A 
HETATM   19  C17 UNL     1      27.914   7.430  48.459  1.00  0.00     0.012 A 
ENDBRANCH  12  13
ENDBRANCH  10  11
ENDBRANCH   9  10
BRANCH   1  20
HETATM   20  N1  UNL     1      24.399   6.326  52.047  1.00  0.00    -0.397 N 
HETATM   21  H1  UNL     1      24.815   6.417  52.998  1.00  0.00     0.156 HD
HETATM   22  H2  UNL     1      24.272   7.333  51.798  1.00  0.00     0.156 HD
ENDBRANCH   1  20
TORSDOF 4
ENDMDL
MODEL 7
REMARK VINA RESULT:      -6.7      4.440      7.652
REMARK  4 active torsions:
REMARK  status: ('A' for Active; 'I' for Inactive)
REMARK    1  A    between atoms: N1_1  and  C1_2 
REMARK    2  A    between atoms: C8_10  and  C9_11 
REMARK    3  A    between atoms: C9_11  and  C10_12 
REMARK    4  A    between atoms: C11_13  and  C12_14 
ROOT
HETATM    1  C1  UNL     1      21.448   2.017  49.688  1.00  0.00     0.045 C 
HETATM    2  S1  UNL     1      19.925   1.352  49.615  1.00  0.00    -0.110 SA
HETATM    3  C2  UNL     1      19.228   1.314  51.104  1.00  0.00     0.078 C 
HETATM    4  C3  UNL     1      19.039   2.599  51.823  1.00  0.00     0.097 C 
HETATM    5  C4  UNL     1      20.059   3.537  51.741  1.00  0.00    -0.169 C 
HETATM    6  C5  UNL     1      20.921   4.310  51.655  1.00  0.00     0.039 A 
HETATM    7  C6  UNL     1      21.961   5.245  51.526  1.00  0.00     0.020 A 
HETATM    8  C7  UNL     1      22.395   4.101  50.988  1.00  0.00     0.024 A 
HETATM    9  C8  UNL     1      21.918   2.768  50.794  1.00  0.00     0.051 C 
ENDROOT
BRANCH   9  10
HETATM   10  C9  UNL     1      22.228   1.821  51.985  1.00  0.00     0.038 C 
BRANCH  10  11
HETATM   11  C10 UNL     1      23.564   1.227  51.967  1.00  0.00    -0.025 C 
HETATM   12  C11 UNL     1      24.374   1.221  53.044  1.00  0.00     0.007 C 
BRANCH  12  13
HETATM   13  C12 UNL     1      25.717   0.684  53.211  1.00  0.00    -0.036 A 
HETATM   14  C13 UNL     1      26.716   1.391  53.820  1.00  0.00     0.012 A 
HETATM   15  C14 UNL     1      28.010   0.905  53.996  1.00  0.00     0.020 A 
HETATM   16  C15 UNL     1      28.273  -0.362  53.520  1.00  0.00     0.011 A 
HETATM   17 BR1  UNL     1      30.032  -1.076  53.736  1.00  0.00    -0.051 Br
HETATM   18  C16 UNL     1      27.271  -1.072  52.910  1.00  0.00     0.020 A 
HETATM   19  C17 UNL     1      25.999  -0.578  52.744  1.00  0.00     0.012 A 
ENDBRANCH  12  13
ENDBRANCH  10  11
ENDBRANCH   9  10
BRANCH   1  20
HETATM   20  N1  UNL     1      21.770   1.498  48.395  1.00  0.00    -0.397 N 
HETATM   21  H1  UNL     1      21.662   1.934  47.454  1.00  0.00     0.156 HD
HETATM   22  H2  UNL     1      22.179   0.574  48.131  1.00  0.00     0.156 HD
ENDBRANCH   1  20
TORSDOF 4
ENDMDL
MODEL 8
REMARK VINA RESULT:      -6.6      3.147      4.794
REMARK  4 active torsions:
REMARK  status: ('A' for Active; 'I' for Inactive)
REMARK    1  A    between atoms: N1_1  and  C1_2 
REMARK    2  A    between atoms: C8_10  and  C9_11 
REMARK    3  A    between atoms: C9_11  and  C10_12 
REMARK    4  A    between atoms: C11_13  and  C12_14 
ROOT
HETATM    1  C1  UNL     1      22.537   1.826  50.762  1.00  0.00     0.045 C 
HETATM    2  S1  UNL     1      22.368   3.447  50.430  1.00  0.00    -0.110 SA
HETATM    3  C2  UNL     1      22.333   4.331  51.817  1.00  0.00     0.078 C 
HETATM    4  C3  UNL     1      23.504   4.258  52.725  1.00  0.00     0.097 C 
HETATM    5  C4  UNL     1      24.101   3.017  52.905  1.00  0.00    -0.169 C 
HETATM    6  C5  UNL     1      24.590   1.972  53.037  1.00  0.00     0.039 A 
HETATM    7  C6  UNL     1      25.185   0.707  53.172  1.00  0.00     0.020 A 
HETATM    8  C7  UNL     1      24.049   0.534  52.489  1.00  0.00     0.024 A 
HETATM    9  C8  UNL     1      22.956   1.328  52.022  1.00  0.00     0.051 C 
ENDROOT
BRANCH   9  10
HETATM   10  C9  UNL     1      21.805   1.464  53.054  1.00  0.00     0.038 C 
BRANCH  10  11
HETATM   11  C10 UNL     1      20.542   0.846  52.652  1.00  0.00    -0.025 C 
HETATM   12  C11 UNL     1      19.973  -0.165  53.340  1.00  0.00     0.007 C 
BRANCH  12  13
HETATM   13  C12 UNL     1      18.736  -0.893  53.094  1.00  0.00    -0.036 A 
HETATM   14  C13 UNL     1      17.766  -0.422  52.255  1.00  0.00     0.012 A 
HETATM   15  C14 UNL     1      16.573  -1.095  51.998  1.00  0.00     0.020 A 
HETATM   16  C15 UNL     1      16.384  -2.301  52.640  1.00  0.00     0.011 A 
HETATM   17 BR1  UNL     1      14.765  -3.264  52.323  1.00  0.00    -0.051 Br
HETATM   18  C16 UNL     1      17.358  -2.774  53.481  1.00  0.00     0.020 A 
HETATM   19  C17 UNL     1      18.530  -2.098  53.724  1.00  0.00     0.012 A 
ENDBRANCH  12  13
ENDBRANCH  10  11
ENDBRANCH   9  10
BRANCH   1  20
HETATM   20  N1  UNL     1      22.130   1.480  49.436  1.00  0.00    -0.397 N 
HETATM   21  H1  UNL     1      21.620   2.045  48.725  1.00  0.00     0.156 HD
HETATM   22  H2  UNL     1      22.264   0.587  48.910  1.00  0.00     0.156 HD
ENDBRANCH   1  20
TORSDOF 4
ENDMDL
MODEL 9
REMARK VINA RESULT:      -6.6      5.153      6.556
REMARK  4 active torsions:
REMARK  status: ('A' for Active; 'I' for Inactive)
REMARK    1  A    between atoms: N1_1  and  C1_2 
REMARK    2  A    between atoms: C8_10  and  C9_11 
REMARK    3  A    between atoms: C9_11  and  C10_12 
REMARK    4  A    between atoms: C11_13  and  C12_14 
ROOT
HETATM    1  C1  UNL     1      23.793   5.466  48.604  1.00  0.00     0.045 C 
HETATM    2  S1  UNL     1      23.129   6.973  48.374  1.00  0.00    -0.110 SA
HETATM    3  C2  UNL     1      23.828   8.082  49.368  1.00  0.00     0.078 C 
HETATM    4  C3  UNL     1      25.292   8.300  49.256  1.00  0.00     0.097 C 
HETATM    5  C4  UNL     1      26.094   7.184  49.062  1.00  0.00    -0.169 C 
HETATM    6  C5  UNL     1      26.747   6.238  48.895  1.00  0.00     0.039 A 
HETATM    7  C6  UNL     1      27.524   5.090  48.672  1.00  0.00     0.020 A 
HETATM    8  C7  UNL     1      26.282   4.675  48.941  1.00  0.00     0.024 A 
HETATM    9  C8  UNL     1      25.018   5.250  49.283  1.00  0.00     0.051 C 
ENDROOT
BRANCH   9  10
HETATM   10  C9  UNL     1      24.820   5.443  50.810  1.00  0.00     0.038 C 
BRANCH  10  11
HETATM   11  C10 UNL     1      23.982   4.432  51.454  1.00  0.00    -0.025 C 
HETATM   12  C11 UNL     1      24.422   3.187  51.729  1.00  0.00     0.007 C 
BRANCH  12  13
HETATM   13  C12 UNL     1      23.742   2.064  52.357  1.00  0.00    -0.036 A 
HETATM   14  C13 UNL     1      24.422   1.011  52.903  1.00  0.00     0.012 A 
HETATM   15  C14 UNL     1      23.801  -0.078  53.512  1.00  0.00     0.020 A 
HETATM   16  C15 UNL     1      22.423  -0.070  53.552  1.00  0.00     0.011 A 
HETATM   17 BR1  UNL     1      21.522  -1.539  54.375  1.00  0.00    -0.051 Br
HETATM   18  C16 UNL     1      21.741   0.986  53.005  1.00  0.00     0.020 A 
HETATM   19  C17 UNL     1      22.368   2.053  52.409  1.00  0.00     0.012 A 
ENDBRANCH  12  13
ENDBRANCH  10  11
ENDBRANCH   9  10
BRANCH   1  20
HETATM   20  N1  UNL     1      22.701   4.847  47.919  1.00  0.00    -0.397 N 
HETATM   21  H1  UNL     1      21.794   4.493  48.290  1.00  0.00     0.156 HD
HETATM   22  H2  UNL     1      22.593   4.623  46.904  1.00  0.00     0.156 HD
ENDBRANCH   1  20
TORSDOF 4
ENDMDL
