MODEL 1
REMARK VINA RESULT:      -9.2      0.000      0.000
REMARK  2 active torsions:
REMARK  status: ('A' for Active; 'I' for Inactive)
REMARK    1  A    between atoms: O1_2  and  C2_3 
REMARK    2  A    between atoms: C21_27  and  O3_28 
ROOT
HETATM    1  C2  UNL     1      26.698   0.668  54.113  1.00  0.00     0.080 C 
HETATM    2  C3  UNL     1      25.631  -0.096  54.443  1.00  0.00     0.057 C 
HETATM    3  C4  UNL     1      24.539  -0.999  54.879  1.00  0.00     0.120 C 
HETATM    4  N1  UNL     1      23.325  -0.948  54.518  1.00  0.00    -0.255 NA
HETATM    5  C5  UNL     1      22.270  -1.711  54.851  1.00  0.00     0.226 C 
HETATM    6  N2  UNL     1      21.500  -1.436  53.841  1.00  0.00    -0.279 NA
HETATM    7  C6  UNL     1      21.809  -0.566  52.760  1.00  0.00     0.184 C 
HETATM    8  C7  UNL     1      20.834   0.500  52.502  1.00  0.00    -0.054 C 
HETATM    9  C8  UNL     1      19.801   0.564  51.643  1.00  0.00     0.007 C 
HETATM   10  C9  UNL     1      19.521   1.987  51.348  1.00  0.00     0.037 C 
HETATM   11  C10 UNL     1      20.386   2.715  52.031  1.00  0.00     0.159 C 
HETATM   12  C11 UNL     1      20.793   1.825  53.181  1.00  0.00     0.104 C 
HETATM   13  N3  UNL     1      20.992   4.027  51.973  1.00  0.00     0.151 N 
HETATM   14  C12 UNL     1      22.314   4.398  51.548  1.00  0.00     0.388 A 
HETATM   15  O2  UNL     1      22.092   3.145  51.448  1.00  0.00    -0.100 OA
HETATM   16  N4  UNL     1      23.421   5.265  51.273  1.00  0.00    -0.311 N 
HETATM   17  C13 UNL     1      24.542   4.497  50.763  1.00  0.00     0.049 A 
HETATM   18  C14 UNL     1      24.855   4.639  49.448  1.00  0.00     0.030 A 
HETATM   19  C15 UNL     1      25.838   3.806  48.958  1.00  0.00     0.003 A 
HETATM   20  C16 UNL     1      26.418   2.906  49.829  1.00  0.00     0.012 A 
HETATM   21  C17 UNL     1      26.070   2.795  51.159  1.00  0.00    -0.020 A 
HETATM   22  C18 UNL     1      26.739   1.812  51.850  1.00  0.00     0.026 A 
HETATM   23  C19 UNL     1      26.313   1.747  53.142  1.00  0.00     0.001 A 
HETATM   24  C20 UNL     1      25.351   2.540  53.738  1.00  0.00     0.051 A 
HETATM   25  C21 UNL     1      24.713   3.513  52.986  1.00  0.00     0.080 A 
HETATM   26  C22 UNL     1      25.095   3.616  51.668  1.00  0.00     0.034 A 
HETATM   27  H13 UNL     1      20.230   4.669  52.320  1.00  0.00     0.337 HD
HETATM   28  H14 UNL     1      22.845   6.068  51.594  1.00  0.00     0.169 HD
ENDROOT
BRANCH   1  29
HETATM   29  O1  UNL     1      27.421  -0.143  54.957  1.00  0.00    -0.355 OA
HETATM   30  C1  UNL     1      28.838  -0.143  54.771  1.00  0.00     0.210 C 
ENDBRANCH   1  29
BRANCH  25  31
HETATM   31  O3  UNL     1      23.777   4.236  53.713  1.00  0.00    -0.360 OA
HETATM   32  H20 UNL     1      22.813   4.309  53.416  1.00  0.00     0.217 HD
ENDBRANCH  25  31
TORSDOF 2
ENDMDL
MODEL 2
REMARK VINA RESULT:      -8.8      2.171      3.083
REMARK  2 active torsions:
REMARK  status: ('A' for Active; 'I' for Inactive)
REMARK    1  A    between atoms: O1_2  and  C2_3 
REMARK    2  A    between atoms: C21_27  and  O3_28 
ROOT
HETATM    1  C2  UNL     1      24.180   0.704  52.932  1.00  0.00     0.080 C 
HETATM    2  C3  UNL     1      22.898   0.399  52.623  1.00  0.00     0.057 C 
HETATM    3  C4  UNL     1      21.506  -0.038  52.358  1.00  0.00     0.120 C 
HETATM    4  N1  UNL     1      20.653   0.553  51.629  1.00  0.00    -0.255 NA
HETATM    5  C5  UNL     1      19.381   0.243  51.328  1.00  0.00     0.226 C 
HETATM    6  N2  UNL     1      19.255   0.951  50.245  1.00  0.00    -0.279 NA
HETATM    7  C6  UNL     1      20.257   1.770  49.655  1.00  0.00     0.184 C 
HETATM    8  C7  UNL     1      19.874   3.164  49.407  1.00  0.00    -0.054 C 
HETATM    9  C8  UNL     1      19.396   3.766  48.304  1.00  0.00     0.007 C 
HETATM   10  C9  UNL     1      19.727   5.207  48.372  1.00  0.00     0.037 C 
HETATM   11  C10 UNL     1      20.384   5.414  49.499  1.00  0.00     0.159 C 
HETATM   12  C11 UNL     1      19.951   4.277  50.394  1.00  0.00     0.104 C 
HETATM   13  N3  UNL     1      21.327   6.361  50.053  1.00  0.00     0.151 N 
HETATM   14  C12 UNL     1      22.744   6.223  50.248  1.00  0.00     0.388 A 
HETATM   15  O2  UNL     1      22.213   5.196  49.705  1.00  0.00    -0.100 OA
HETATM   16  N4  UNL     1      24.067   6.597  50.651  1.00  0.00    -0.311 N 
HETATM   17  C13 UNL     1      25.000   5.524  50.358  1.00  0.00     0.049 A 
HETATM   18  C14 UNL     1      25.882   5.720  49.343  1.00  0.00     0.030 A 
HETATM   19  C15 UNL     1      26.670   4.641  48.999  1.00  0.00     0.003 A 
HETATM   20  C16 UNL     1      26.502   3.466  49.704  1.00  0.00     0.012 A 
HETATM   21  C17 UNL     1      25.593   3.311  50.730  1.00  0.00    -0.020 A 
HETATM   22  C18 UNL     1      25.554   2.052  51.281  1.00  0.00     0.026 A 
HETATM   23  C19 UNL     1      24.611   1.976  52.260  1.00  0.00     0.001 A 
HETATM   24  C20 UNL     1      23.782   2.994  52.692  1.00  0.00     0.051 A 
HETATM   25  C21 UNL     1      23.871   4.242  52.095  1.00  0.00     0.080 A 
HETATM   26  C22 UNL     1      24.801   4.373  51.090  1.00  0.00     0.034 A 
HETATM   27  H13 UNL     1      20.729   7.198  50.289  1.00  0.00     0.337 HD
HETATM   28  H14 UNL     1      23.687   7.508  50.977  1.00  0.00     0.169 HD
ENDROOT
BRANCH   1  29
HETATM   29  O1  UNL     1      24.172  -0.444  53.690  1.00  0.00    -0.355 OA
HETATM   30  C1  UNL     1      25.313  -0.656  54.523  1.00  0.00     0.210 C 
ENDBRANCH   1  29
BRANCH  25  31
HETATM   31  O3  UNL     1      22.985   5.166  52.632  1.00  0.00    -0.360 OA
HETATM   32  H20 UNL     1      22.878   5.283  53.631  1.00  0.00     0.217 HD
ENDBRANCH  25  31
TORSDOF 2
ENDMDL
MODEL 3
REMARK VINA RESULT:      -8.6      2.259      4.304
REMARK  2 active torsions:
REMARK  status: ('A' for Active; 'I' for Inactive)
REMARK    1  A    between atoms: O1_2  and  C2_3 
REMARK    2  A    between atoms: C21_27  and  O3_28 
ROOT
HETATM    1  C2  UNL     1      25.873   3.616  49.987  1.00  0.00     0.080 C 
HETATM    2  C3  UNL     1      26.270   2.701  50.903  1.00  0.00     0.057 C 
HETATM    3  C4  UNL     1      26.824   1.738  51.885  1.00  0.00     0.120 C 
HETATM    4  N1  UNL     1      26.167   0.911  52.587  1.00  0.00    -0.255 NA
HETATM    5  C5  UNL     1      26.569   0.006  53.495  1.00  0.00     0.226 C 
HETATM    6  N2  UNL     1      25.526  -0.768  53.479  1.00  0.00    -0.279 NA
HETATM    7  C6  UNL     1      24.363  -0.596  52.679  1.00  0.00     0.184 C 
HETATM    8  C7  UNL     1      23.088  -0.577  53.405  1.00  0.00    -0.054 C 
HETATM    9  C8  UNL     1      22.199  -1.555  53.655  1.00  0.00     0.007 C 
HETATM   10  C9  UNL     1      20.872  -0.939  53.878  1.00  0.00     0.037 C 
HETATM   11  C10 UNL     1      21.011   0.368  53.754  1.00  0.00     0.159 C 
HETATM   12  C11 UNL     1      22.472   0.615  54.050  1.00  0.00     0.104 C 
HETATM   13  N3  UNL     1      20.203   1.526  53.438  1.00  0.00     0.151 N 
HETATM   14  C12 UNL     1      20.132   2.276  52.214  1.00  0.00     0.388 A 
HETATM   15  O2  UNL     1      20.936   1.287  52.146  1.00  0.00    -0.100 OA
HETATM   16  N4  UNL     1      19.703   3.308  51.318  1.00  0.00    -0.311 N 
HETATM   17  C13 UNL     1      20.367   3.162  50.035  1.00  0.00     0.049 A 
HETATM   18  C14 UNL     1      19.615   2.742  48.983  1.00  0.00     0.030 A 
HETATM   19  C15 UNL     1      20.292   2.489  47.809  1.00  0.00     0.003 A 
HETATM   20  C16 UNL     1      21.659   2.679  47.795  1.00  0.00     0.012 A 
HETATM   21  C17 UNL     1      22.384   3.109  48.888  1.00  0.00    -0.020 A 
HETATM   22  C18 UNL     1      23.740   3.200  48.680  1.00  0.00     0.026 A 
HETATM   23  C19 UNL     1      24.382   3.597  49.814  1.00  0.00     0.001 A 
HETATM   24  C20 UNL     1      23.803   3.891  51.034  1.00  0.00     0.051 A 
HETATM   25  C21 UNL     1      22.429   3.778  51.178  1.00  0.00     0.080 A 
HETATM   26  C22 UNL     1      21.730   3.369  50.066  1.00  0.00     0.034 A 
HETATM   27  H13 UNL     1      19.663   1.702  54.327  1.00  0.00     0.337 HD
HETATM   28  H14 UNL     1      19.091   3.679  52.071  1.00  0.00     0.169 HD
ENDROOT
BRANCH   1  29
HETATM   29  O1  UNL     1      27.207   3.929  49.860  1.00  0.00    -0.355 OA
HETATM   30  C1  UNL     1      27.565   4.704  48.715  1.00  0.00     0.210 C 
ENDBRANCH   1  29
BRANCH  25  31
HETATM   31  O3  UNL     1      21.986   4.109  52.451  1.00  0.00    -0.360 OA
HETATM   32  H20 UNL     1      22.516   3.868  53.279  1.00  0.00     0.217 HD
ENDBRANCH  25  31
TORSDOF 2
ENDMDL
MODEL 4
REMARK VINA RESULT:      -8.2      3.845      6.180
REMARK  2 active torsions:
REMARK  status: ('A' for Active; 'I' for Inactive)
REMARK    1  A    between atoms: O1_2  and  C2_3 
REMARK    2  A    between atoms: C21_27  and  O3_28 
ROOT
HETATM    1  C2  UNL     1      24.327   2.628  50.696  1.00  0.00     0.080 C 
HETATM    2  C3  UNL     1      23.202   2.515  49.951  1.00  0.00     0.057 C 
HETATM    3  C4  UNL     1      21.940   2.290  49.206  1.00  0.00     0.120 C 
HETATM    4  N1  UNL     1      21.500   2.979  48.237  1.00  0.00    -0.255 NA
HETATM    5  C5  UNL     1      20.381   2.860  47.503  1.00  0.00     0.226 C 
HETATM    6  N2  UNL     1      20.755   3.540  46.460  1.00  0.00    -0.279 NA
HETATM    7  C6  UNL     1      22.015   4.172  46.275  1.00  0.00     0.184 C 
HETATM    8  C7  UNL     1      21.968   5.599  45.939  1.00  0.00    -0.054 C 
HETATM    9  C8  UNL     1      22.006   6.228  44.751  1.00  0.00     0.007 C 
HETATM   10  C9  UNL     1      22.516   7.601  44.961  1.00  0.00     0.037 C 
HETATM   11  C10 UNL     1      22.762   7.744  46.251  1.00  0.00     0.159 C 
HETATM   12  C11 UNL     1      21.871   6.721  46.913  1.00  0.00     0.104 C 
HETATM   13  N3  UNL     1      23.589   8.553  47.120  1.00  0.00     0.151 N 
HETATM   14  C12 UNL     1      24.808   8.203  47.796  1.00  0.00     0.388 A 
HETATM   15  O2  UNL     1      24.346   7.253  47.080  1.00  0.00    -0.100 OA
HETATM   16  N4  UNL     1      25.949   8.382  48.645  1.00  0.00    -0.311 N 
HETATM   17  C13 UNL     1      26.744   7.167  48.674  1.00  0.00     0.049 A 
HETATM   18  C14 UNL     1      27.944   7.187  48.037  1.00  0.00     0.030 A 
HETATM   19  C15 UNL     1      28.621   5.988  47.968  1.00  0.00     0.003 A 
HETATM   20  C16 UNL     1      28.035   4.879  48.545  1.00  0.00     0.012 A 
HETATM   21  C17 UNL     1      26.812   4.904  49.184  1.00  0.00    -0.020 A 
HETATM   22  C18 UNL     1      26.386   3.687  49.659  1.00  0.00     0.026 A 
HETATM   23  C19 UNL     1      25.160   3.793  50.244  1.00  0.00     0.001 A 
HETATM   24  C20 UNL     1      24.405   4.942  50.380  1.00  0.00     0.051 A 
HETATM   25  C21 UNL     1      24.892   6.139  49.878  1.00  0.00     0.080 A 
HETATM   26  C22 UNL     1      26.123   6.087  49.265  1.00  0.00     0.034 A 
HETATM   27  H13 UNL     1      23.087   9.480  47.149  1.00  0.00     0.337 HD
HETATM   28  H14 UNL     1      25.628   9.351  48.836  1.00  0.00     0.169 HD
ENDROOT
BRANCH   1  29
HETATM   29  O1  UNL     1      23.874   1.523  51.378  1.00  0.00    -0.355 OA
HETATM   30  C1  UNL     1      24.793   0.931  52.299  1.00  0.00     0.210 C 
ENDBRANCH   1  29
BRANCH  25  31
HETATM   31  O3  UNL     1      24.032   7.208  50.090  1.00  0.00    -0.360 OA
HETATM   32  H20 UNL     1      23.970   7.978  49.438  1.00  0.00     0.217 HD
ENDBRANCH  25  31
TORSDOF 2
ENDMDL
MODEL 5
REMARK VINA RESULT:      -8.0      8.712     12.658
REMARK  2 active torsions:
REMARK  status: ('A' for Active; 'I' for Inactive)
REMARK    1  A    between atoms: O1_2  and  C2_3 
REMARK    2  A    between atoms: C21_27  and  O3_28 
ROOT
HETATM    1  C2  UNL     1      28.818   6.064  48.049  1.00  0.00     0.080 C 
HETATM    2  C3  UNL     1      28.754   7.242  47.384  1.00  0.00     0.057 C 
HETATM    3  C4  UNL     1      28.560   8.532  46.679  1.00  0.00     0.120 C 
HETATM    4  N1  UNL     1      29.457   9.231  46.120  1.00  0.00    -0.255 NA
HETATM    5  C5  UNL     1      29.386  10.400  45.462  1.00  0.00     0.226 C 
HETATM    6  N2  UNL     1      30.495  10.318  44.789  1.00  0.00    -0.279 NA
HETATM    7  C6  UNL     1      31.423   9.242  44.827  1.00  0.00     0.184 C 
HETATM    8  C7  UNL     1      32.811   9.609  45.132  1.00  0.00    -0.054 C 
HETATM    9  C8  UNL     1      33.855   9.864  44.324  1.00  0.00     0.007 C 
HETATM   10  C9  UNL     1      35.105   9.601  45.072  1.00  0.00     0.037 C 
HETATM   11  C10 UNL     1      34.769   9.203  46.285  1.00  0.00     0.159 C 
HETATM   12  C11 UNL     1      33.388   9.777  46.495  1.00  0.00     0.104 C 
HETATM   13  N3  UNL     1      35.328   8.429  47.373  1.00  0.00     0.151 N 
HETATM   14  C12 UNL     1      35.032   7.081  47.773  1.00  0.00     0.388 A 
HETATM   15  O2  UNL     1      34.371   7.452  46.746  1.00  0.00    -0.100 OA
HETATM   16  N4  UNL     1      35.115   5.885  48.559  1.00  0.00    -0.311 N 
HETATM   17  C13 UNL     1      34.215   4.877  48.028  1.00  0.00     0.049 A 
HETATM   18  C14 UNL     1      34.769   3.808  47.400  1.00  0.00     0.030 A 
HETATM   19  C15 UNL     1      33.895   2.931  46.794  1.00  0.00     0.003 A 
HETATM   20  C16 UNL     1      32.544   3.205  46.873  1.00  0.00     0.012 A 
HETATM   21  C17 UNL     1      32.022   4.304  47.524  1.00  0.00    -0.020 A 
HETATM   22  C18 UNL     1      30.654   4.417  47.457  1.00  0.00     0.026 A 
HETATM   23  C19 UNL     1      30.225   5.543  48.093  1.00  0.00     0.001 A 
HETATM   24  C20 UNL     1      31.010   6.476  48.743  1.00  0.00     0.051 A 
HETATM   25  C21 UNL     1      32.385   6.304  48.773  1.00  0.00     0.080 A 
HETATM   26  C22 UNL     1      32.875   5.188  48.135  1.00  0.00     0.034 A 
HETATM   27  H13 UNL     1      36.019   9.090  47.818  1.00  0.00     0.337 HD
HETATM   28  H14 UNL     1      35.820   6.354  49.160  1.00  0.00     0.169 HD
ENDROOT
BRANCH   1  29
HETATM   29  O1  UNL     1      27.459   6.194  48.219  1.00  0.00    -0.355 OA
HETATM   30  C1  UNL     1      26.801   5.113  48.882  1.00  0.00     0.210 C 
ENDBRANCH   1  29
BRANCH  25  31
HETATM   31  O3  UNL     1      33.045   7.313  49.463  1.00  0.00    -0.360 OA
HETATM   32  H20 UNL     1      34.028   7.501  49.319  1.00  0.00     0.217 HD
ENDBRANCH  25  31
TORSDOF 2
ENDMDL
MODEL 6
REMARK VINA RESULT:      -7.8      2.719      6.035
REMARK  2 active torsions:
REMARK  status: ('A' for Active; 'I' for Inactive)
REMARK    1  A    between atoms: O1_2  and  C2_3 
REMARK    2  A    between atoms: C21_27  and  O3_28 
ROOT
HETATM    1  C2  UNL     1      21.615  -0.321  52.720  1.00  0.00     0.080 C 
HETATM    2  C3  UNL     1      22.860   0.209  52.645  1.00  0.00     0.057 C 
HETATM    3  C4  UNL     1      24.259   0.699  52.645  1.00  0.00     0.120 C 
HETATM    4  N1  UNL     1      24.717   1.679  51.984  1.00  0.00    -0.255 NA
HETATM    5  C5  UNL     1      25.954   2.198  51.914  1.00  0.00     0.226 C 
HETATM    6  N2  UNL     1      25.649   3.379  51.466  1.00  0.00    -0.279 NA
HETATM    7  C6  UNL     1      24.341   3.858  51.180  1.00  0.00     0.184 C 
HETATM    8  C7  UNL     1      24.143   4.399  49.830  1.00  0.00    -0.054 C 
HETATM    9  C8  UNL     1      24.198   5.660  49.367  1.00  0.00     0.007 C 
HETATM   10  C9  UNL     1      23.374   5.748  48.141  1.00  0.00     0.037 C 
HETATM   11  C10 UNL     1      22.861   4.552  47.916  1.00  0.00     0.159 C 
HETATM   12  C11 UNL     1      23.809   3.606  48.615  1.00  0.00     0.104 C 
HETATM   13  N3  UNL     1      21.729   3.961  47.236  1.00  0.00     0.151 N 
HETATM   14  C12 UNL     1      20.508   3.443  47.788  1.00  0.00     0.388 A 
HETATM   15  O2  UNL     1      21.292   3.920  48.675  1.00  0.00    -0.100 OA
HETATM   16  N4  UNL     1      19.215   2.825  47.793  1.00  0.00    -0.311 N 
HETATM   17  C13 UNL     1      18.710   2.736  49.151  1.00  0.00     0.049 A 
HETATM   18  C14 UNL     1      17.678   3.552  49.491  1.00  0.00     0.030 A 
HETATM   19  C15 UNL     1      17.300   3.542  50.818  1.00  0.00     0.003 A 
HETATM   20  C16 UNL     1      17.991   2.716  51.681  1.00  0.00     0.012 A 
HETATM   21  C17 UNL     1      19.034   1.901  51.292  1.00  0.00    -0.020 A 
HETATM   22  C18 UNL     1      19.614   1.182  52.310  1.00  0.00     0.026 A 
HETATM   23  C19 UNL     1      20.653   0.432  51.848  1.00  0.00     0.001 A 
HETATM   24  C20 UNL     1      21.103   0.356  50.544  1.00  0.00     0.051 A 
HETATM   25  C21 UNL     1      20.475   1.108  49.563  1.00  0.00     0.080 A 
HETATM   26  C22 UNL     1      19.424   1.894  49.977  1.00  0.00     0.034 A 
HETATM   27  H13 UNL     1      22.005   3.996  46.218  1.00  0.00     0.337 HD
HETATM   28  H14 UNL     1      19.277   2.737  46.759  1.00  0.00     0.169 HD
ENDROOT
BRANCH   1  29
HETATM   29  O1  UNL     1      22.157  -1.229  53.601  1.00  0.00    -0.355 OA
HETATM   30  C1  UNL     1      22.020  -0.919  54.989  1.00  0.00     0.210 C 
ENDBRANCH   1  29
BRANCH  25  31
HETATM   31  O3  UNL     1      21.027   0.929  48.303  1.00  0.00    -0.360 OA
HETATM   32  H20 UNL     1      20.450   0.808  47.481  1.00  0.00     0.217 HD
ENDBRANCH  25  31
TORSDOF 2
ENDMDL
MODEL 7
REMARK VINA RESULT:      -7.8      2.953      6.083
REMARK  2 active torsions:
REMARK  status: ('A' for Active; 'I' for Inactive)
REMARK    1  A    between atoms: O1_2  and  C2_3 
REMARK    2  A    between atoms: C21_27  and  O3_28 
ROOT
HETATM    1  C2  UNL     1      19.421   0.423  51.716  1.00  0.00     0.080 C 
HETATM    2  C3  UNL     1      18.966   1.015  50.587  1.00  0.00     0.057 C 
HETATM    3  C4  UNL     1      18.364   1.590  49.360  1.00  0.00     0.120 C 
HETATM    4  N1  UNL     1      18.867   2.489  48.621  1.00  0.00    -0.255 NA
HETATM    5  C5  UNL     1      18.408   3.072  47.501  1.00  0.00     0.226 C 
HETATM    6  N2  UNL     1      19.535   3.520  47.034  1.00  0.00    -0.279 NA
HETATM    7  C6  UNL     1      20.815   3.363  47.633  1.00  0.00     0.184 C 
HETATM    8  C7  UNL     1      21.571   4.601  47.852  1.00  0.00    -0.054 C 
HETATM    9  C8  UNL     1      22.513   5.205  47.106  1.00  0.00     0.007 C 
HETATM   10  C9  UNL     1      23.350   6.044  47.993  1.00  0.00     0.037 C 
HETATM   11  C10 UNL     1      22.886   5.914  49.222  1.00  0.00     0.159 C 
HETATM   12  C11 UNL     1      21.445   5.500  49.033  1.00  0.00     0.104 C 
HETATM   13  N3  UNL     1      23.353   6.052  50.585  1.00  0.00     0.151 N 
HETATM   14  C12 UNL     1      23.717   5.030  51.527  1.00  0.00     0.388 A 
HETATM   15  O2  UNL     1      23.369   4.560  50.393  1.00  0.00    -0.100 OA
HETATM   16  N4  UNL     1      24.154   4.474  52.773  1.00  0.00    -0.311 N 
HETATM   17  C13 UNL     1      24.197   3.026  52.686  1.00  0.00     0.049 A 
HETATM   18  C14 UNL     1      25.420   2.434  52.659  1.00  0.00     0.030 A 
HETATM   19  C15 UNL     1      25.438   1.072  52.447  1.00  0.00     0.003 A 
HETATM   20  C16 UNL     1      24.229   0.427  52.281  1.00  0.00     0.012 A 
HETATM   21  C17 UNL     1      23.008   1.067  52.316  1.00  0.00    -0.020 A 
HETATM   22  C18 UNL     1      21.923   0.253  52.092  1.00  0.00     0.026 A 
HETATM   23  C19 UNL     1      20.764   0.967  52.109  1.00  0.00     0.001 A 
HETATM   24  C20 UNL     1      20.632   2.325  52.327  1.00  0.00     0.051 A 
HETATM   25  C21 UNL     1      21.766   3.091  52.547  1.00  0.00     0.080 A 
HETATM   26  C22 UNL     1      22.967   2.422  52.528  1.00  0.00     0.034 A 
HETATM   27  H13 UNL     1      23.368   7.096  50.738  1.00  0.00     0.337 HD
HETATM   28  H14 UNL     1      24.230   5.439  53.153  1.00  0.00     0.169 HD
ENDROOT
BRANCH   1  29
HETATM   29  O1  UNL     1      18.252  -0.303  51.695  1.00  0.00    -0.355 OA
HETATM   30  C1  UNL     1      17.942  -1.032  52.884  1.00  0.00     0.210 C 
ENDBRANCH   1  29
BRANCH  25  31
HETATM   31  O3  UNL     1      21.483   4.434  52.756  1.00  0.00    -0.360 OA
HETATM   32  H20 UNL     1      21.534   5.112  52.007  1.00  0.00     0.217 HD
ENDBRANCH  25  31
TORSDOF 2
ENDMDL
MODEL 8
REMARK VINA RESULT:      -7.7      9.089     12.911
REMARK  2 active torsions:
REMARK  status: ('A' for Active; 'I' for Inactive)
REMARK    1  A    between atoms: O1_2  and  C2_3 
REMARK    2  A    between atoms: C21_27  and  O3_28 
ROOT
HETATM    1  C2  UNL     1      31.780   9.730  43.776  1.00  0.00     0.080 C 
HETATM    2  C3  UNL     1      32.670   8.788  43.386  1.00  0.00     0.057 C 
HETATM    3  C4  UNL     1      33.677   7.833  42.865  1.00  0.00     0.120 C 
HETATM    4  N1  UNL     1      33.965   6.697  43.349  1.00  0.00    -0.255 NA
HETATM    5  C5  UNL     1      34.851   5.767  42.957  1.00  0.00     0.226 C 
HETATM    6  N2  UNL     1      34.337   4.736  43.559  1.00  0.00    -0.279 NA
HETATM    7  C6  UNL     1      33.167   4.732  44.367  1.00  0.00     0.184 C 
HETATM    8  C7  UNL     1      33.327   4.175  45.716  1.00  0.00    -0.054 C 
HETATM    9  C8  UNL     1      33.095   2.941  46.195  1.00  0.00     0.007 C 
HETATM   10  C9  UNL     1      32.841   3.040  47.650  1.00  0.00     0.037 C 
HETATM   11  C10 UNL     1      32.929   4.314  47.986  1.00  0.00     0.159 C 
HETATM   12  C11 UNL     1      33.804   4.920  46.914  1.00  0.00     0.104 C 
HETATM   13  N3  UNL     1      32.450   5.205  49.020  1.00  0.00     0.151 N 
HETATM   14  C12 UNL     1      31.389   6.174  48.964  1.00  0.00     0.388 A 
HETATM   15  O2  UNL     1      31.535   5.532  47.870  1.00  0.00    -0.100 OA
HETATM   16  N4  UNL     1      30.518   7.210  49.432  1.00  0.00    -0.311 N 
HETATM   17  C13 UNL     1      29.594   7.598  48.381  1.00  0.00     0.049 A 
HETATM   18  C14 UNL     1      28.292   7.239  48.525  1.00  0.00     0.030 A 
HETATM   19  C15 UNL     1      27.460   7.505  47.458  1.00  0.00     0.003 A 
HETATM   20  C16 UNL     1      28.010   8.106  46.343  1.00  0.00     0.012 A 
HETATM   21  C17 UNL     1      29.341   8.456  46.239  1.00  0.00    -0.020 A 
HETATM   22  C18 UNL     1      29.698   9.011  45.033  1.00  0.00     0.026 A 
HETATM   23  C19 UNL     1      31.030   9.294  45.001  1.00  0.00     0.001 A 
HETATM   24  C20 UNL     1      31.945   9.084  46.015  1.00  0.00     0.051 A 
HETATM   25  C21 UNL     1      31.521   8.519  47.207  1.00  0.00     0.080 A 
HETATM   26  C22 UNL     1      30.185   8.202  47.291  1.00  0.00     0.034 A 
HETATM   27  H13 UNL     1      33.066   4.981  49.846  1.00  0.00     0.337 HD
HETATM   28  H14 UNL     1      31.004   7.175  50.350  1.00  0.00     0.169 HD
ENDROOT
BRANCH   1  29
HETATM   29  O1  UNL     1      32.226  10.463  42.700  1.00  0.00    -0.355 OA
HETATM   30  C1  UNL     1      33.074  11.573  43.002  1.00  0.00     0.210 C 
ENDBRANCH   1  29
BRANCH  25  31
HETATM   31  O3  UNL     1      32.543   8.373  48.134  1.00  0.00    -0.360 OA
HETATM   32  H20 UNL     1      32.504   8.813  49.044  1.00  0.00     0.217 HD
ENDBRANCH  25  31
TORSDOF 2
ENDMDL
MODEL 9
REMARK VINA RESULT:      -7.6      7.381     11.242
REMARK  2 active torsions:
REMARK  status: ('A' for Active; 'I' for Inactive)
REMARK    1  A    between atoms: O1_2  and  C2_3 
REMARK    2  A    between atoms: C21_27  and  O3_28 
ROOT
HETATM    1  C2  UNL     1      25.231   7.222  47.994  1.00  0.00     0.080 C 
HETATM    2  C3  UNL     1      24.635   8.345  47.527  1.00  0.00     0.057 C 
HETATM    3  C4  UNL     1      23.876   9.507  47.007  1.00  0.00     0.120 C 
HETATM    4  N1  UNL     1      24.325  10.676  46.805  1.00  0.00    -0.255 NA
HETATM    5  C5  UNL     1      23.726  11.786  46.343  1.00  0.00     0.226 C 
HETATM    6  N2  UNL     1      24.784  12.438  45.963  1.00  0.00    -0.279 NA
HETATM    7  C6  UNL     1      26.130  11.989  46.062  1.00  0.00     0.184 C 
HETATM    8  C7  UNL     1      27.054  12.893  46.756  1.00  0.00    -0.054 C 
HETATM    9  C8  UNL     1      27.895  13.830  46.284  1.00  0.00     0.007 C 
HETATM   10  C9  UNL     1      28.982  14.026  47.269  1.00  0.00     0.037 C 
HETATM   11  C10 UNL     1      28.756  13.211  48.283  1.00  0.00     0.159 C 
HETATM   12  C11 UNL     1      27.268  12.956  48.229  1.00  0.00     0.104 C 
HETATM   13  N3  UNL     1      29.494  12.555  49.341  1.00  0.00     0.151 N 
HETATM   14  C12 UNL     1      29.914  11.184  49.438  1.00  0.00     0.388 A 
HETATM   15  O2  UNL     1      29.298  11.439  48.350  1.00  0.00    -0.100 OA
HETATM   16  N4  UNL     1      30.520  10.024  50.022  1.00  0.00    -0.311 N 
HETATM   17  C13 UNL     1      30.375   8.885  49.133  1.00  0.00     0.049 A 
HETATM   18  C14 UNL     1      31.492   8.435  48.503  1.00  0.00     0.030 A 
HETATM   19  C15 UNL     1      31.308   7.437  47.569  1.00  0.00     0.003 A 
HETATM   20  C16 UNL     1      30.023   6.982  47.351  1.00  0.00     0.012 A 
HETATM   21  C17 UNL     1      28.915   7.468  48.015  1.00  0.00    -0.020 A 
HETATM   22  C18 UNL     1      27.721   6.909  47.628  1.00  0.00     0.026 A 
HETATM   23  C19 UNL     1      26.678   7.467  48.305  1.00  0.00     0.001 A 
HETATM   24  C20 UNL     1      26.751   8.455  49.268  1.00  0.00     0.051 A 
HETATM   25  C21 UNL     1      27.988   8.978  49.613  1.00  0.00     0.080 A 
HETATM   26  C22 UNL     1      29.076   8.459  48.950  1.00  0.00     0.034 A 
HETATM   27  H13 UNL     1      29.660  13.325  50.042  1.00  0.00     0.337 HD
HETATM   28  H14 UNL     1      30.780  10.601  50.846  1.00  0.00     0.169 HD
ENDROOT
BRANCH   1  29
HETATM   29  O1  UNL     1      24.004   6.619  47.838  1.00  0.00    -0.355 OA
HETATM   30  C1  UNL     1      23.796   5.414  48.576  1.00  0.00     0.210 C 
ENDBRANCH   1  29
BRANCH  25  31
HETATM   31  O3  UNL     1      27.910   9.957  50.594  1.00  0.00    -0.360 OA
HETATM   32  H20 UNL     1      28.695  10.173  51.194  1.00  0.00     0.217 HD
ENDBRANCH  25  31
TORSDOF 2
ENDMDL
