MODEL 1
REMARK VINA RESULT:      -7.8      0.000      0.000
REMARK  5 active torsions:
REMARK  status: ('A' for Active; 'I' for Inactive)
REMARK    1  A    between atoms: C3_3  and  O1_4 
REMARK    2  A    between atoms: C4_5  and  C5_6 
REMARK    3  A    between atoms: C6_7  and  C7_8 
REMARK    4  A    between atoms: C7_8  and  C8_9 
REMARK    5  A    between atoms: C12_13  and  O2_14 
ROOT
HETATM    1  C5  UNL     1      26.405   3.816  49.376  1.00  0.00     0.011 C 
HETATM    2  C6  UNL     1      26.807   2.881  50.182  1.00  0.00    -0.022 C 
ENDROOT
BRANCH   2   3
HETATM    3  C7  UNL     1      26.560   2.531  51.581  1.00  0.00     0.055 C 
BRANCH   3   4
HETATM    4  C8  UNL     1      26.225   1.058  51.643  1.00  0.00    -0.009 C 
HETATM    5  C9  UNL     1      26.486   0.148  52.587  1.00  0.00    -0.020 C 
HETATM    6  C10 UNL     1      26.134  -1.264  52.585  1.00  0.00     0.077 C 
HETATM    7  S1  UNL     1      27.375   0.702  54.049  1.00  0.00    -0.108 SA
HETATM    8  C11 UNL     1      27.223  -2.191  52.914  1.00  0.00     0.042 C 
HETATM    9  C12 UNL     1      28.521  -2.186  53.149  1.00  0.00     0.175 C 
HETATM   10  O3  UNL     1      29.253  -1.006  53.112  1.00  0.00    -0.320 OA
HETATM   11  C13 UNL     1      29.071   0.187  53.776  1.00  0.00     0.257 C 
BRANCH   9  12
HETATM   12  O2  UNL     1      29.073  -3.453  53.430  1.00  0.00    -0.341 OA
HETATM   13  H13 UNL     1      29.979  -3.728  53.126  1.00  0.00     0.220 HD
ENDBRANCH   9  12
ENDBRANCH   3   4
ENDBRANCH   2   3
BRANCH   1  14
HETATM   14  C4  UNL     1      25.489   4.908  49.672  1.00  0.00     0.010 C 
HETATM   15  C3  UNL     1      26.021   6.283  49.799  1.00  0.00     0.105 C 
HETATM   16  C2  UNL     1      25.544   7.392  50.338  1.00  0.00     0.076 C 
HETATM   17  C1  UNL     1      26.480   8.560  50.215  1.00  0.00     0.079 C 
HETATM   18  O4  UNL     1      24.314   7.528  50.968  1.00  0.00    -0.349 OA
HETATM   19  C16 UNL     1      23.155   6.762  50.696  1.00  0.00     0.203 C 
HETATM   20  C15 UNL     1      23.510   5.320  50.779  1.00  0.00     0.013 C 
HETATM   21  C14 UNL     1      24.194   4.733  49.833  1.00  0.00    -0.014 C 
BRANCH  15  22
HETATM   22  O1  UNL     1      27.300   6.407  49.219  1.00  0.00    -0.357 OA
HETATM   23  H4  UNL     1      27.467   7.298  48.761  1.00  0.00     0.217 HD
ENDBRANCH  15  22
ENDBRANCH   1  14
TORSDOF 5
ENDMDL
MODEL 2
REMARK VINA RESULT:      -7.6      1.548      2.022
REMARK  5 active torsions:
REMARK  status: ('A' for Active; 'I' for Inactive)
REMARK    1  A    between atoms: C3_3  and  O1_4 
REMARK    2  A    between atoms: C4_5  and  C5_6 
REMARK    3  A    between atoms: C6_7  and  C7_8 
REMARK    4  A    between atoms: C7_8  and  C8_9 
REMARK    5  A    between atoms: C12_13  and  O2_14 
ROOT
HETATM    1  C5  UNL     1      25.439   3.513  49.544  1.00  0.00     0.011 C 
HETATM    2  C6  UNL     1      26.488   3.008  50.118  1.00  0.00    -0.022 C 
ENDROOT
BRANCH   2   3
HETATM    3  C7  UNL     1      26.813   2.530  51.463  1.00  0.00     0.055 C 
BRANCH   3   4
HETATM    4  C8  UNL     1      26.432   1.069  51.544  1.00  0.00    -0.009 C 
HETATM    5  C9  UNL     1      26.643   0.170  52.510  1.00  0.00    -0.020 C 
HETATM    6  C10 UNL     1      26.248  -1.230  52.527  1.00  0.00     0.077 C 
HETATM    7  S1  UNL     1      27.517   0.724  53.981  1.00  0.00    -0.108 SA
HETATM    8  C11 UNL     1      27.299  -2.185  52.898  1.00  0.00     0.042 C 
HETATM    9  C12 UNL     1      28.592  -2.215  53.161  1.00  0.00     0.175 C 
HETATM   10  O3  UNL     1      29.361  -1.058  53.119  1.00  0.00    -0.320 OA
HETATM   11  C13 UNL     1      29.202   0.152  53.755  1.00  0.00     0.257 C 
BRANCH   9  12
HETATM   12  O2  UNL     1      29.098  -3.492  53.478  1.00  0.00    -0.341 OA
HETATM   13  H13 UNL     1      28.698  -4.334  53.131  1.00  0.00     0.220 HD
ENDBRANCH   9  12
ENDBRANCH   3   4
ENDBRANCH   2   3
BRANCH   1  14
HETATM   14  C4  UNL     1      24.140   3.779  50.146  1.00  0.00     0.010 C 
HETATM   15  C3  UNL     1      23.672   5.178  50.267  1.00  0.00     0.105 C 
HETATM   16  C2  UNL     1      22.739   5.760  51.001  1.00  0.00     0.076 C 
HETATM   17  C1  UNL     1      22.640   7.240  50.766  1.00  0.00     0.079 C 
HETATM   18  O4  UNL     1      21.907   5.126  51.914  1.00  0.00    -0.349 OA
HETATM   19  C16 UNL     1      21.493   3.773  51.856  1.00  0.00     0.203 C 
HETATM   20  C15 UNL     1      22.699   2.913  51.722  1.00  0.00     0.013 C 
HETATM   21  C14 UNL     1      23.349   2.826  50.592  1.00  0.00    -0.014 C 
BRANCH  15  22
HETATM   22  O1  UNL     1      24.385   6.045  49.414  1.00  0.00    -0.357 OA
HETATM   23  H4  UNL     1      23.828   6.445  48.664  1.00  0.00     0.217 HD
ENDBRANCH  15  22
ENDBRANCH   1  14
TORSDOF 5
ENDMDL
MODEL 3
REMARK VINA RESULT:      -7.5      2.682      7.403
REMARK  5 active torsions:
REMARK  status: ('A' for Active; 'I' for Inactive)
REMARK    1  A    between atoms: C3_3  and  O1_4 
REMARK    2  A    between atoms: C4_5  and  C5_6 
REMARK    3  A    between atoms: C6_7  and  C7_8 
REMARK    4  A    between atoms: C7_8  and  C8_9 
REMARK    5  A    between atoms: C12_13  and  O2_14 
ROOT
HETATM    1  C5  UNL     1      24.454  -0.531  54.064  1.00  0.00     0.011 C 
HETATM    2  C6  UNL     1      23.304  -0.531  53.463  1.00  0.00    -0.022 C 
ENDROOT
BRANCH   2   3
HETATM    3  C7  UNL     1      22.754   0.100  52.262  1.00  0.00     0.055 C 
BRANCH   3   4
HETATM    4  C8  UNL     1      22.230   1.464  52.649  1.00  0.00    -0.009 C 
HETATM    5  C9  UNL     1      22.222   2.615  51.969  1.00  0.00    -0.020 C 
HETATM    6  C10 UNL     1      21.698   3.902  52.401  1.00  0.00     0.077 C 
HETATM    7  S1  UNL     1      22.933   2.607  50.318  1.00  0.00    -0.108 SA
HETATM    8  C11 UNL     1      22.595   5.049  52.216  1.00  0.00     0.042 C 
HETATM    9  C12 UNL     1      23.831   5.317  51.839  1.00  0.00     0.175 C 
HETATM   10  O3  UNL     1      24.704   4.303  51.463  1.00  0.00    -0.320 OA
HETATM   11  C13 UNL     1      24.573   3.307  50.522  1.00  0.00     0.257 C 
BRANCH   9  12
HETATM   12  O2  UNL     1      24.167   6.686  51.856  1.00  0.00    -0.341 OA
HETATM   13  H13 UNL     1      24.605   7.127  52.632  1.00  0.00     0.220 HD
ENDBRANCH   9  12
ENDBRANCH   3   4
ENDBRANCH   2   3
BRANCH   1  14
HETATM   14  C4  UNL     1      25.662   0.179  53.668  1.00  0.00     0.010 C 
HETATM   15  C3  UNL     1      26.929  -0.573  53.526  1.00  0.00     0.105 C 
HETATM   16  C2  UNL     1      28.199  -0.208  53.490  1.00  0.00     0.076 C 
HETATM   17  C1  UNL     1      29.143  -1.365  53.330  1.00  0.00     0.079 C 
HETATM   18  O4  UNL     1      28.676   1.093  53.586  1.00  0.00    -0.349 OA
HETATM   19  C16 UNL     1      27.979   2.261  53.193  1.00  0.00     0.203 C 
HETATM   20  C15 UNL     1      26.642   2.257  53.844  1.00  0.00     0.013 C 
HETATM   21  C14 UNL     1      25.685   1.473  53.425  1.00  0.00    -0.014 C 
BRANCH  15  22
HETATM   22  O1  UNL     1      26.706  -1.960  53.410  1.00  0.00    -0.357 OA
HETATM   23  H4  UNL     1      26.060  -2.339  54.097  1.00  0.00     0.217 HD
ENDBRANCH  15  22
ENDBRANCH   1  14
TORSDOF 5
ENDMDL
MODEL 4
REMARK VINA RESULT:      -7.5      3.867      4.655
REMARK  5 active torsions:
REMARK  status: ('A' for Active; 'I' for Inactive)
REMARK    1  A    between atoms: C3_3  and  O1_4 
REMARK    2  A    between atoms: C4_5  and  C5_6 
REMARK    3  A    between atoms: C6_7  and  C7_8 
REMARK    4  A    between atoms: C7_8  and  C8_9 
REMARK    5  A    between atoms: C12_13  and  O2_14 
ROOT
HETATM    1  C5  UNL     1      26.528   2.680  50.551  1.00  0.00     0.011 C 
HETATM    2  C6  UNL     1      26.187   2.264  51.732  1.00  0.00    -0.022 C 
ENDROOT
BRANCH   2   3
HETATM    3  C7  UNL     1      25.083   2.534  52.654  1.00  0.00     0.055 C 
BRANCH   3   4
HETATM    4  C8  UNL     1      24.561   1.207  53.158  1.00  0.00    -0.009 C 
HETATM    5  C9  UNL     1      23.498   0.492  52.776  1.00  0.00    -0.020 C 
HETATM    6  C10 UNL     1      23.047  -0.786  53.306  1.00  0.00     0.077 C 
HETATM    7  S1  UNL     1      22.484   1.158  51.449  1.00  0.00    -0.108 SA
HETATM    8  C11 UNL     1      21.623  -0.866  53.650  1.00  0.00     0.042 C 
HETATM    9  C12 UNL     1      20.555  -0.095  53.724  1.00  0.00     0.175 C 
HETATM   10  O3  UNL     1      20.621   1.257  53.409  1.00  0.00    -0.320 OA
HETATM   11  C13 UNL     1      21.074   1.896  52.277  1.00  0.00     0.257 C 
BRANCH   9  12
HETATM   12  O2  UNL     1      19.380  -0.756  54.139  1.00  0.00    -0.341 OA
HETATM   13  H13 UNL     1      18.481  -0.333  54.105  1.00  0.00     0.220 HD
ENDBRANCH   9  12
ENDBRANCH   3   4
ENDBRANCH   2   3
BRANCH   1  14
HETATM   14  C4  UNL     1      25.830   3.644  49.713  1.00  0.00     0.010 C 
HETATM   15  C3  UNL     1      26.541   4.862  49.265  1.00  0.00     0.105 C 
HETATM   16  C2  UNL     1      26.132   6.025  48.786  1.00  0.00     0.076 C 
HETATM   17  C1  UNL     1      27.260   6.965  48.471  1.00  0.00     0.079 C 
HETATM   18  O4  UNL     1      24.812   6.400  48.574  1.00  0.00    -0.349 OA
HETATM   19  C16 UNL     1      23.737   5.523  48.290  1.00  0.00     0.203 C 
HETATM   20  C15 UNL     1      23.708   4.457  49.327  1.00  0.00     0.013 C 
HETATM   21  C14 UNL     1      24.581   3.485  49.327  1.00  0.00    -0.014 C 
BRANCH  15  22
HETATM   22  O1  UNL     1      27.939   4.728  49.387  1.00  0.00    -0.357 OA
HETATM   23  H4  UNL     1      28.330   5.165  50.217  1.00  0.00     0.217 HD
ENDBRANCH  15  22
ENDBRANCH   1  14
TORSDOF 5
ENDMDL
MODEL 5
REMARK VINA RESULT:      -7.4      4.056      6.905
REMARK  5 active torsions:
REMARK  status: ('A' for Active; 'I' for Inactive)
REMARK    1  A    between atoms: C3_3  and  O1_4 
REMARK    2  A    between atoms: C4_5  and  C5_6 
REMARK    3  A    between atoms: C6_7  and  C7_8 
REMARK    4  A    between atoms: C7_8  and  C8_9 
REMARK    5  A    between atoms: C12_13  and  O2_14 
ROOT
HETATM    1  C5  UNL     1      26.423   2.480  51.397  1.00  0.00     0.011 C 
HETATM    2  C6  UNL     1      25.238   2.945  51.649  1.00  0.00    -0.022 C 
ENDROOT
BRANCH   2   3
HETATM    3  C7  UNL     1      24.340   2.944  52.805  1.00  0.00     0.055 C 
BRANCH   3   4
HETATM    4  C8  UNL     1      24.128   1.508  53.231  1.00  0.00    -0.009 C 
HETATM    5  C9  UNL     1      23.233   0.605  52.821  1.00  0.00    -0.020 C 
HETATM    6  C10 UNL     1      23.082  -0.769  53.274  1.00  0.00     0.077 C 
HETATM    7  S1  UNL     1      22.061   1.114  51.556  1.00  0.00    -0.108 SA
HETATM    8  C11 UNL     1      21.718  -1.174  53.636  1.00  0.00     0.042 C 
HETATM    9  C12 UNL     1      20.513  -0.657  53.776  1.00  0.00     0.175 C 
HETATM   10  O3  UNL     1      20.279   0.693  53.548  1.00  0.00    -0.320 OA
HETATM   11  C13 UNL     1      20.551   1.481  52.452  1.00  0.00     0.257 C 
BRANCH   9  12
HETATM   12  O2  UNL     1      19.519  -1.579  54.167  1.00  0.00    -0.341 OA
HETATM   13  H13 UNL     1      19.179  -2.295  53.566  1.00  0.00     0.220 HD
ENDBRANCH   9  12
ENDBRANCH   3   4
ENDBRANCH   2   3
BRANCH   1  14
HETATM   14  C4  UNL     1      27.294   1.737  52.297  1.00  0.00     0.010 C 
HETATM   15  C3  UNL     1      27.168   0.265  52.374  1.00  0.00     0.105 C 
HETATM   16  C2  UNL     1      27.562  -0.632  53.262  1.00  0.00     0.076 C 
HETATM   17  C1  UNL     1      27.189  -2.038  52.888  1.00  0.00     0.079 C 
HETATM   18  O4  UNL     1      28.252  -0.366  54.438  1.00  0.00    -0.349 OA
HETATM   19  C16 UNL     1      29.122   0.730  54.658  1.00  0.00     0.203 C 
HETATM   20  C15 UNL     1      28.405   1.983  54.301  1.00  0.00     0.013 C 
HETATM   21  C14 UNL     1      28.202   2.318  53.055  1.00  0.00    -0.014 C 
BRANCH  15  22
HETATM   22  O1  UNL     1      26.483  -0.262  51.261  1.00  0.00    -0.357 OA
HETATM   23  H4  UNL     1      25.731  -0.904  51.499  1.00  0.00     0.217 HD
ENDBRANCH  15  22
ENDBRANCH   1  14
TORSDOF 5
ENDMDL
MODEL 6
REMARK VINA RESULT:      -7.4      1.842      2.250
REMARK  5 active torsions:
REMARK  status: ('A' for Active; 'I' for Inactive)
REMARK    1  A    between atoms: C3_3  and  O1_4 
REMARK    2  A    between atoms: C4_5  and  C5_6 
REMARK    3  A    between atoms: C6_7  and  C7_8 
REMARK    4  A    between atoms: C7_8  and  C8_9 
REMARK    5  A    between atoms: C12_13  and  O2_14 
ROOT
HETATM    1  C5  UNL     1      23.733   3.522  52.496  1.00  0.00     0.011 C 
HETATM    2  C6  UNL     1      24.715   2.849  53.013  1.00  0.00    -0.022 C 
ENDROOT
BRANCH   2   3
HETATM    3  C7  UNL     1      26.067   2.484  52.589  1.00  0.00     0.055 C 
BRANCH   3   4
HETATM    4  C8  UNL     1      26.041   1.042  52.133  1.00  0.00    -0.009 C 
HETATM    5  C9  UNL     1      26.215  -0.089  52.822  1.00  0.00    -0.020 C 
HETATM    6  C10 UNL     1      26.178  -1.454  52.320  1.00  0.00     0.077 C 
HETATM    7  S1  UNL     1      26.536   0.056  54.586  1.00  0.00    -0.108 SA
HETATM    8  C11 UNL     1      27.302  -2.310  52.716  1.00  0.00     0.042 C 
HETATM    9  C12 UNL     1      28.456  -2.235  53.351  1.00  0.00     0.175 C 
HETATM   10  O3  UNL     1      28.910  -1.033  53.879  1.00  0.00    -0.320 OA
HETATM   11  C13 UNL     1      28.310  -0.149  54.748  1.00  0.00     0.257 C 
BRANCH   9  12
HETATM   12  O2  UNL     1      29.159  -3.454  53.437  1.00  0.00    -0.341 OA
HETATM   13  H13 UNL     1      28.884  -4.197  54.039  1.00  0.00     0.220 HD
ENDBRANCH   9  12
ENDBRANCH   3   4
ENDBRANCH   2   3
BRANCH   1  14
HETATM   14  C4  UNL     1      23.694   4.178  51.197  1.00  0.00     0.010 C 
HETATM   15  C3  UNL     1      23.726   5.656  51.133  1.00  0.00     0.105 C 
HETATM   16  C2  UNL     1      23.408   6.528  50.191  1.00  0.00     0.076 C 
HETATM   17  C1  UNL     1      23.617   7.955  50.611  1.00  0.00     0.079 C 
HETATM   18  O4  UNL     1      22.926   6.221  48.926  1.00  0.00    -0.349 OA
HETATM   19  C16 UNL     1      23.188   5.030  48.206  1.00  0.00     0.203 C 
HETATM   20  C15 UNL     1      22.854   3.869  49.073  1.00  0.00     0.013 C 
HETATM   21  C14 UNL     1      23.631   3.514  50.062  1.00  0.00    -0.014 C 
BRANCH  15  22
HETATM   22  O1  UNL     1      24.194   6.224  52.335  1.00  0.00    -0.357 OA
HETATM   23  H4  UNL     1      24.165   7.239  52.356  1.00  0.00     0.217 HD
ENDBRANCH  15  22
ENDBRANCH   1  14
TORSDOF 5
ENDMDL
MODEL 7
REMARK VINA RESULT:      -7.4      3.666      4.839
REMARK  5 active torsions:
REMARK  status: ('A' for Active; 'I' for Inactive)
REMARK    1  A    between atoms: C3_3  and  O1_4 
REMARK    2  A    between atoms: C4_5  and  C5_6 
REMARK    3  A    between atoms: C6_7  and  C7_8 
REMARK    4  A    between atoms: C7_8  and  C8_9 
REMARK    5  A    between atoms: C12_13  and  O2_14 
ROOT
HETATM    1  C5  UNL     1      21.144   0.198  51.689  1.00  0.00     0.011 C 
HETATM    2  C6  UNL     1      21.950  -0.323  52.562  1.00  0.00    -0.022 C 
ENDROOT
BRANCH   2   3
HETATM    3  C7  UNL     1      22.990   0.186  53.458  1.00  0.00     0.055 C 
BRANCH   3   4
HETATM    4  C8  UNL     1      23.967   0.991  52.630  1.00  0.00    -0.009 C 
HETATM    5  C9  UNL     1      25.283   0.842  52.455  1.00  0.00    -0.020 C 
HETATM    6  C10 UNL     1      26.172   1.657  51.640  1.00  0.00     0.077 C 
HETATM    7  S1  UNL     1      26.085  -0.519  53.314  1.00  0.00    -0.108 SA
HETATM    8  C11 UNL     1      27.403   2.110  52.298  1.00  0.00     0.042 C 
HETATM    9  C12 UNL     1      27.980   2.097  53.484  1.00  0.00     0.175 C 
HETATM   10  O3  UNL     1      27.362   1.505  54.578  1.00  0.00    -0.320 OA
HETATM   11  C13 UNL     1      26.857   0.235  54.748  1.00  0.00     0.257 C 
BRANCH   9  12
HETATM   12  O2  UNL     1      29.243   2.723  53.530  1.00  0.00    -0.341 OA
HETATM   13  H13 UNL     1      29.512   3.348  54.255  1.00  0.00     0.220 HD
ENDBRANCH   9  12
ENDBRANCH   3   4
ENDBRANCH   2   3
BRANCH   1  14
HETATM   14  C4  UNL     1      21.032   1.600  51.310  1.00  0.00     0.010 C 
HETATM   15  C3  UNL     1      21.646   2.056  50.043  1.00  0.00     0.105 C 
HETATM   16  C2  UNL     1      21.982   3.248  49.578  1.00  0.00     0.076 C 
HETATM   17  C1  UNL     1      22.590   3.197  48.205  1.00  0.00     0.079 C 
HETATM   18  O4  UNL     1      21.818   4.457  50.241  1.00  0.00    -0.349 OA
HETATM   19  C16 UNL     1      20.825   4.743  51.209  1.00  0.00     0.203 C 
HETATM   20  C15 UNL     1      20.873   3.692  52.262  1.00  0.00     0.013 C 
HETATM   21  C14 UNL     1      20.404   2.493  52.046  1.00  0.00    -0.014 C 
BRANCH  15  22
HETATM   22  O1  UNL     1      21.917   0.980  49.173  1.00  0.00    -0.357 OA
HETATM   23  H4  UNL     1      22.876   0.946  48.839  1.00  0.00     0.217 HD
ENDBRANCH  15  22
ENDBRANCH   1  14
TORSDOF 5
ENDMDL
MODEL 8
REMARK VINA RESULT:      -7.1      4.229      7.217
REMARK  5 active torsions:
REMARK  status: ('A' for Active; 'I' for Inactive)
REMARK    1  A    between atoms: C3_3  and  O1_4 
REMARK    2  A    between atoms: C4_5  and  C5_6 
REMARK    3  A    between atoms: C6_7  and  C7_8 
REMARK    4  A    between atoms: C7_8  and  C8_9 
REMARK    5  A    between atoms: C12_13  and  O2_14 
ROOT
HETATM    1  C5  UNL     1      24.757   2.747  53.458  1.00  0.00     0.011 C 
HETATM    2  C6  UNL     1      24.316   3.394  52.423  1.00  0.00    -0.022 C 
ENDROOT
BRANCH   2   3
HETATM    3  C7  UNL     1      24.387   3.215  50.972  1.00  0.00     0.055 C 
BRANCH   3   4
HETATM    4  C8  UNL     1      23.516   2.035  50.604  1.00  0.00    -0.009 C 
HETATM    5  C9  UNL     1      22.194   1.957  50.422  1.00  0.00    -0.020 C 
HETATM    6  C10 UNL     1      21.412   0.783  50.065  1.00  0.00     0.077 C 
HETATM    7  S1  UNL     1      21.237   3.464  50.632  1.00  0.00    -0.108 SA
HETATM    8  C11 UNL     1      20.225   0.534  50.891  1.00  0.00     0.042 C 
HETATM    9  C12 UNL     1      19.628   0.999  51.972  1.00  0.00     0.175 C 
HETATM   10  O3  UNL     1      20.161   2.067  52.684  1.00  0.00    -0.320 OA
HETATM   11  C13 UNL     1      20.525   3.329  52.273  1.00  0.00     0.257 C 
BRANCH   9  12
HETATM   12  O2  UNL     1      18.438   0.328  52.322  1.00  0.00    -0.341 OA
HETATM   13  H13 UNL     1      17.607   0.804  52.588  1.00  0.00     0.220 HD
ENDBRANCH   9  12
ENDBRANCH   3   4
ENDBRANCH   2   3
BRANCH   1  14
HETATM   14  C4  UNL     1      25.538   1.518  53.470  1.00  0.00     0.010 C 
HETATM   15  C3  UNL     1      27.007   1.597  53.627  1.00  0.00     0.105 C 
HETATM   16  C2  UNL     1      27.991   0.748  53.380  1.00  0.00     0.076 C 
HETATM   17  C1  UNL     1      29.347   1.302  53.710  1.00  0.00     0.079 C 
HETATM   18  O4  UNL     1      27.850  -0.535  52.869  1.00  0.00    -0.349 OA
HETATM   19  C16 UNL     1      26.717  -1.371  53.028  1.00  0.00     0.203 C 
HETATM   20  C15 UNL     1      25.509  -0.616  52.601  1.00  0.00     0.013 C 
HETATM   21  C14 UNL     1      24.995   0.324  53.349  1.00  0.00    -0.014 C 
BRANCH  15  22
HETATM   22  O1  UNL     1      27.414   2.844  54.145  1.00  0.00    -0.357 OA
HETATM   23  H4  UNL     1      27.331   2.923  55.154  1.00  0.00     0.217 HD
ENDBRANCH  15  22
ENDBRANCH   1  14
TORSDOF 5
ENDMDL
MODEL 9
REMARK VINA RESULT:      -6.9      3.282      7.776
REMARK  5 active torsions:
REMARK  status: ('A' for Active; 'I' for Inactive)
REMARK    1  A    between atoms: C3_3  and  O1_4 
REMARK    2  A    between atoms: C4_5  and  C5_6 
REMARK    3  A    between atoms: C6_7  and  C7_8 
REMARK    4  A    between atoms: C7_8  and  C8_9 
REMARK    5  A    between atoms: C12_13  and  O2_14 
ROOT
HETATM    1  C5  UNL     1      26.626   3.191  50.077  1.00  0.00     0.011 C 
HETATM    2  C6  UNL     1      26.321   4.189  49.305  1.00  0.00    -0.022 C 
ENDROOT
BRANCH   2   3
HETATM    3  C7  UNL     1      25.179   5.094  49.171  1.00  0.00     0.055 C 
BRANCH   3   4
HETATM    4  C8  UNL     1      25.493   6.358  49.940  1.00  0.00    -0.009 C 
HETATM    5  C9  UNL     1      25.978   7.531  49.520  1.00  0.00    -0.020 C 
HETATM    6  C10 UNL     1      26.259   8.716  50.316  1.00  0.00     0.077 C 
HETATM    7  S1  UNL     1      26.337   7.699  47.766  1.00  0.00    -0.108 SA
HETATM    8  C11 UNL     1      27.579   9.322  50.111  1.00  0.00     0.042 C 
HETATM    9  C12 UNL     1      28.708   9.097  49.465  1.00  0.00     0.175 C 
HETATM   10  O3  UNL     1      28.871   7.965  48.677  1.00  0.00    -0.320 OA
HETATM   11  C13 UNL     1      28.112   7.475  47.638  1.00  0.00     0.257 C 
BRANCH   9  12
HETATM   12  O2  UNL     1      29.697  10.085  49.648  1.00  0.00    -0.341 OA
HETATM   13  H13 UNL     1      29.745  10.660  50.458  1.00  0.00     0.220 HD
ENDBRANCH   9  12
ENDBRANCH   3   4
ENDBRANCH   2   3
BRANCH   1  14
HETATM   14  C4  UNL     1      25.824   2.624  51.153  1.00  0.00     0.010 C 
HETATM   15  C3  UNL     1      26.502   2.070  52.345  1.00  0.00     0.105 C 
HETATM   16  C2  UNL     1      26.116   1.247  53.306  1.00  0.00     0.076 C 
HETATM   17  C1  UNL     1      27.191   0.975  54.319  1.00  0.00     0.079 C 
HETATM   18  O4  UNL     1      24.863   0.661  53.421  1.00  0.00    -0.349 OA
HETATM   19  C16 UNL     1      23.648   1.200  52.932  1.00  0.00     0.203 C 
HETATM   20  C15 UNL     1      23.822   1.534  51.493  1.00  0.00     0.013 C 
HETATM   21  C14 UNL     1      24.508   2.580  51.117  1.00  0.00    -0.014 C 
BRANCH  15  22
HETATM   22  O1  UNL     1      27.831   2.530  52.455  1.00  0.00    -0.357 OA
HETATM   23  H4  UNL     1      27.916   3.480  52.806  1.00  0.00     0.217 HD
ENDBRANCH  15  22
ENDBRANCH   1  14
TORSDOF 5
ENDMDL
