MODEL 1
REMARK VINA RESULT:      -8.6      0.000      0.000
REMARK  0 active torsions:
REMARK  status: ('A' for Active; 'I' for Inactive)
ROOT
HETATM    1  C1  UNL     1      23.242   4.178  52.471  1.00  0.00     0.042 C 
HETATM    2  C2  UNL     1      24.521   3.351  52.240  1.00  0.00     0.155 C 
HETATM    3  C3  UNL     1      24.144   2.122  51.389  1.00  0.00     0.104 C 
HETATM    4  C4  UNL     1      23.296   2.455  50.255  1.00  0.00     0.096 C 
HETATM    5  F1  UNL     1      23.868   3.373  49.498  1.00  0.00    -0.211 F 
HETATM    6  C5  UNL     1      22.130   1.864  50.097  1.00  0.00     0.037 C 
HETATM    7  C6  UNL     1      21.121   0.933  50.512  1.00  0.00    -0.001 C 
HETATM    8  C7  UNL     1      21.021   0.071  51.541  1.00  0.00    -0.020 C 
HETATM    9  C8  UNL     1      21.330  -0.705  52.769  1.00  0.00     0.033 C 
HETATM   10  C9  UNL     1      21.848  -1.242  53.848  1.00  0.00     0.076 C 
HETATM   11  C10 UNL     1      23.053  -1.052  54.499  1.00  0.00    -0.169 C 
HETATM   12  C11 UNL     1      24.078  -0.880  55.032  1.00  0.00     0.018 C 
HETATM   13  C12 UNL     1      25.304  -0.656  55.653  1.00  0.00     0.066 C 
HETATM   14  C13 UNL     1      26.409  -0.212  54.947  1.00  0.00     0.013 C 
HETATM   15  C14 UNL     1      26.854   0.179  53.540  1.00  0.00     0.170 C 
HETATM   16  S1  UNL     1      27.315   1.884  53.438  1.00  0.00     0.249 S 
HETATM   17  O1  UNL     1      28.521   2.152  54.278  1.00  0.00    -0.204 OA
HETATM   18  O2  UNL     1      27.622   2.216  52.016  1.00  0.00    -0.204 OA
HETATM   19  N1  UNL     1      26.031   2.895  53.979  1.00  0.00    -0.192 N 
HETATM   20  O3  UNL     1      24.923   2.862  53.415  1.00  0.00    -0.265 OA
HETATM   21  H16 UNL     1      26.190   3.315  54.912  1.00  0.00     0.207 HD
ENDROOT
TORSDOF 0
ENDMDL
MODEL 2
REMARK VINA RESULT:      -7.8      3.755      5.316
REMARK  0 active torsions:
REMARK  status: ('A' for Active; 'I' for Inactive)
ROOT
HETATM    1  C1  UNL     1      22.281   1.802  48.030  1.00  0.00     0.042 C 
HETATM    2  C2  UNL     1      21.657   2.057  49.416  1.00  0.00     0.155 C 
HETATM    3  C3  UNL     1      22.510   3.123  50.131  1.00  0.00     0.104 C 
HETATM    4  C4  UNL     1      22.838   4.255  49.278  1.00  0.00     0.096 C 
HETATM    5  F1  UNL     1      21.740   4.804  48.790  1.00  0.00    -0.211 F 
HETATM    6  C5  UNL     1      24.092   4.603  49.082  1.00  0.00     0.037 C 
HETATM    7  C6  UNL     1      25.499   4.428  49.301  1.00  0.00    -0.001 C 
HETATM    8  C7  UNL     1      26.223   3.564  50.036  1.00  0.00    -0.020 C 
HETATM    9  C8  UNL     1      26.597   2.455  50.952  1.00  0.00     0.033 C 
HETATM   10  C9  UNL     1      26.644   1.438  51.778  1.00  0.00     0.076 C 
HETATM   11  C10 UNL     1      25.658   0.666  52.366  1.00  0.00    -0.169 C 
HETATM   12  C11 UNL     1      24.811   0.029  52.857  1.00  0.00     0.018 C 
HETATM   13  C12 UNL     1      23.785  -0.719  53.428  1.00  0.00     0.066 C 
HETATM   14  C13 UNL     1      22.523  -0.188  53.635  1.00  0.00     0.013 C 
HETATM   15  C14 UNL     1      21.718   1.096  53.449  1.00  0.00     0.170 C 
HETATM   16  S1  UNL     1      20.380   0.883  52.312  1.00  0.00     0.249 S 
HETATM   17  O1  UNL     1      19.381  -0.087  52.854  1.00  0.00    -0.204 OA
HETATM   18  O2  UNL     1      19.718   2.202  52.094  1.00  0.00    -0.204 OA
HETATM   19  N1  UNL     1      20.955   0.294  50.799  1.00  0.00    -0.192 N 
HETATM   20  O3  UNL     1      21.788   0.946  50.146  1.00  0.00    -0.265 OA
HETATM   21  H16 UNL     1      20.741  -0.705  50.627  1.00  0.00     0.207 HD
ENDROOT
TORSDOF 0
ENDMDL
MODEL 3
REMARK VINA RESULT:      -7.5      3.391      4.815
REMARK  0 active torsions:
REMARK  status: ('A' for Active; 'I' for Inactive)
ROOT
HETATM    1  C1  UNL     1      20.964   1.198  50.369  1.00  0.00     0.042 C 
HETATM    2  C2  UNL     1      21.266   1.027  51.871  1.00  0.00     0.155 C 
HETATM    3  C3  UNL     1      22.033   2.277  52.346  1.00  0.00     0.104 C 
HETATM    4  C4  UNL     1      21.441   3.520  51.875  1.00  0.00     0.096 C 
HETATM    5  F1  UNL     1      20.174   3.600  52.238  1.00  0.00    -0.211 F 
HETATM    6  C5  UNL     1      22.158   4.382  51.185  1.00  0.00     0.037 C 
HETATM    7  C6  UNL     1      23.387   4.797  50.574  1.00  0.00    -0.001 C 
HETATM    8  C7  UNL     1      24.615   4.251  50.496  1.00  0.00    -0.020 C 
HETATM    9  C8  UNL     1      25.760   3.319  50.661  1.00  0.00     0.033 C 
HETATM   10  C9  UNL     1      26.583   2.340  50.954  1.00  0.00     0.076 C 
HETATM   11  C10 UNL     1      26.422   1.171  51.675  1.00  0.00    -0.169 C 
HETATM   12  C11 UNL     1      26.268   0.190  52.292  1.00  0.00     0.018 C 
HETATM   13  C12 UNL     1      26.060  -0.974  53.027  1.00  0.00     0.066 C 
HETATM   14  C13 UNL     1      25.096  -1.048  54.018  1.00  0.00     0.013 C 
HETATM   15  C14 UNL     1      24.022  -0.213  54.710  1.00  0.00     0.170 C 
HETATM   16  S1  UNL     1      22.398  -0.857  54.433  1.00  0.00     0.249 S 
HETATM   17  O1  UNL     1      22.255  -2.206  55.059  1.00  0.00    -0.204 OA
HETATM   18  O2  UNL     1      21.401   0.074  55.038  1.00  0.00    -0.204 OA
HETATM   19  N1  UNL     1      22.077  -0.995  52.746  1.00  0.00    -0.192 N 
HETATM   20  O3  UNL     1      22.118   0.009  52.014  1.00  0.00    -0.265 OA
HETATM   21  H16 UNL     1      22.096  -1.968  52.392  1.00  0.00     0.207 HD
ENDROOT
TORSDOF 0
ENDMDL
MODEL 4
REMARK VINA RESULT:      -7.2      1.955      2.839
REMARK  0 active torsions:
REMARK  status: ('A' for Active; 'I' for Inactive)
ROOT
HETATM    1  C1  UNL     1      21.698   3.494  52.767  1.00  0.00     0.042 C 
HETATM    2  C2  UNL     1      22.756   2.997  51.762  1.00  0.00     0.155 C 
HETATM    3  C3  UNL     1      22.559   1.480  51.576  1.00  0.00     0.104 C 
HETATM    4  C4  UNL     1      21.166   1.106  51.387  1.00  0.00     0.096 C 
HETATM    5  F1  UNL     1      20.642   1.760  50.366  1.00  0.00    -0.211 F 
HETATM    6  C5  UNL     1      20.596   0.226  52.184  1.00  0.00     0.037 C 
HETATM    7  C6  UNL     1      20.635  -0.685  53.290  1.00  0.00    -0.001 C 
HETATM    8  C7  UNL     1      21.602  -1.062  54.148  1.00  0.00    -0.020 C 
HETATM    9  C8  UNL     1      22.914  -1.179  54.836  1.00  0.00     0.033 C 
HETATM   10  C9  UNL     1      24.156  -1.091  55.248  1.00  0.00     0.076 C 
HETATM   11  C10 UNL     1      25.239  -0.358  54.798  1.00  0.00    -0.169 C 
HETATM   12  C11 UNL     1      26.143   0.266  54.400  1.00  0.00     0.018 C 
HETATM   13  C12 UNL     1      27.205   1.021  53.911  1.00  0.00     0.066 C 
HETATM   14  C13 UNL     1      27.272   1.413  52.585  1.00  0.00     0.013 C 
HETATM   15  C14 UNL     1      26.511   1.311  51.266  1.00  0.00     0.170 C 
HETATM   16  S1  UNL     1      25.956   2.890  50.694  1.00  0.00     0.249 S 
HETATM   17  O1  UNL     1      27.121   3.767  50.365  1.00  0.00    -0.204 OA
HETATM   18  O2  UNL     1      25.125   2.695  49.470  1.00  0.00    -0.204 OA
HETATM   19  N1  UNL     1      25.001   3.671  51.896  1.00  0.00    -0.192 N 
HETATM   20  O3  UNL     1      23.962   3.136  52.319  1.00  0.00    -0.265 OA
HETATM   21  H16 UNL     1      25.483   4.453  52.374  1.00  0.00     0.207 HD
ENDROOT
TORSDOF 0
ENDMDL
MODEL 5
REMARK VINA RESULT:      -7.1      2.804      4.528
REMARK  0 active torsions:
REMARK  status: ('A' for Active; 'I' for Inactive)
ROOT
HETATM    1  C1  UNL     1      22.476  -1.733  52.621  1.00  0.00     0.042 C 
HETATM    2  C2  UNL     1      23.467  -1.022  53.563  1.00  0.00     0.155 C 
HETATM    3  C3  UNL     1      22.860   0.341  53.950  1.00  0.00     0.104 C 
HETATM    4  C4  UNL     1      21.458   0.253  54.325  1.00  0.00     0.096 C 
HETATM    5  F1  UNL     1      21.292  -0.613  55.309  1.00  0.00    -0.211 F 
HETATM    6  C5  UNL     1      20.552   0.979  53.704  1.00  0.00     0.037 C 
HETATM    7  C6  UNL     1      20.173   1.948  52.717  1.00  0.00    -0.001 C 
HETATM    8  C7  UNL     1      20.861   2.673  51.816  1.00  0.00    -0.020 C 
HETATM    9  C8  UNL     1      21.975   3.243  51.015  1.00  0.00     0.033 C 
HETATM   10  C9  UNL     1      23.120   3.576  50.470  1.00  0.00     0.076 C 
HETATM   11  C10 UNL     1      24.421   3.174  50.713  1.00  0.00    -0.169 C 
HETATM   12  C11 UNL     1      25.514   2.826  50.937  1.00  0.00     0.018 C 
HETATM   13  C12 UNL     1      26.807   2.394  51.219  1.00  0.00     0.066 C 
HETATM   14  C13 UNL     1      27.165   1.932  52.475  1.00  0.00     0.013 C 
HETATM   15  C14 UNL     1      26.592   1.685  53.868  1.00  0.00     0.170 C 
HETATM   16  S1  UNL     1      26.608  -0.030  54.299  1.00  0.00     0.249 S 
HETATM   17  O1  UNL     1      28.012  -0.532  54.398  1.00  0.00    -0.204 OA
HETATM   18  O2  UNL     1      25.930  -0.202  55.617  1.00  0.00    -0.204 OA
HETATM   19  N1  UNL     1      25.772  -0.962  53.118  1.00  0.00    -0.192 N 
HETATM   20  O3  UNL     1      24.574  -0.738  52.872  1.00  0.00    -0.265 OA
HETATM   21  H16 UNL     1      26.393  -1.516  52.501  1.00  0.00     0.207 HD
ENDROOT
TORSDOF 0
ENDMDL
MODEL 6
REMARK VINA RESULT:      -6.7      4.474      5.701
REMARK  0 active torsions:
REMARK  status: ('A' for Active; 'I' for Inactive)
ROOT
HETATM    1  C1  UNL     1      17.691   3.006  51.554  1.00  0.00     0.042 C 
HETATM    2  C2  UNL     1      18.685   2.650  50.431  1.00  0.00     0.155 C 
HETATM    3  C3  UNL     1      18.932   1.129  50.480  1.00  0.00     0.104 C 
HETATM    4  C4  UNL     1      17.706   0.359  50.617  1.00  0.00     0.096 C 
HETATM    5  F1  UNL     1      16.861   0.650  49.645  1.00  0.00    -0.211 F 
HETATM    6  C5  UNL     1      17.557  -0.488  51.614  1.00  0.00     0.037 C 
HETATM    7  C6  UNL     1      18.037  -1.142  52.797  1.00  0.00    -0.001 C 
HETATM    8  C7  UNL     1      19.190  -1.078  53.489  1.00  0.00    -0.020 C 
HETATM    9  C8  UNL     1      20.563  -0.705  53.915  1.00  0.00     0.033 C 
HETATM   10  C9  UNL     1      21.768  -0.206  54.060  1.00  0.00     0.076 C 
HETATM   11  C10 UNL     1      22.497   0.705  53.318  1.00  0.00    -0.169 C 
HETATM   12  C11 UNL     1      23.099   1.473  52.675  1.00  0.00     0.018 C 
HETATM   13  C12 UNL     1      23.795   2.392  51.895  1.00  0.00     0.066 C 
HETATM   14  C13 UNL     1      23.539   2.545  50.543  1.00  0.00     0.013 C 
HETATM   15  C14 UNL     1      22.655   2.004  49.423  1.00  0.00     0.170 C 
HETATM   16  S1  UNL     1      21.568   3.241  48.778  1.00  0.00     0.249 S 
HETATM   17  O1  UNL     1      22.348   4.332  48.118  1.00  0.00    -0.204 OA
HETATM   18  O2  UNL     1      20.660   2.610  47.775  1.00  0.00    -0.204 OA
HETATM   19  N1  UNL     1      20.614   3.929  50.035  1.00  0.00    -0.192 N 
HETATM   20  O3  UNL     1      19.862   3.212  50.718  1.00  0.00    -0.265 OA
HETATM   21  H16 UNL     1      20.902   4.886  50.308  1.00  0.00     0.207 HD
ENDROOT
TORSDOF 0
ENDMDL
MODEL 7
REMARK VINA RESULT:      -6.6      4.619      5.984
REMARK  0 active torsions:
REMARK  status: ('A' for Active; 'I' for Inactive)
ROOT
HETATM    1  C1  UNL     1      18.318   3.337  51.577  1.00  0.00     0.042 C 
HETATM    2  C2  UNL     1      19.029   2.931  50.271  1.00  0.00     0.155 C 
HETATM    3  C3  UNL     1      19.374   1.431  50.366  1.00  0.00     0.104 C 
HETATM    4  C4  UNL     1      18.269   0.623  50.858  1.00  0.00     0.096 C 
HETATM    5  F1  UNL     1      17.196   0.795  50.108  1.00  0.00    -0.211 F 
HETATM    6  C5  UNL     1      18.421  -0.142  51.919  1.00  0.00     0.037 C 
HETATM    7  C6  UNL     1      19.215  -0.672  52.989  1.00  0.00    -0.001 C 
HETATM    8  C7  UNL     1      20.496  -0.500  53.366  1.00  0.00    -0.020 C 
HETATM    9  C8  UNL     1      21.905  -0.033  53.410  1.00  0.00     0.033 C 
HETATM   10  C9  UNL     1      23.075   0.526  53.217  1.00  0.00     0.076 C 
HETATM   11  C10 UNL     1      23.543   1.402  52.254  1.00  0.00    -0.169 C 
HETATM   12  C11 UNL     1      23.921   2.138  51.428  1.00  0.00     0.018 C 
HETATM   13  C12 UNL     1      24.347   3.017  50.437  1.00  0.00     0.066 C 
HETATM   14  C13 UNL     1      23.760   3.044  49.183  1.00  0.00     0.013 C 
HETATM   15  C14 UNL     1      22.665   2.373  48.358  1.00  0.00     0.170 C 
HETATM   16  S1  UNL     1      21.378   3.503  47.916  1.00  0.00     0.249 S 
HETATM   17  O1  UNL     1      21.904   4.567  47.008  1.00  0.00    -0.204 OA
HETATM   18  O2  UNL     1      20.295   2.751  47.218  1.00  0.00    -0.204 OA
HETATM   19  N1  UNL     1      20.719   4.253  49.319  1.00  0.00    -0.192 N 
HETATM   20  O3  UNL     1      20.202   3.565  50.217  1.00  0.00    -0.265 OA
HETATM   21  H16 UNL     1      21.005   5.241  49.442  1.00  0.00     0.207 HD
ENDROOT
TORSDOF 0
ENDMDL
MODEL 8
REMARK VINA RESULT:      -6.6      5.759      7.989
REMARK  0 active torsions:
REMARK  status: ('A' for Active; 'I' for Inactive)
ROOT
HETATM    1  C1  UNL     1      23.353   7.635  46.486  1.00  0.00     0.042 C 
HETATM    2  C2  UNL     1      23.131   7.522  48.007  1.00  0.00     0.155 C 
HETATM    3  C3  UNL     1      24.399   8.044  48.711  1.00  0.00     0.104 C 
HETATM    4  C4  UNL     1      24.886   9.296  48.153  1.00  0.00     0.096 C 
HETATM    5  F1  UNL     1      23.940  10.217  48.180  1.00  0.00    -0.211 F 
HETATM    6  C5  UNL     1      26.120   9.393  47.705  1.00  0.00     0.037 C 
HETATM    7  C6  UNL     1      27.416   8.835  47.446  1.00  0.00    -0.001 C 
HETATM    8  C7  UNL     1      27.966   7.626  47.666  1.00  0.00    -0.020 C 
HETATM    9  C8  UNL     1      28.150   6.213  48.084  1.00  0.00     0.033 C 
HETATM   10  C9  UNL     1      28.043   4.988  48.542  1.00  0.00     0.076 C 
HETATM   11  C10 UNL     1      27.004   4.307  49.151  1.00  0.00    -0.169 C 
HETATM   12  C11 UNL     1      26.117   3.751  49.669  1.00  0.00     0.018 C 
HETATM   13  C12 UNL     1      25.045   3.107  50.280  1.00  0.00     0.066 C 
HETATM   14  C13 UNL     1      24.080   3.806  50.986  1.00  0.00     0.013 C 
HETATM   15  C14 UNL     1      23.696   5.221  51.410  1.00  0.00     0.170 C 
HETATM   16  S1  UNL     1      22.159   5.734  50.700  1.00  0.00     0.249 S 
HETATM   17  O1  UNL     1      21.037   4.892  51.215  1.00  0.00    -0.204 OA
HETATM   18  O2  UNL     1      21.912   7.159  51.063  1.00  0.00    -0.204 OA
HETATM   19  N1  UNL     1      22.206   5.598  48.983  1.00  0.00    -0.192 N 
HETATM   20  O3  UNL     1      23.052   6.228  48.326  1.00  0.00    -0.265 OA
HETATM   21  H16 UNL     1      21.662   4.800  48.609  1.00  0.00     0.207 HD
ENDROOT
TORSDOF 0
ENDMDL
MODEL 9
REMARK VINA RESULT:      -6.5      2.576      4.827
REMARK  0 active torsions:
REMARK  status: ('A' for Active; 'I' for Inactive)
ROOT
HETATM    1  C1  UNL     1      22.948  -1.614  52.995  1.00  0.00     0.042 C 
HETATM    2  C2  UNL     1      23.434  -0.174  53.250  1.00  0.00     0.155 C 
HETATM    3  C3  UNL     1      22.195   0.741  53.314  1.00  0.00     0.104 C 
HETATM    4  C4  UNL     1      21.126   0.194  54.134  1.00  0.00     0.096 C 
HETATM    5  F1  UNL     1      21.561  -0.066  55.354  1.00  0.00    -0.211 F 
HETATM    6  C5  UNL     1      19.921   0.018  53.632  1.00  0.00     0.037 C 
HETATM    7  C6  UNL     1      18.981   0.098  52.553  1.00  0.00    -0.001 C 
HETATM    8  C7  UNL     1      19.061   0.537  51.283  1.00  0.00    -0.020 C 
HETATM    9  C8  UNL     1      19.586   1.108  50.016  1.00  0.00     0.033 C 
HETATM   10  C9  UNL     1      20.292   1.636  49.045  1.00  0.00     0.076 C 
HETATM   11  C10 UNL     1      21.606   2.062  48.972  1.00  0.00    -0.169 C 
HETATM   12  C11 UNL     1      22.717   2.421  48.932  1.00  0.00     0.018 C 
HETATM   13  C12 UNL     1      24.045   2.839  48.906  1.00  0.00     0.066 C 
HETATM   14  C13 UNL     1      24.702   3.254  50.052  1.00  0.00     0.013 C 
HETATM   15  C14 UNL     1      24.486   3.458  51.549  1.00  0.00     0.170 C 
HETATM   16  S1  UNL     1      25.506   2.389  52.520  1.00  0.00     0.249 S 
HETATM   17  O1  UNL     1      26.950   2.719  52.322  1.00  0.00    -0.204 OA
HETATM   18  O2  UNL     1      25.155   2.563  53.960  1.00  0.00    -0.204 OA
HETATM   19  N1  UNL     1      25.253   0.742  52.082  1.00  0.00    -0.192 N 
HETATM   20  O3  UNL     1      24.124   0.232  52.181  1.00  0.00    -0.265 OA
HETATM   21  H16 UNL     1      26.026   0.330  51.530  1.00  0.00     0.207 HD
ENDROOT
TORSDOF 0
ENDMDL
