MODEL 1
REMARK VINA RESULT:      -8.3      0.000      0.000
REMARK  7 active torsions:
REMARK  status: ('A' for Active; 'I' for Inactive)
REMARK    1  A    between atoms: O1_2  and  C2_3 
REMARK    2  A    between atoms: C7_9  and  C8_10 
REMARK    3  A    between atoms: C8_10  and  C9_11 
REMARK    4  A    between atoms: C9_11  and  N1_12 
REMARK    5  A    between atoms: C9_11  and  C10_13 
REMARK    6  A    between atoms: C13_18  and  N4_19 
REMARK    7  A    between atoms: N4_19  and  C14_20 
ROOT
HETATM    1  C2  UNL     1      28.383   5.555  48.350  1.00  0.00     0.068 A 
HETATM    2  C3  UNL     1      28.046   6.830  47.956  1.00  0.00     0.039 A 
HETATM    3  C4  UNL     1      26.709   7.155  48.080  1.00  0.00     0.040 A 
HETATM    4  C5  UNL     1      25.715   6.301  48.562  1.00  0.00     0.074 A 
HETATM    5  O2  UNL     1      24.548   6.756  48.609  1.00  0.00    -0.355 OA
HETATM    6  C6  UNL     1      23.361   7.282  48.636  1.00  0.00     0.210 C 
HETATM    7  C7  UNL     1      26.098   5.018  48.950  1.00  0.00    -0.020 A 
HETATM    8  C20 UNL     1      27.444   4.641  48.844  1.00  0.00     0.046 A 
ENDROOT
BRANCH   7   9
HETATM    9  C8  UNL     1      25.127   4.037  49.448  1.00  0.00     0.082 C 
BRANCH   9  10
HETATM   10  C9  UNL     1      25.036   4.021  50.958  1.00  0.00     0.260 C 
BRANCH  10  11
HETATM   11  N1  UNL     1      24.513   5.287  51.439  1.00  0.00     0.087 N 
HETATM   12  H12 UNL     1      25.283   5.950  51.695  1.00  0.00     0.313 HD
HETATM   13  H13 UNL     1      23.881   5.687  50.710  1.00  0.00     0.313 HD
ENDBRANCH  10  11
BRANCH  10  14
HETATM   14  C10 UNL     1      24.245   2.882  51.477  1.00  0.00     0.038 A 
HETATM   15  C11 UNL     1      23.190   2.383  50.698  1.00  0.00     0.131 A 
HETATM   16  N2  UNL     1      22.417   1.353  51.076  1.00  0.00    -0.253 NA
HETATM   17  C12 UNL     1      22.633   0.745  52.256  1.00  0.00     0.234 A 
HETATM   18  N3  UNL     1      23.629   1.187  53.037  1.00  0.00    -0.224 NA
HETATM   19  C13 UNL     1      24.416   2.219  52.673  1.00  0.00     0.139 A 
BRANCH  19  20
HETATM   20  N4  UNL     1      25.449   2.665  53.513  1.00  0.00    -0.340 N 
HETATM   21  H16 UNL     1      25.516   3.490  54.149  1.00  0.00     0.167 HD
BRANCH  20  22
HETATM   22  C14 UNL     1      26.595   1.809  53.461  1.00  0.00     0.035 A 
HETATM   23  C15 UNL     1      27.880   2.254  53.730  1.00  0.00     0.029 A 
HETATM   24  C16 UNL     1      28.971   1.391  53.670  1.00  0.00     0.004 A 
HETATM   25  C17 UNL     1      28.827   0.073  53.342  1.00  0.00     0.019 A 
HETATM   26  C18 UNL     1      27.569  -0.397  53.071  1.00  0.00     0.013 A 
HETATM   27 BR1  UNL     1      27.345  -2.248  52.611  1.00  0.00    -0.051 Br
HETATM   28  C19 UNL     1      26.509   0.481  53.139  1.00  0.00     0.048 A 
ENDBRANCH  20  22
ENDBRANCH  19  20
ENDBRANCH  10  14
ENDBRANCH   9  10
ENDBRANCH   7   9
BRANCH   1  29
HETATM   29  O1  UNL     1      29.668   5.056  48.298  1.00  0.00    -0.356 OA
HETATM   30  C1  UNL     1      30.780   5.894  48.633  1.00  0.00     0.210 C 
ENDBRANCH   1  29
TORSDOF 7
ENDMDL
MODEL 2
REMARK VINA RESULT:      -8.2      4.008      7.989
REMARK  7 active torsions:
REMARK  status: ('A' for Active; 'I' for Inactive)
REMARK    1  A    between atoms: O1_2  and  C2_3 
REMARK    2  A    between atoms: C7_9  and  C8_10 
REMARK    3  A    between atoms: C8_10  and  C9_11 
REMARK    4  A    between atoms: C9_11  and  N1_12 
REMARK    5  A    between atoms: C9_11  and  C10_13 
REMARK    6  A    between atoms: C13_18  and  N4_19 
REMARK    7  A    between atoms: N4_19  and  C14_20 
ROOT
HETATM    1  C2  UNL     1      22.675  -0.929  54.564  1.00  0.00     0.068 A 
HETATM    2  C3  UNL     1      23.429  -1.440  55.595  1.00  0.00     0.039 A 
HETATM    3  C4  UNL     1      24.784  -1.177  55.526  1.00  0.00     0.040 A 
HETATM    4  C5  UNL     1      25.412  -0.452  54.510  1.00  0.00     0.074 A 
HETATM    5  O2  UNL     1      26.653  -0.306  54.601  1.00  0.00    -0.355 OA
HETATM    6  C6  UNL     1      27.938  -0.186  54.749  1.00  0.00     0.210 C 
HETATM    7  C7  UNL     1      24.612   0.047  53.484  1.00  0.00    -0.020 A 
HETATM    8  C20 UNL     1      23.230  -0.192  53.510  1.00  0.00     0.046 A 
ENDROOT
BRANCH   7   9
HETATM    9  C8  UNL     1      25.177   0.802  52.359  1.00  0.00     0.082 C 
BRANCH   9  10
HETATM   10  C9  UNL     1      25.286   2.283  52.646  1.00  0.00     0.260 C 
BRANCH  10  11
HETATM   11  N1  UNL     1      26.579   2.581  53.235  1.00  0.00     0.087 N 
HETATM   12  H12 UNL     1      27.314   1.906  52.917  1.00  0.00     0.313 HD
HETATM   13  H13 UNL     1      26.831   3.569  53.007  1.00  0.00     0.313 HD
ENDBRANCH  10  11
BRANCH  10  14
HETATM   14  C10 UNL     1      25.033   3.123  51.454  1.00  0.00     0.038 A 
HETATM   15  C11 UNL     1      26.092   3.368  50.565  1.00  0.00     0.131 A 
HETATM   16  N2  UNL     1      25.966   4.112  49.455  1.00  0.00    -0.253 NA
HETATM   17  C12 UNL     1      24.781   4.668  49.147  1.00  0.00     0.234 A 
HETATM   18  N3  UNL     1      23.739   4.464  49.965  1.00  0.00    -0.224 NA
HETATM   19  C13 UNL     1      23.847   3.719  51.084  1.00  0.00     0.139 A 
BRANCH  19  20
HETATM   20  N4  UNL     1      22.741   3.526  51.927  1.00  0.00    -0.340 N 
HETATM   21  H16 UNL     1      22.530   3.884  52.884  1.00  0.00     0.167 HD
BRANCH  20  22
HETATM   22  C14 UNL     1      21.750   2.682  51.332  1.00  0.00     0.035 A 
HETATM   23  C15 UNL     1      22.067   1.586  50.546  1.00  0.00     0.029 A 
HETATM   24  C16 UNL     1      21.075   0.788  49.983  1.00  0.00     0.004 A 
HETATM   25  C17 UNL     1      19.748   1.047  50.179  1.00  0.00     0.019 A 
HETATM   26  C18 UNL     1      19.402   2.124  50.952  1.00  0.00     0.013 A 
HETATM   27 BR1  UNL     1      17.542   2.504  51.241  1.00  0.00    -0.051 Br
HETATM   28  C19 UNL     1      20.407   2.895  51.496  1.00  0.00     0.048 A 
ENDBRANCH  20  22
ENDBRANCH  19  20
ENDBRANCH  10  14
ENDBRANCH   9  10
ENDBRANCH   7   9
BRANCH   1  29
HETATM   29  O1  UNL     1      21.309  -1.091  54.465  1.00  0.00    -0.356 OA
HETATM   30  C1  UNL     1      20.534  -0.192  53.663  1.00  0.00     0.210 C 
ENDBRANCH   1  29
TORSDOF 7
ENDMDL
MODEL 3
REMARK VINA RESULT:      -8.1      5.198      8.285
REMARK  7 active torsions:
REMARK  status: ('A' for Active; 'I' for Inactive)
REMARK    1  A    between atoms: O1_2  and  C2_3 
REMARK    2  A    between atoms: C7_9  and  C8_10 
REMARK    3  A    between atoms: C8_10  and  C9_11 
REMARK    4  A    between atoms: C9_11  and  N1_12 
REMARK    5  A    between atoms: C9_11  and  C10_13 
REMARK    6  A    between atoms: C13_18  and  N4_19 
REMARK    7  A    between atoms: N4_19  and  C14_20 
ROOT
HETATM    1  C2  UNL     1      32.481   2.762  46.919  1.00  0.00     0.068 A 
HETATM    2  C3  UNL     1      33.786   2.461  47.233  1.00  0.00     0.039 A 
HETATM    3  C4  UNL     1      34.536   3.513  47.723  1.00  0.00     0.040 A 
HETATM    4  C5  UNL     1      34.067   4.816  47.912  1.00  0.00     0.074 A 
HETATM    5  O2  UNL     1      34.882   5.652  48.367  1.00  0.00    -0.355 OA
HETATM    6  C6  UNL     1      35.769   6.474  48.842  1.00  0.00     0.210 C 
HETATM    7  C7  UNL     1      32.739   5.078  47.581  1.00  0.00    -0.020 A 
HETATM    8  C20 UNL     1      31.937   4.042  47.081  1.00  0.00     0.046 A 
ENDROOT
BRANCH   7   9
HETATM    9  C8  UNL     1      32.156   6.417  47.721  1.00  0.00     0.082 C 
BRANCH   9  10
HETATM   10  C9  UNL     1      31.045   6.467  48.747  1.00  0.00     0.260 C 
BRANCH  10  11
HETATM   11  N1  UNL     1      31.567   6.135  50.061  1.00  0.00     0.087 N 
HETATM   12  H12 UNL     1      31.893   5.141  50.107  1.00  0.00     0.313 HD
HETATM   13  H13 UNL     1      32.330   6.807  50.298  1.00  0.00     0.313 HD
ENDBRANCH  10  11
BRANCH  10  14
HETATM   14  C10 UNL     1      30.332   7.763  48.765  1.00  0.00     0.038 A 
HETATM   15  C11 UNL     1      30.910   8.842  49.453  1.00  0.00     0.131 A 
HETATM   16  N2  UNL     1      30.346  10.058  49.526  1.00  0.00    -0.253 NA
HETATM   17  C12 UNL     1      29.168  10.291  48.923  1.00  0.00     0.234 A 
HETATM   18  N3  UNL     1      28.575   9.293  48.254  1.00  0.00    -0.224 NA
HETATM   19  C13 UNL     1      29.127   8.065  48.169  1.00  0.00     0.139 A 
BRANCH  19  20
HETATM   20  N4  UNL     1      28.482   7.035  47.466  1.00  0.00    -0.340 N 
HETATM   21  H16 UNL     1      28.539   6.739  46.467  1.00  0.00     0.167 HD
BRANCH  20  22
HETATM   22  C14 UNL     1      27.598   6.282  48.302  1.00  0.00     0.035 A 
HETATM   23  C15 UNL     1      27.742   4.920  48.516  1.00  0.00     0.029 A 
HETATM   24  C16 UNL     1      26.862   4.220  49.337  1.00  0.00     0.004 A 
HETATM   25  C17 UNL     1      25.820   4.840  49.967  1.00  0.00     0.019 A 
HETATM   26  C18 UNL     1      25.651   6.186  49.775  1.00  0.00     0.013 A 
HETATM   27 BR1  UNL     1      24.193   7.076  50.652  1.00  0.00    -0.051 Br
HETATM   28  C19 UNL     1      26.539   6.851  48.957  1.00  0.00     0.048 A 
ENDBRANCH  20  22
ENDBRANCH  19  20
ENDBRANCH  10  14
ENDBRANCH   9  10
ENDBRANCH   7   9
BRANCH   1  29
HETATM   29  O1  UNL     1      31.586   1.840  46.418  1.00  0.00    -0.356 OA
HETATM   30  C1  UNL     1      31.843   0.438  46.558  1.00  0.00     0.210 C 
ENDBRANCH   1  29
TORSDOF 7
ENDMDL
MODEL 4
REMARK VINA RESULT:      -8.0      3.442      6.589
REMARK  7 active torsions:
REMARK  status: ('A' for Active; 'I' for Inactive)
REMARK    1  A    between atoms: O1_2  and  C2_3 
REMARK    2  A    between atoms: C7_9  and  C8_10 
REMARK    3  A    between atoms: C8_10  and  C9_11 
REMARK    4  A    between atoms: C9_11  and  N1_12 
REMARK    5  A    between atoms: C9_11  and  C10_13 
REMARK    6  A    between atoms: C13_18  and  N4_19 
REMARK    7  A    between atoms: N4_19  and  C14_20 
ROOT
HETATM    1  C2  UNL     1      26.658   1.422  53.838  1.00  0.00     0.068 A 
HETATM    2  C3  UNL     1      26.555   0.096  54.187  1.00  0.00     0.039 A 
HETATM    3  C4  UNL     1      25.315  -0.478  53.982  1.00  0.00     0.040 A 
HETATM    4  C5  UNL     1      24.199   0.183  53.462  1.00  0.00     0.074 A 
HETATM    5  O2  UNL     1      23.147  -0.487  53.341  1.00  0.00    -0.355 OA
HETATM    6  C6  UNL     1      22.088  -1.231  53.237  1.00  0.00     0.210 C 
HETATM    7  C7  UNL     1      24.345   1.527  53.122  1.00  0.00    -0.020 A 
HETATM    8  C20 UNL     1      25.586   2.153  53.311  1.00  0.00     0.046 A 
ENDROOT
BRANCH   7   9
HETATM    9  C8  UNL     1      23.229   2.317  52.590  1.00  0.00     0.082 C 
BRANCH   9  10
HETATM   10  C9  UNL     1      23.215   2.364  51.078  1.00  0.00     0.260 C 
BRANCH  10  11
HETATM   11  N1  UNL     1      22.562   1.180  50.550  1.00  0.00     0.087 N 
HETATM   12  H12 UNL     1      21.868   0.787  51.228  1.00  0.00     0.313 HD
HETATM   13  H13 UNL     1      22.120   1.421  49.635  1.00  0.00     0.313 HD
ENDBRANCH  10  11
BRANCH  10  14
HETATM   14  C10 UNL     1      22.600   3.600  50.544  1.00  0.00     0.038 A 
HETATM   15  C11 UNL     1      21.358   3.509  49.896  1.00  0.00     0.131 A 
HETATM   16  N2  UNL     1      20.716   4.569  49.381  1.00  0.00    -0.253 NA
HETATM   17  C12 UNL     1      21.261   5.796  49.469  1.00  0.00     0.234 A 
HETATM   18  N3  UNL     1      22.447   5.934  50.077  1.00  0.00    -0.224 NA
HETATM   19  C13 UNL     1      23.106   4.880  50.602  1.00  0.00     0.139 A 
BRANCH  19  20
HETATM   20  N4  UNL     1      24.350   5.052  51.229  1.00  0.00    -0.340 N 
HETATM   21  H16 UNL     1      24.617   5.090  52.238  1.00  0.00     0.167 HD
BRANCH  20  22
HETATM   22  C14 UNL     1      25.416   5.198  50.285  1.00  0.00     0.035 A 
HETATM   23  C15 UNL     1      26.192   4.134  49.856  1.00  0.00     0.029 A 
HETATM   24  C16 UNL     1      27.221   4.314  48.935  1.00  0.00     0.004 A 
HETATM   25  C17 UNL     1      27.512   5.543  48.415  1.00  0.00     0.019 A 
HETATM   26  C18 UNL     1      26.761   6.615  48.819  1.00  0.00     0.013 A 
HETATM   27 BR1  UNL     1      27.153   8.352  48.099  1.00  0.00    -0.051 Br
HETATM   28  C19 UNL     1      25.750   6.405  49.732  1.00  0.00     0.048 A 
ENDBRANCH  20  22
ENDBRANCH  19  20
ENDBRANCH  10  14
ENDBRANCH   9  10
ENDBRANCH   7   9
BRANCH   1  29
HETATM   29  O1  UNL     1      27.816   2.158  53.972  1.00  0.00    -0.356 OA
HETATM   30  C1  UNL     1      29.059   1.501  54.246  1.00  0.00     0.210 C 
ENDBRANCH   1  29
TORSDOF 7
ENDMDL
MODEL 5
REMARK VINA RESULT:      -7.9      3.594      6.446
REMARK  7 active torsions:
REMARK  status: ('A' for Active; 'I' for Inactive)
REMARK    1  A    between atoms: O1_2  and  C2_3 
REMARK    2  A    between atoms: C7_9  and  C8_10 
REMARK    3  A    between atoms: C8_10  and  C9_11 
REMARK    4  A    between atoms: C9_11  and  N1_12 
REMARK    5  A    between atoms: C9_11  and  C10_13 
REMARK    6  A    between atoms: C13_18  and  N4_19 
REMARK    7  A    between atoms: N4_19  and  C14_20 
ROOT
HETATM    1  C2  UNL     1      26.044  -0.036  53.588  1.00  0.00     0.068 A 
HETATM    2  C3  UNL     1      26.762   1.137  53.595  1.00  0.00     0.039 A 
HETATM    3  C4  UNL     1      26.021   2.288  53.399  1.00  0.00     0.040 A 
HETATM    4  C5  UNL     1      24.639   2.329  53.201  1.00  0.00     0.074 A 
HETATM    5  O2  UNL     1      24.123   3.460  53.038  1.00  0.00    -0.355 OA
HETATM    6  C6  UNL     1      23.644   4.656  52.877  1.00  0.00     0.210 C 
HETATM    7  C7  UNL     1      23.949   1.118  53.201  1.00  0.00    -0.020 A 
HETATM    8  C20 UNL     1      24.657  -0.076  53.397  1.00  0.00     0.046 A 
ENDROOT
BRANCH   7   9
HETATM    9  C8  UNL     1      22.500   1.052  52.979  1.00  0.00     0.082 C 
BRANCH   9  10
HETATM   10  C9  UNL     1      22.130   1.128  51.514  1.00  0.00     0.260 C 
BRANCH  10  11
HETATM   11  N1  UNL     1      21.407  -0.069  51.121  1.00  0.00     0.087 N 
HETATM   12  H12 UNL     1      21.918  -0.938  51.403  1.00  0.00     0.313 HD
HETATM   13  H13 UNL     1      20.447  -0.030  51.531  1.00  0.00     0.313 HD
ENDBRANCH  10  11
BRANCH  10  14
HETATM   14  C10 UNL     1      21.368   2.351  51.174  1.00  0.00     0.038 A 
HETATM   15  C11 UNL     1      20.386   2.805  52.069  1.00  0.00     0.131 A 
HETATM   16  N2  UNL     1      19.645   3.903  51.854  1.00  0.00    -0.253 NA
HETATM   17  C12 UNL     1      19.822   4.629  50.737  1.00  0.00     0.234 A 
HETATM   18  N3  UNL     1      20.747   4.235  49.850  1.00  0.00    -0.224 NA
HETATM   19  C13 UNL     1      21.502   3.135  50.049  1.00  0.00     0.139 A 
BRANCH  19  20
HETATM   20  N4  UNL     1      22.461   2.742  49.101  1.00  0.00    -0.340 N 
HETATM   21  H16 UNL     1      22.456   1.981  48.387  1.00  0.00     0.167 HD
BRANCH  20  22
HETATM   22  C14 UNL     1      23.638   3.554  49.156  1.00  0.00     0.035 A 
HETATM   23  C15 UNL     1      24.842   3.100  49.671  1.00  0.00     0.029 A 
HETATM   24  C16 UNL     1      25.967   3.919  49.707  1.00  0.00     0.004 A 
HETATM   25  C17 UNL     1      25.938   5.202  49.240  1.00  0.00     0.019 A 
HETATM   26  C18 UNL     1      24.762   5.679  48.723  1.00  0.00     0.013 A 
HETATM   27 BR1  UNL     1      24.699   7.480  48.059  1.00  0.00    -0.051 Br
HETATM   28  C19 UNL     1      23.665   4.845  48.701  1.00  0.00     0.048 A 
ENDBRANCH  20  22
ENDBRANCH  19  20
ENDBRANCH  10  14
ENDBRANCH   9  10
ENDBRANCH   7   9
BRANCH   1  29
HETATM   29  O1  UNL     1      26.614  -1.279  53.768  1.00  0.00    -0.356 OA
HETATM   30  C1  UNL     1      27.252  -1.943  52.671  1.00  0.00     0.210 C 
ENDBRANCH   1  29
TORSDOF 7
ENDMDL
MODEL 6
REMARK VINA RESULT:      -7.8      2.059      2.647
REMARK  7 active torsions:
REMARK  status: ('A' for Active; 'I' for Inactive)
REMARK    1  A    between atoms: O1_2  and  C2_3 
REMARK    2  A    between atoms: C7_9  and  C8_10 
REMARK    3  A    between atoms: C8_10  and  C9_11 
REMARK    4  A    between atoms: C9_11  and  N1_12 
REMARK    5  A    between atoms: C9_11  and  C10_13 
REMARK    6  A    between atoms: C13_18  and  N4_19 
REMARK    7  A    between atoms: N4_19  and  C14_20 
ROOT
HETATM    1  C2  UNL     1      29.054   5.866  48.151  1.00  0.00     0.068 A 
HETATM    2  C3  UNL     1      29.039   7.103  47.551  1.00  0.00     0.039 A 
HETATM    3  C4  UNL     1      27.796   7.701  47.455  1.00  0.00     0.040 A 
HETATM    4  C5  UNL     1      26.599   7.146  47.913  1.00  0.00     0.074 A 
HETATM    5  O2  UNL     1      25.558   7.824  47.747  1.00  0.00    -0.355 OA
HETATM    6  C6  UNL     1      24.515   8.572  47.549  1.00  0.00     0.210 C 
HETATM    7  C7  UNL     1      26.658   5.890  48.515  1.00  0.00    -0.020 A 
HETATM    8  C20 UNL     1      27.896   5.243  48.636  1.00  0.00     0.046 A 
ENDROOT
BRANCH   7   9
HETATM    9  C8  UNL     1      25.455   5.211  49.009  1.00  0.00     0.082 C 
BRANCH   9  10
HETATM   10  C9  UNL     1      25.173   5.508  50.466  1.00  0.00     0.260 C 
BRANCH  10  11
HETATM   11  N1  UNL     1      25.553   6.875  50.777  1.00  0.00     0.087 N 
HETATM   12  H12 UNL     1      25.681   7.015  51.807  1.00  0.00     0.313 HD
HETATM   13  H13 UNL     1      26.418   7.112  50.241  1.00  0.00     0.313 HD
ENDBRANCH  10  11
BRANCH  10  14
HETATM   14  C10 UNL     1      23.769   5.241  50.849  1.00  0.00     0.038 A 
HETATM   15  C11 UNL     1      22.744   5.640  49.976  1.00  0.00     0.131 A 
HETATM   16  N2  UNL     1      21.441   5.440  50.228  1.00  0.00    -0.253 NA
HETATM   17  C12 UNL     1      21.060   4.834  51.366  1.00  0.00     0.234 A 
HETATM   18  N3  UNL     1      22.001   4.435  52.233  1.00  0.00    -0.224 NA
HETATM   19  C13 UNL     1      23.315   4.626  51.995  1.00  0.00     0.139 A 
BRANCH  19  20
HETATM   20  N4  UNL     1      24.281   4.204  52.923  1.00  0.00    -0.340 N 
HETATM   21  H16 UNL     1      24.787   4.718  53.677  1.00  0.00     0.167 HD
BRANCH  20  22
HETATM   22  C14 UNL     1      24.599   2.816  52.778  1.00  0.00     0.035 A 
HETATM   23  C15 UNL     1      25.824   2.370  52.308  1.00  0.00     0.029 A 
HETATM   24  C16 UNL     1      26.098   1.011  52.180  1.00  0.00     0.004 A 
HETATM   25  C17 UNL     1      25.176   0.058  52.509  1.00  0.00     0.019 A 
HETATM   26  C18 UNL     1      23.956   0.468  52.978  1.00  0.00     0.013 A 
HETATM   27 BR1  UNL     1      22.646  -0.855  53.449  1.00  0.00    -0.051 Br
HETATM   28  C19 UNL     1      23.714   1.821  53.094  1.00  0.00     0.048 A 
ENDBRANCH  20  22
ENDBRANCH  19  20
ENDBRANCH  10  14
ENDBRANCH   9  10
ENDBRANCH   7   9
BRANCH   1  29
HETATM   29  O1  UNL     1      30.200   5.120  48.333  1.00  0.00    -0.356 OA
HETATM   30  C1  UNL     1      31.408   5.755  48.768  1.00  0.00     0.210 C 
ENDBRANCH   1  29
TORSDOF 7
ENDMDL
MODEL 7
REMARK VINA RESULT:      -7.7      3.912      7.956
REMARK  7 active torsions:
REMARK  status: ('A' for Active; 'I' for Inactive)
REMARK    1  A    between atoms: O1_2  and  C2_3 
REMARK    2  A    between atoms: C7_9  and  C8_10 
REMARK    3  A    between atoms: C8_10  and  C9_11 
REMARK    4  A    between atoms: C9_11  and  N1_12 
REMARK    5  A    between atoms: C9_11  and  C10_13 
REMARK    6  A    between atoms: C13_18  and  N4_19 
REMARK    7  A    between atoms: N4_19  and  C14_20 
ROOT
HETATM    1  C2  UNL     1      21.107   0.014  52.358  1.00  0.00     0.068 A 
HETATM    2  C3  UNL     1      21.217  -0.743  53.501  1.00  0.00     0.039 A 
HETATM    3  C4  UNL     1      22.478  -0.786  54.066  1.00  0.00     0.040 A 
HETATM    4  C5  UNL     1      23.606  -0.132  53.564  1.00  0.00     0.074 A 
HETATM    5  O2  UNL     1      24.676  -0.276  54.201  1.00  0.00    -0.355 OA
HETATM    6  C6  UNL     1      25.754  -0.461  54.901  1.00  0.00     0.210 C 
HETATM    7  C7  UNL     1      23.452   0.624  52.404  1.00  0.00    -0.020 A 
HETATM    8  C20 UNL     1      22.191   0.700  51.795  1.00  0.00     0.046 A 
ENDROOT
BRANCH   7   9
HETATM    9  C8  UNL     1      24.578   1.331  51.784  1.00  0.00     0.082 C 
BRANCH   9  10
HETATM   10  C9  UNL     1      24.460   2.835  51.900  1.00  0.00     0.260 C 
BRANCH  10  11
HETATM   11  N1  UNL     1      24.886   3.267  53.220  1.00  0.00     0.087 N 
HETATM   12  H12 UNL     1      24.216   2.957  53.962  1.00  0.00     0.313 HD
HETATM   13  H13 UNL     1      25.852   2.911  53.392  1.00  0.00     0.313 HD
ENDBRANCH  10  11
BRANCH  10  14
HETATM   14  C10 UNL     1      25.193   3.557  50.836  1.00  0.00     0.038 A 
HETATM   15  C11 UNL     1      26.557   3.279  50.650  1.00  0.00     0.131 A 
HETATM   16  N2  UNL     1      27.309   3.876  49.712  1.00  0.00    -0.253 NA
HETATM   17  C12 UNL     1      26.764   4.792  48.892  1.00  0.00     0.234 A 
HETATM   18  N3  UNL     1      25.465   5.092  49.031  1.00  0.00    -0.224 NA
HETATM   19  C13 UNL     1      24.694   4.502  49.968  1.00  0.00     0.139 A 
BRANCH  19  20
HETATM   20  N4  UNL     1      23.336   4.839  50.095  1.00  0.00    -0.340 N 
HETATM   21  H16 UNL     1      22.867   5.666  50.524  1.00  0.00     0.167 HD
BRANCH  20  22
HETATM   22  C14 UNL     1      22.478   3.848  49.521  1.00  0.00     0.035 A 
HETATM   23  C15 UNL     1      22.925   2.894  48.621  1.00  0.00     0.029 A 
HETATM   24  C16 UNL     1      22.060   1.945  48.084  1.00  0.00     0.004 A 
HETATM   25  C17 UNL     1      20.736   1.910  48.417  1.00  0.00     0.019 A 
HETATM   26  C18 UNL     1      20.263   2.840  49.306  1.00  0.00     0.013 A 
HETATM   27 BR1  UNL     1      18.405   2.806  49.789  1.00  0.00    -0.051 Br
HETATM   28  C19 UNL     1      21.144   3.767  49.821  1.00  0.00     0.048 A 
ENDBRANCH  20  22
ENDBRANCH  19  20
ENDBRANCH  10  14
ENDBRANCH   9  10
ENDBRANCH   7   9
BRANCH   1  29
HETATM   29  O1  UNL     1      19.929   0.173  51.660  1.00  0.00    -0.356 OA
HETATM   30  C1  UNL     1      18.692  -0.281  52.222  1.00  0.00     0.210 C 
ENDBRANCH   1  29
TORSDOF 7
ENDMDL
MODEL 8
REMARK VINA RESULT:      -7.7      4.506      8.217
REMARK  7 active torsions:
REMARK  status: ('A' for Active; 'I' for Inactive)
REMARK    1  A    between atoms: O1_2  and  C2_3 
REMARK    2  A    between atoms: C7_9  and  C8_10 
REMARK    3  A    between atoms: C8_10  and  C9_11 
REMARK    4  A    between atoms: C9_11  and  N1_12 
REMARK    5  A    between atoms: C9_11  and  C10_13 
REMARK    6  A    between atoms: C13_18  and  N4_19 
REMARK    7  A    between atoms: N4_19  and  C14_20 
ROOT
HETATM    1  C2  UNL     1      23.103  -0.973  54.691  1.00  0.00     0.068 A 
HETATM    2  C3  UNL     1      24.349  -1.229  55.213  1.00  0.00     0.039 A 
HETATM    3  C4  UNL     1      25.393  -0.538  54.626  1.00  0.00     0.040 A 
HETATM    4  C5  UNL     1      25.263   0.371  53.573  1.00  0.00     0.074 A 
HETATM    5  O2  UNL     1      26.314   0.911  53.157  1.00  0.00    -0.355 OA
HETATM    6  C6  UNL     1      27.435   1.440  52.769  1.00  0.00     0.210 C 
HETATM    7  C7  UNL     1      23.983   0.601  53.072  1.00  0.00    -0.020 A 
HETATM    8  C20 UNL     1      22.891  -0.075  53.636  1.00  0.00     0.046 A 
ENDROOT
BRANCH   7   9
HETATM    9  C8  UNL     1      23.742   1.519  51.953  1.00  0.00     0.082 C 
BRANCH   9  10
HETATM   10  C9  UNL     1      23.320   2.899  52.410  1.00  0.00     0.260 C 
BRANCH  10  11
HETATM   11  N1  UNL     1      24.467   3.623  52.929  1.00  0.00     0.087 N 
HETATM   12  H12 UNL     1      24.411   3.740  53.968  1.00  0.00     0.313 HD
HETATM   13  H13 UNL     1      25.337   3.124  52.639  1.00  0.00     0.313 HD
ENDBRANCH  10  11
BRANCH  10  14
HETATM   14  C10 UNL     1      22.631   3.672  51.353  1.00  0.00     0.038 A 
HETATM   15  C11 UNL     1      23.386   4.162  50.275  1.00  0.00     0.131 A 
HETATM   16  N2  UNL     1      22.856   4.870  49.265  1.00  0.00    -0.253 NA
HETATM   17  C12 UNL     1      21.539   5.144  49.252  1.00  0.00     0.234 A 
HETATM   18  N3  UNL     1      20.776   4.699  50.260  1.00  0.00    -0.224 NA
HETATM   19  C13 UNL     1      21.291   3.985  51.282  1.00  0.00     0.139 A 
BRANCH  19  20
HETATM   20  N4  UNL     1      20.470   3.535  52.328  1.00  0.00    -0.340 N 
HETATM   21  H16 UNL     1      20.394   3.833  53.325  1.00  0.00     0.167 HD
BRANCH  20  22
HETATM   22  C14 UNL     1      19.595   2.482  51.912  1.00  0.00     0.035 A 
HETATM   23  C15 UNL     1      20.006   1.163  51.797  1.00  0.00     0.029 A 
HETATM   24  C16 UNL     1      19.125   0.165  51.389  1.00  0.00     0.004 A 
HETATM   25  C17 UNL     1      17.821   0.436  51.085  1.00  0.00     0.019 A 
HETATM   26  C18 UNL     1      17.385   1.731  51.191  1.00  0.00     0.013 A 
HETATM   27 BR1  UNL     1      15.555   2.134  50.770  1.00  0.00    -0.051 Br
HETATM   28  C19 UNL     1      18.280   2.697  51.597  1.00  0.00     0.048 A 
ENDBRANCH  20  22
ENDBRANCH  19  20
ENDBRANCH  10  14
ENDBRANCH   9  10
ENDBRANCH   7   9
BRANCH   1  29
HETATM   29  O1  UNL     1      21.947  -1.568  55.150  1.00  0.00    -0.356 OA
HETATM   30  C1  UNL     1      20.787  -1.628  54.313  1.00  0.00     0.210 C 
ENDBRANCH   1  29
TORSDOF 7
ENDMDL
MODEL 9
REMARK VINA RESULT:      -7.6      4.171      8.379
REMARK  7 active torsions:
REMARK  status: ('A' for Active; 'I' for Inactive)
REMARK    1  A    between atoms: O1_2  and  C2_3 
REMARK    2  A    between atoms: C7_9  and  C8_10 
REMARK    3  A    between atoms: C8_10  and  C9_11 
REMARK    4  A    between atoms: C9_11  and  N1_12 
REMARK    5  A    between atoms: C9_11  and  C10_13 
REMARK    6  A    between atoms: C13_18  and  N4_19 
REMARK    7  A    between atoms: N4_19  and  C14_20 
ROOT
HETATM    1  C2  UNL     1      21.326  -0.158  53.099  1.00  0.00     0.068 A 
HETATM    2  C3  UNL     1      21.706  -0.880  54.207  1.00  0.00     0.039 A 
HETATM    3  C4  UNL     1      23.055  -0.839  54.508  1.00  0.00     0.040 A 
HETATM    4  C5  UNL     1      24.019  -0.135  53.782  1.00  0.00     0.074 A 
HETATM    5  O2  UNL     1      25.201  -0.204  54.193  1.00  0.00    -0.355 OA
HETATM    6  C6  UNL     1      26.406  -0.312  54.665  1.00  0.00     0.210 C 
HETATM    7  C7  UNL     1      23.592   0.583  52.666  1.00  0.00    -0.020 A 
HETATM    8  C20 UNL     1      22.233   0.573  52.321  1.00  0.00     0.046 A 
ENDROOT
BRANCH   7   9
HETATM    9  C8  UNL     1      24.528   1.336  51.825  1.00  0.00     0.082 C 
BRANCH   9  10
HETATM   10  C9  UNL     1      24.651   2.786  52.240  1.00  0.00     0.260 C 
BRANCH  10  11
HETATM   11  N1  UNL     1      25.460   2.892  53.442  1.00  0.00     0.087 N 
HETATM   12  H12 UNL     1      25.938   3.822  53.504  1.00  0.00     0.313 HD
HETATM   13  H13 UNL     1      24.852   2.710  54.271  1.00  0.00     0.313 HD
ENDBRANCH  10  11
BRANCH  10  14
HETATM   14  C10 UNL     1      25.175   3.654  51.162  1.00  0.00     0.038 A 
HETATM   15  C11 UNL     1      26.160   3.141  50.302  1.00  0.00     0.131 A 
HETATM   16  N2  UNL     1      26.696   3.845  49.293  1.00  0.00    -0.253 NA
HETATM   17  C12 UNL     1      26.297   5.108  49.065  1.00  0.00     0.234 A 
HETATM   18  N3  UNL     1      25.360   5.644  49.860  1.00  0.00    -0.224 NA
HETATM   19  C13 UNL     1      24.809   4.951  50.878  1.00  0.00     0.139 A 
BRANCH  19  20
HETATM   20  N4  UNL     1      23.833   5.538  51.699  1.00  0.00    -0.340 N 
HETATM   21  H16 UNL     1      23.869   5.870  52.688  1.00  0.00     0.167 HD
BRANCH  20  22
HETATM   22  C14 UNL     1      22.580   5.692  51.023  1.00  0.00     0.035 A 
HETATM   23  C15 UNL     1      21.806   4.616  50.620  1.00  0.00     0.029 A 
HETATM   24  C16 UNL     1      20.592   4.805  49.965  1.00  0.00     0.004 A 
HETATM   25  C17 UNL     1      20.110   6.053  49.689  1.00  0.00     0.019 A 
HETATM   26  C18 UNL     1      20.853   7.137  50.077  1.00  0.00     0.013 A 
HETATM   27 BR1  UNL     1      20.194   8.901  49.701  1.00  0.00    -0.051 Br
HETATM   28  C19 UNL     1      22.051   6.918  50.723  1.00  0.00     0.048 A 
ENDBRANCH  20  22
ENDBRANCH  19  20
ENDBRANCH  10  14
ENDBRANCH   9  10
ENDBRANCH   7   9
BRANCH   1  29
HETATM   29  O1  UNL     1      20.024  -0.082  52.649  1.00  0.00    -0.356 OA
HETATM   30  C1  UNL     1      18.999  -0.860  53.278  1.00  0.00     0.210 C 
ENDBRANCH   1  29
TORSDOF 7
ENDMDL
