MODEL 1
REMARK VINA RESULT:      -7.5      0.000      0.000
REMARK  4 active torsions:
REMARK  status: ('A' for Active; 'I' for Inactive)
REMARK    1  A    between atoms: N2_5  and  C4_6 
REMARK    2  A    between atoms: C4_6  and  C5_7 
REMARK    3  A    between atoms: C5_7  and  C6_8 
REMARK       I    between atoms: C6_8  and  N3_10 
REMARK    4  A    between atoms: N3_10  and  C7_11 
ROOT
HETATM    1  C6  UNL     1      25.636   5.307  49.972  1.00  0.00     0.223 C 
HETATM    2  O1  UNL     1      26.262   4.952  48.945  1.00  0.00    -0.273 OA
HETATM    3  N3  UNL     1      24.888   4.696  51.048  1.00  0.00    -0.331 N 
HETATM    4  H12 UNL     1      24.663   5.534  51.594  1.00  0.00     0.168 HD
ENDROOT
BRANCH   3   5
HETATM    5  C7  UNL     1      24.747   3.229  50.993  1.00  0.00     0.013 C 
HETATM    6  C8  UNL     1      25.698   2.500  51.528  1.00  0.00     0.023 C 
HETATM    7  C9  UNL     1      26.728   1.809  52.104  1.00  0.00     0.050 C 
HETATM    8  C10 UNL     1      27.426   0.801  52.533  1.00  0.00     0.084 C 
HETATM    9  N4  UNL     1      26.409  -0.203  52.091  1.00  0.00    -0.408 N 
HETATM   10  C11 UNL     1      25.299  -0.285  53.077  1.00  0.00     0.125 C 
HETATM   11  H16 UNL     1      26.361  -0.833  51.235  1.00  0.00     0.154 HD
HETATM   12  C12 UNL     1      24.069   0.014  53.514  1.00  0.00    -0.004 C 
HETATM   13  C13 UNL     1      22.787   0.786  53.184  1.00  0.00    -0.022 C 
HETATM   14  C14 UNL     1      22.283   1.552  52.239  1.00  0.00     0.031 C 
HETATM   15  C15 UNL     1      22.375   2.263  50.893  1.00  0.00     0.072 C 
HETATM   16 BR1  UNL     1      21.477   0.989  49.674  1.00  0.00    -0.090 Br
HETATM   17  C16 UNL     1      23.708   2.477  50.335  1.00  0.00     0.073 C 
ENDBRANCH   3   5
BRANCH   1  18
HETATM   18  C5  UNL     1      26.007   6.698  49.580  1.00  0.00     0.133 C 
BRANCH  18  19
HETATM   19  C4  UNL     1      27.072   6.668  48.554  1.00  0.00     0.283 C 
BRANCH  19  20
HETATM   20  N2  UNL     1      27.661   7.965  48.293  1.00  0.00     0.103 N 
HETATM   21  C3  UNL     1      27.393   8.966  49.296  1.00  0.00     0.289 C 
HETATM   22  C2  UNL     1      28.419  10.102  49.125  1.00  0.00     0.137 C 
HETATM   23  N1  UNL     1      29.699   9.573  49.582  1.00  0.00    -0.253 NA
HETATM   24  C1  UNL     1      30.783  10.179  48.862  1.00  0.00     0.130 C 
HETATM   25  N5  UNL     1      29.743   8.182  49.380  1.00  0.00    -0.232 NA
HETATM   26  C17 UNL     1      29.112   7.813  48.114  1.00  0.00     0.378 C 
HETATM   27  H26 UNL     1      29.353   7.635  50.149  1.00  0.00     0.142 HD
ENDBRANCH  19  20
ENDBRANCH  18  19
ENDBRANCH   1  18
TORSDOF 4
ENDMDL
MODEL 2
REMARK VINA RESULT:      -7.5      4.512      7.854
REMARK  4 active torsions:
REMARK  status: ('A' for Active; 'I' for Inactive)
REMARK    1  A    between atoms: N2_5  and  C4_6 
REMARK    2  A    between atoms: C4_6  and  C5_7 
REMARK    3  A    between atoms: C5_7  and  C6_8 
REMARK       I    between atoms: C6_8  and  N3_10 
REMARK    4  A    between atoms: N3_10  and  C7_11 
ROOT
HETATM    1  C6  UNL     1      23.603   1.973  52.079  1.00  0.00     0.223 C 
HETATM    2  O1  UNL     1      23.784   2.887  52.918  1.00  0.00    -0.273 OA
HETATM    3  N3  UNL     1      23.404   1.837  50.654  1.00  0.00    -0.331 N 
HETATM    4  H12 UNL     1      23.358   0.815  50.587  1.00  0.00     0.168 HD
ENDROOT
BRANCH   3   5
HETATM    5  C7  UNL     1      23.362   3.091  49.878  1.00  0.00     0.013 C 
HETATM    6  C8  UNL     1      22.185   3.570  49.550  1.00  0.00     0.023 C 
HETATM    7  C9  UNL     1      20.926   4.006  49.243  1.00  0.00     0.050 C 
HETATM    8  C10 UNL     1      19.983   4.768  48.777  1.00  0.00     0.084 C 
HETATM    9  N4  UNL     1      20.945   5.796  48.272  1.00  0.00    -0.408 N 
HETATM   10  C11 UNL     1      21.393   6.678  49.383  1.00  0.00     0.125 C 
HETATM   11  H16 UNL     1      21.332   5.987  47.299  1.00  0.00     0.154 HD
HETATM   12  C12 UNL     1      22.267   7.059  50.323  1.00  0.00    -0.004 C 
HETATM   13  C13 UNL     1      23.630   6.749  50.951  1.00  0.00    -0.022 C 
HETATM   14  C14 UNL     1      24.633   5.906  50.824  1.00  0.00     0.031 C 
HETATM   15  C15 UNL     1      25.318   4.724  50.146  1.00  0.00     0.072 C 
HETATM   16 BR1  UNL     1      26.532   5.614  48.860  1.00  0.00    -0.090 Br
HETATM   17  C16 UNL     1      24.483   3.827  49.351  1.00  0.00     0.073 C 
ENDBRANCH   3   5
BRANCH   1  18
HETATM   18  C5  UNL     1      23.680   1.044  53.244  1.00  0.00     0.133 C 
BRANCH  18  19
HETATM   19  C4  UNL     1      24.681  -0.014  52.984  1.00  0.00     0.283 C 
BRANCH  19  20
HETATM   20  N2  UNL     1      26.042   0.398  53.256  1.00  0.00     0.103 N 
HETATM   21  C3  UNL     1      26.443   0.294  54.637  1.00  0.00     0.289 C 
HETATM   22  C2  UNL     1      27.982   0.323  54.693  1.00  0.00     0.137 C 
HETATM   23  N1  UNL     1      28.437  -0.959  54.166  1.00  0.00    -0.253 NA
HETATM   24  C1  UNL     1      29.708  -0.814  53.514  1.00  0.00     0.130 C 
HETATM   25  N5  UNL     1      27.504  -1.452  53.235  1.00  0.00    -0.232 NA
HETATM   26  C17 UNL     1      26.963  -0.375  52.410  1.00  0.00     0.378 C 
HETATM   27  H26 UNL     1      26.751  -2.002  53.651  1.00  0.00     0.142 HD
ENDBRANCH  19  20
ENDBRANCH  18  19
ENDBRANCH   1  18
TORSDOF 4
ENDMDL
MODEL 3
REMARK VINA RESULT:      -7.5      1.435      1.745
REMARK  4 active torsions:
REMARK  status: ('A' for Active; 'I' for Inactive)
REMARK    1  A    between atoms: N2_5  and  C4_6 
REMARK    2  A    between atoms: C4_6  and  C5_7 
REMARK    3  A    between atoms: C5_7  and  C6_8 
REMARK       I    between atoms: C6_8  and  N3_10 
REMARK    4  A    between atoms: N3_10  and  C7_11 
ROOT
HETATM    1  C6  UNL     1      27.127   5.235  49.089  1.00  0.00     0.223 C 
HETATM    2  O1  UNL     1      27.906   4.531  48.403  1.00  0.00    -0.273 OA
HETATM    3  N3  UNL     1      25.993   5.051  49.967  1.00  0.00    -0.331 N 
HETATM    4  H12 UNL     1      25.834   6.026  50.242  1.00  0.00     0.168 HD
ENDROOT
BRANCH   3   5
HETATM    5  C7  UNL     1      25.529   3.664  50.152  1.00  0.00     0.013 C 
HETATM    6  C8  UNL     1      26.200   2.898  50.980  1.00  0.00     0.023 C 
HETATM    7  C9  UNL     1      26.949   2.160  51.855  1.00  0.00     0.050 C 
HETATM    8  C10 UNL     1      27.327   1.153  52.582  1.00  0.00     0.084 C 
HETATM    9  N4  UNL     1      26.182   0.296  52.144  1.00  0.00    -0.408 N 
HETATM   10  C11 UNL     1      24.951   0.648  52.902  1.00  0.00     0.125 C 
HETATM   11  H16 UNL     1      26.116  -0.484  51.423  1.00  0.00     0.154 HD
HETATM   12  C12 UNL     1      23.772   1.268  53.037  1.00  0.00    -0.004 C 
HETATM   13  C13 UNL     1      22.764   2.185  52.337  1.00  0.00    -0.022 C 
HETATM   14  C14 UNL     1      22.591   2.810  51.192  1.00  0.00     0.031 C 
HETATM   15  C15 UNL     1      23.040   3.181  49.782  1.00  0.00     0.072 C 
HETATM   16 BR1  UNL     1      22.061   1.873  48.665  1.00  0.00    -0.090 Br
HETATM   17  C16 UNL     1      24.453   3.005  49.456  1.00  0.00     0.073 C 
ENDBRANCH   3   5
BRANCH   1  18
HETATM   18  C5  UNL     1      27.909   6.398  48.578  1.00  0.00     0.133 C 
BRANCH  18  19
HETATM   19  C4  UNL     1      27.266   7.663  48.993  1.00  0.00     0.283 C 
BRANCH  19  20
HETATM   20  N2  UNL     1      27.853   8.839  48.384  1.00  0.00     0.103 N 
HETATM   21  C3  UNL     1      26.909   9.737  47.766  1.00  0.00     0.289 C 
HETATM   22  C2  UNL     1      27.599  11.101  47.579  1.00  0.00     0.137 C 
HETATM   23  N1  UNL     1      27.721  11.686  48.910  1.00  0.00    -0.253 NA
HETATM   24  C1  UNL     1      28.889  12.517  48.992  1.00  0.00     0.130 C 
HETATM   25  N5  UNL     1      27.822  10.666  49.874  1.00  0.00    -0.232 NA
HETATM   26  C17 UNL     1      28.646   9.562  49.388  1.00  0.00     0.378 C 
HETATM   27  H26 UNL     1      26.923  10.323  50.214  1.00  0.00     0.142 HD
ENDBRANCH  19  20
ENDBRANCH  18  19
ENDBRANCH   1  18
TORSDOF 4
ENDMDL
MODEL 4
REMARK VINA RESULT:      -7.3      6.193      8.078
REMARK  4 active torsions:
REMARK  status: ('A' for Active; 'I' for Inactive)
REMARK    1  A    between atoms: N2_5  and  C4_6 
REMARK    2  A    between atoms: C4_6  and  C5_7 
REMARK    3  A    between atoms: C5_7  and  C6_8 
REMARK       I    between atoms: C6_8  and  N3_10 
REMARK    4  A    between atoms: N3_10  and  C7_11 
ROOT
HETATM    1  C6  UNL     1      22.779   0.443  52.838  1.00  0.00     0.223 C 
HETATM    2  O1  UNL     1      22.973   1.662  53.059  1.00  0.00    -0.273 OA
HETATM    3  N3  UNL     1      21.939  -0.384  52.000  1.00  0.00    -0.331 N 
HETATM    4  H12 UNL     1      22.295  -1.308  52.265  1.00  0.00     0.168 HD
ENDROOT
BRANCH   3   5
HETATM    5  C7  UNL     1      20.978   0.326  51.135  1.00  0.00     0.013 C 
HETATM    6  C8  UNL     1      19.707   0.271  51.455  1.00  0.00     0.023 C 
HETATM    7  C9  UNL     1      18.402   0.166  51.851  1.00  0.00     0.050 C 
HETATM    8  C10 UNL     1      17.117   0.353  51.863  1.00  0.00     0.084 C 
HETATM    9  N4  UNL     1      17.150   1.262  50.676  1.00  0.00    -0.408 N 
HETATM   10  C11 UNL     1      17.562   2.632  51.084  1.00  0.00     0.125 C 
HETATM   11  H16 UNL     1      16.934   1.095  49.648  1.00  0.00     0.154 HD
HETATM   12  C12 UNL     1      18.463   3.614  51.223  1.00  0.00    -0.004 C 
HETATM   13  C13 UNL     1      19.927   3.998  50.991  1.00  0.00    -0.022 C 
HETATM   14  C14 UNL     1      21.039   3.493  50.498  1.00  0.00     0.031 C 
HETATM   15  C15 UNL     1      21.826   2.366  49.837  1.00  0.00     0.072 C 
HETATM   16 BR1  UNL     1      21.778   2.877  47.925  1.00  0.00    -0.090 Br
HETATM   17  C16 UNL     1      21.262   1.020  49.904  1.00  0.00     0.073 C 
ENDBRANCH   3   5
BRANCH   1  18
HETATM   18  C5  UNL     1      23.834   0.204  53.865  1.00  0.00     0.133 C 
BRANCH  18  19
HETATM   19  C4  UNL     1      24.938  -0.591  53.283  1.00  0.00     0.283 C 
BRANCH  19  20
HETATM   20  N2  UNL     1      26.235   0.040  53.411  1.00  0.00     0.103 N 
HETATM   21  C3  UNL     1      26.727   0.145  54.763  1.00  0.00     0.289 C 
HETATM   22  C2  UNL     1      28.245   0.401  54.701  1.00  0.00     0.137 C 
HETATM   23  N1  UNL     1      28.856  -0.852  54.271  1.00  0.00    -0.253 NA
HETATM   24  C1  UNL     1      30.050  -0.599  53.516  1.00  0.00     0.130 C 
HETATM   25  N5  UNL     1      27.955  -1.573  53.466  1.00  0.00    -0.232 NA
HETATM   26  C17 UNL     1      27.210  -0.681  52.580  1.00  0.00     0.378 C 
HETATM   27  H26 UNL     1      27.319  -2.176  53.989  1.00  0.00     0.142 HD
ENDBRANCH  19  20
ENDBRANCH  18  19
ENDBRANCH   1  18
TORSDOF 4
ENDMDL
MODEL 5
REMARK VINA RESULT:      -7.1      5.266      8.780
REMARK  4 active torsions:
REMARK  status: ('A' for Active; 'I' for Inactive)
REMARK    1  A    between atoms: N2_5  and  C4_6 
REMARK    2  A    between atoms: C4_6  and  C5_7 
REMARK    3  A    between atoms: C5_7  and  C6_8 
REMARK       I    between atoms: C6_8  and  N3_10 
REMARK    4  A    between atoms: N3_10  and  C7_11 
ROOT
HETATM    1  C6  UNL     1      20.759   0.681  52.197  1.00  0.00     0.223 C 
HETATM    2  O1  UNL     1      20.126   1.521  52.879  1.00  0.00    -0.273 OA
HETATM    3  N3  UNL     1      22.132   0.372  51.865  1.00  0.00    -0.331 N 
HETATM    4  H12 UNL     1      21.982  -0.465  51.292  1.00  0.00     0.168 HD
ENDROOT
BRANCH   3   5
HETATM    5  C7  UNL     1      23.158   1.269  52.428  1.00  0.00     0.013 C 
HETATM    6  C8  UNL     1      24.121   0.730  53.139  1.00  0.00     0.023 C 
HETATM    7  C9  UNL     1      25.089   0.098  53.869  1.00  0.00     0.050 C 
HETATM    8  C10 UNL     1      26.166  -0.066  54.575  1.00  0.00     0.084 C 
HETATM    9  N4  UNL     1      26.529   1.384  54.518  1.00  0.00    -0.408 N 
HETATM   10  C11 UNL     1      27.180   1.704  53.219  1.00  0.00     0.125 C 
HETATM   11  H16 UNL     1      26.406   2.174  55.220  1.00  0.00     0.154 HD
HETATM   12  C12 UNL     1      27.171   2.180  51.967  1.00  0.00    -0.004 C 
HETATM   13  C13 UNL     1      26.293   2.821  50.889  1.00  0.00    -0.022 C 
HETATM   14  C14 UNL     1      25.056   3.235  50.706  1.00  0.00     0.031 C 
HETATM   15  C15 UNL     1      23.629   3.464  51.193  1.00  0.00     0.072 C 
HETATM   16 BR1  UNL     1      23.671   5.360  51.759  1.00  0.00    -0.090 Br
HETATM   17  C16 UNL     1      23.188   2.708  52.363  1.00  0.00     0.073 C 
ENDBRANCH   3   5
BRANCH   1  18
HETATM   18  C5  UNL     1      19.421   0.116  51.856  1.00  0.00     0.133 C 
BRANCH  18  19
HETATM   19  C4  UNL     1      18.995   0.593  50.522  1.00  0.00     0.283 C 
BRANCH  19  20
HETATM   20  N2  UNL     1      17.713   1.267  50.531  1.00  0.00     0.103 N 
HETATM   21  C3  UNL     1      16.877   0.965  51.667  1.00  0.00     0.289 C 
HETATM   22  C2  UNL     1      15.797   2.058  51.769  1.00  0.00     0.137 C 
HETATM   23  N1  UNL     1      16.475   3.266  52.226  1.00  0.00    -0.253 NA
HETATM   24  C1  UNL     1      15.829   4.437  51.703  1.00  0.00     0.130 C 
HETATM   25  N5  UNL     1      17.814   3.256  51.793  1.00  0.00    -0.232 NA
HETATM   26  C17 UNL     1      17.926   2.718  50.439  1.00  0.00     0.378 C 
HETATM   27  H26 UNL     1      18.453   2.776  52.427  1.00  0.00     0.142 HD
ENDBRANCH  19  20
ENDBRANCH  18  19
ENDBRANCH   1  18
TORSDOF 4
ENDMDL
MODEL 6
REMARK VINA RESULT:      -7.1      2.266      3.596
REMARK  4 active torsions:
REMARK  status: ('A' for Active; 'I' for Inactive)
REMARK    1  A    between atoms: N2_5  and  C4_6 
REMARK    2  A    between atoms: C4_6  and  C5_7 
REMARK    3  A    between atoms: C5_7  and  C6_8 
REMARK       I    between atoms: C6_8  and  N3_10 
REMARK    4  A    between atoms: N3_10  and  C7_11 
ROOT
HETATM    1  C6  UNL     1      25.924   5.209  49.693  1.00  0.00     0.223 C 
HETATM    2  O1  UNL     1      26.612   4.758  48.747  1.00  0.00    -0.273 OA
HETATM    3  N3  UNL     1      25.070   4.704  50.745  1.00  0.00    -0.331 N 
HETATM    4  H12 UNL     1      24.839   5.587  51.213  1.00  0.00     0.168 HD
ENDROOT
BRANCH   3   5
HETATM    5  C7  UNL     1      24.871   3.243  50.781  1.00  0.00     0.013 C 
HETATM    6  C8  UNL     1      25.787   2.514  51.372  1.00  0.00     0.023 C 
HETATM    7  C9  UNL     1      26.784   1.820  52.003  1.00  0.00     0.050 C 
HETATM    8  C10 UNL     1      27.436   0.815  52.502  1.00  0.00     0.084 C 
HETATM    9  N4  UNL     1      26.385  -0.174  52.111  1.00  0.00    -0.408 N 
HETATM   10  C11 UNL     1      25.263  -0.151  53.086  1.00  0.00     0.125 C 
HETATM   11  H16 UNL     1      26.321  -0.855  51.295  1.00  0.00     0.154 HD
HETATM   12  C12 UNL     1      24.041   0.222  53.488  1.00  0.00    -0.004 C 
HETATM   13  C13 UNL     1      22.794   1.021  53.095  1.00  0.00    -0.022 C 
HETATM   14  C14 UNL     1      22.330   1.744  52.097  1.00  0.00     0.031 C 
HETATM   15  C15 UNL     1      22.464   2.366  50.711  1.00  0.00     0.072 C 
HETATM   16 BR1  UNL     1      21.529   1.053  49.562  1.00  0.00    -0.090 Br
HETATM   17  C16 UNL     1      23.810   2.493  50.157  1.00  0.00     0.073 C 
ENDBRANCH   3   5
BRANCH   1  18
HETATM   18  C5  UNL     1      26.383   6.553  49.238  1.00  0.00     0.133 C 
BRANCH  18  19
HETATM   19  C4  UNL     1      25.993   7.583  50.226  1.00  0.00     0.283 C 
BRANCH  19  20
HETATM   20  N2  UNL     1      24.802   8.320  49.856  1.00  0.00     0.103 N 
HETATM   21  C3  UNL     1      24.344   8.093  48.508  1.00  0.00     0.289 C 
HETATM   22  C2  UNL     1      22.879   8.560  48.415  1.00  0.00     0.137 C 
HETATM   23  N1  UNL     1      22.088   7.583  49.155  1.00  0.00    -0.253 NA
HETATM   24  C1  UNL     1      20.936   8.206  49.743  1.00  0.00     0.130 C 
HETATM   25  N5  UNL     1      22.866   7.012  50.178  1.00  0.00    -0.232 NA
HETATM   26  C17 UNL     1      23.725   8.013  50.808  1.00  0.00     0.378 C 
HETATM   27  H26 UNL     1      23.413   6.202  49.885  1.00  0.00     0.142 HD
ENDBRANCH  19  20
ENDBRANCH  18  19
ENDBRANCH   1  18
TORSDOF 4
ENDMDL
MODEL 7
REMARK VINA RESULT:      -7.0      3.023      8.332
REMARK  4 active torsions:
REMARK  status: ('A' for Active; 'I' for Inactive)
REMARK    1  A    between atoms: N2_5  and  C4_6 
REMARK    2  A    between atoms: C4_6  and  C5_7 
REMARK    3  A    between atoms: C5_7  and  C6_8 
REMARK       I    between atoms: C6_8  and  N3_10 
REMARK    4  A    between atoms: N3_10  and  C7_11 
ROOT
HETATM    1  C6  UNL     1      25.991   4.592  49.486  1.00  0.00     0.223 C 
HETATM    2  O1  UNL     1      25.383   5.402  50.225  1.00  0.00    -0.273 OA
HETATM    3  N3  UNL     1      27.151   4.576  48.623  1.00  0.00    -0.331 N 
HETATM    4  H12 UNL     1      27.133   3.592  48.335  1.00  0.00     0.168 HD
ENDROOT
BRANCH   3   5
HETATM    5  C7  UNL     1      27.886   5.849  48.494  1.00  0.00     0.013 C 
HETATM    6  C8  UNL     1      29.162   5.792  48.193  1.00  0.00     0.023 C 
HETATM    7  C9  UNL     1      30.486   5.654  47.880  1.00  0.00     0.050 C 
HETATM    8  C10 UNL     1      31.705   5.985  47.579  1.00  0.00     0.084 C 
HETATM    9  N4  UNL     1      31.406   7.450  47.608  1.00  0.00    -0.408 N 
HETATM   10  C11 UNL     1      30.757   7.872  46.337  1.00  0.00     0.125 C 
HETATM   11  H16 UNL     1      31.578   8.195  48.348  1.00  0.00     0.154 HD
HETATM   12  C12 UNL     1      29.690   8.186  45.591  1.00  0.00    -0.004 C 
HETATM   13  C13 UNL     1      28.166   8.334  45.604  1.00  0.00    -0.022 C 
HETATM   14  C14 UNL     1      27.146   8.221  46.429  1.00  0.00     0.031 C 
HETATM   15  C15 UNL     1      26.556   7.928  47.805  1.00  0.00     0.072 C 
HETATM   16 BR1  UNL     1      26.366   9.738  48.582  1.00  0.00    -0.090 Br
HETATM   17  C16 UNL     1      27.382   7.175  48.746  1.00  0.00     0.073 C 
ENDBRANCH   3   5
BRANCH   1  18
HETATM   18  C5  UNL     1      24.946   3.609  49.894  1.00  0.00     0.133 C 
BRANCH  18  19
HETATM   19  C4  UNL     1      24.891   3.511  51.370  1.00  0.00     0.283 C 
BRANCH  19  20
HETATM   20  N2  UNL     1      25.251   2.203  51.877  1.00  0.00     0.103 N 
HETATM   21  C3  UNL     1      26.571   1.753  51.512  1.00  0.00     0.289 C 
HETATM   22  C2  UNL     1      26.966   0.607  52.463  1.00  0.00     0.137 C 
HETATM   23  N1  UNL     1      27.222   1.220  53.762  1.00  0.00    -0.253 NA
HETATM   24  C1  UNL     1      26.897   0.310  54.823  1.00  0.00     0.130 C 
HETATM   25  N5  UNL     1      26.440   2.381  53.905  1.00  0.00    -0.232 NA
HETATM   26  C17 UNL     1      25.106   2.192  53.339  1.00  0.00     0.378 C 
HETATM   27  H26 UNL     1      26.874   3.226  53.531  1.00  0.00     0.142 HD
ENDBRANCH  19  20
ENDBRANCH  18  19
ENDBRANCH   1  18
TORSDOF 4
ENDMDL
MODEL 8
REMARK VINA RESULT:      -6.8      3.560      5.519
REMARK  4 active torsions:
REMARK  status: ('A' for Active; 'I' for Inactive)
REMARK    1  A    between atoms: N2_5  and  C4_6 
REMARK    2  A    between atoms: C4_6  and  C5_7 
REMARK    3  A    between atoms: C5_7  and  C6_8 
REMARK       I    between atoms: C6_8  and  N3_10 
REMARK    4  A    between atoms: N3_10  and  C7_11 
ROOT
HETATM    1  C6  UNL     1      28.722   8.576  48.985  1.00  0.00     0.223 C 
HETATM    2  O1  UNL     1      28.197   9.209  49.931  1.00  0.00    -0.273 OA
HETATM    3  N3  UNL     1      28.353   7.553  48.031  1.00  0.00    -0.331 N 
HETATM    4  H12 UNL     1      29.227   7.499  47.497  1.00  0.00     0.168 HD
ENDROOT
BRANCH   3   5
HETATM    5  C7  UNL     1      26.983   7.020  48.143  1.00  0.00     0.013 C 
HETATM    6  C8  UNL     1      26.831   5.820  48.651  1.00  0.00     0.023 C 
HETATM    7  C9  UNL     1      26.752   4.564  49.187  1.00  0.00     0.050 C 
HETATM    8  C10 UNL     1      26.226   3.468  49.644  1.00  0.00     0.084 C 
HETATM    9  N4  UNL     1      24.826   3.942  49.413  1.00  0.00    -0.408 N 
HETATM   10  C11 UNL     1      24.398   4.850  50.510  1.00  0.00     0.125 C 
HETATM   11  H16 UNL     1      24.128   3.738  48.636  1.00  0.00     0.154 HD
HETATM   12  C12 UNL     1      24.180   6.063  51.036  1.00  0.00    -0.004 C 
HETATM   13  C13 UNL     1      24.253   7.567  50.761  1.00  0.00    -0.022 C 
HETATM   14  C14 UNL     1      24.579   8.405  49.798  1.00  0.00     0.031 C 
HETATM   15  C15 UNL     1      25.065   8.703  48.383  1.00  0.00     0.072 C 
HETATM   16 BR1  UNL     1      23.371   8.983  47.399  1.00  0.00    -0.090 Br
HETATM   17  C16 UNL     1      25.767   7.636  47.674  1.00  0.00     0.073 C 
ENDBRANCH   3   5
BRANCH   1  18
HETATM   18  C5  UNL     1      29.951   9.366  49.287  1.00  0.00     0.133 C 
BRANCH  18  19
HETATM   19  C4  UNL     1      30.814   9.439  48.088  1.00  0.00     0.283 C 
BRANCH  19  20
HETATM   20  N2  UNL     1      31.898   8.478  48.095  1.00  0.00     0.103 N 
HETATM   21  C3  UNL     1      32.013   7.703  49.305  1.00  0.00     0.289 C 
HETATM   22  C2  UNL     1      32.874   6.463  48.999  1.00  0.00     0.137 C 
HETATM   23  N1  UNL     1      32.053   5.585  48.174  1.00  0.00    -0.253 NA
HETATM   24  C1  UNL     1      32.873   4.825  47.273  1.00  0.00     0.130 C 
HETATM   25  N5  UNL     1      31.142   6.348  47.422  1.00  0.00    -0.232 NA
HETATM   26  C17 UNL     1      31.760   7.581  46.939  1.00  0.00     0.378 C 
HETATM   27  H26 UNL     1      30.266   6.549  47.906  1.00  0.00     0.142 HD
ENDBRANCH  19  20
ENDBRANCH  18  19
ENDBRANCH   1  18
TORSDOF 4
ENDMDL
MODEL 9
REMARK VINA RESULT:      -6.8      1.882      2.408
REMARK  4 active torsions:
REMARK  status: ('A' for Active; 'I' for Inactive)
REMARK    1  A    between atoms: N2_5  and  C4_6 
REMARK    2  A    between atoms: C4_6  and  C5_7 
REMARK    3  A    between atoms: C5_7  and  C6_8 
REMARK       I    between atoms: C6_8  and  N3_10 
REMARK    4  A    between atoms: N3_10  and  C7_11 
ROOT
HETATM    1  C6  UNL     1      26.846   5.789  48.925  1.00  0.00     0.223 C 
HETATM    2  O1  UNL     1      25.989   6.584  49.379  1.00  0.00    -0.273 OA
HETATM    3  N3  UNL     1      27.099   4.366  48.911  1.00  0.00    -0.331 N 
HETATM    4  H12 UNL     1      27.949   4.352  48.336  1.00  0.00     0.168 HD
ENDROOT
BRANCH   3   5
HETATM    5  C7  UNL     1      26.132   3.522  49.637  1.00  0.00     0.013 C 
HETATM    6  C8  UNL     1      26.552   2.888  50.706  1.00  0.00     0.023 C 
HETATM    7  C9  UNL     1      27.063   2.257  51.807  1.00  0.00     0.050 C 
HETATM    8  C10 UNL     1      27.103   1.527  52.879  1.00  0.00     0.084 C 
HETATM    9  N4  UNL     1      25.644   1.204  52.819  1.00  0.00    -0.408 N 
HETATM   10  C11 UNL     1      24.841   2.330  53.365  1.00  0.00     0.125 C 
HETATM   11  H16 UNL     1      25.122   0.344  52.472  1.00  0.00     0.154 HD
HETATM   12  C12 UNL     1      24.084   3.427  53.234  1.00  0.00    -0.004 C 
HETATM   13  C13 UNL     1      23.452   4.386  52.221  1.00  0.00    -0.022 C 
HETATM   14  C14 UNL     1      23.355   4.562  50.920  1.00  0.00     0.031 C 
HETATM   15  C15 UNL     1      23.652   4.149  49.481  1.00  0.00     0.072 C 
HETATM   16 BR1  UNL     1      22.024   3.141  48.982  1.00  0.00    -0.090 Br
HETATM   17  C16 UNL     1      24.770   3.236  49.260  1.00  0.00     0.073 C 
ENDBRANCH   3   5
BRANCH   1  18
HETATM   18  C5  UNL     1      27.525   7.004  48.390  1.00  0.00     0.133 C 
BRANCH  18  19
HETATM   19  C4  UNL     1      28.935   6.694  48.063  1.00  0.00     0.283 C 
BRANCH  19  20
HETATM   20  N2  UNL     1      29.880   7.636  48.625  1.00  0.00     0.103 N 
HETATM   21  C3  UNL     1      31.009   7.938  47.781  1.00  0.00     0.289 C 
HETATM   22  C2  UNL     1      31.652   9.242  48.292  1.00  0.00     0.137 C 
HETATM   23  N1  UNL     1      30.735  10.319  47.939  1.00  0.00    -0.253 NA
HETATM   24  C1  UNL     1      30.808  11.382  48.901  1.00  0.00     0.130 C 
HETATM   25  N5  UNL     1      29.415   9.832  47.903  1.00  0.00    -0.232 NA
HETATM   26  C17 UNL     1      29.177   8.876  48.982  1.00  0.00     0.378 C 
HETATM   27  H26 UNL     1      29.141   9.436  47.003  1.00  0.00     0.142 HD
ENDBRANCH  19  20
ENDBRANCH  18  19
ENDBRANCH   1  18
TORSDOF 4
ENDMDL
