MODEL 1
REMARK VINA RESULT:      -7.7      0.000      0.000
REMARK  5 active torsions:
REMARK  status: ('A' for Active; 'I' for Inactive)
REMARK    1  A    between atoms: N1_3  and  C3_4 
REMARK    2  A    between atoms: C3_4  and  N2_5 
REMARK    3  A    between atoms: N2_5  and  C4_6 
REMARK       I    between atoms: N4_13  and  C10_14 
REMARK    4  A    between atoms: C10_14  and  C11_16 
REMARK    5  A    between atoms: C17_22  and  O2_23 
ROOT
HETATM    1  C4  UNL     1      25.606  -0.148  53.183  1.00  0.00     0.062 C 
HETATM    2  C5  UNL     1      24.414  -0.487  53.658  1.00  0.00     0.033 C 
HETATM    3  C6  UNL     1      23.110   0.215  53.600  1.00  0.00     0.019 C 
HETATM    4  C7  UNL     1      22.665   1.259  52.913  1.00  0.00     0.086 C 
HETATM    5  N3  UNL     1      23.254   2.130  51.954  1.00  0.00    -0.379 N 
HETATM    6  C8  UNL     1      22.565   3.408  52.090  1.00  0.00     0.143 C 
HETATM    7  C9  UNL     1      23.486   4.572  51.874  1.00  0.00     0.145 C 
HETATM    8  N4  UNL     1      24.222   4.528  50.663  1.00  0.00    -0.348 N 
HETATM    9  C10 UNL     1      24.884   5.641  50.079  1.00  0.00     0.223 C 
HETATM   10  O1  UNL     1      25.511   5.469  48.996  1.00  0.00    -0.273 OA
HETATM   11  C14 UNL     1      24.259   3.240  50.033  1.00  0.00     0.155 C 
HETATM   12  C15 UNL     1      24.294   2.072  50.945  1.00  0.00     0.127 C 
HETATM   13  C16 UNL     1      25.627   1.851  51.566  1.00  0.00     0.039 C 
HETATM   14  C17 UNL     1      26.152   1.001  52.431  1.00  0.00     0.092 C 
ENDROOT
BRANCH   1  15
HETATM   15  N2  UNL     1      26.613  -1.109  53.452  1.00  0.00    -0.370 N 
HETATM   16  H7  UNL     1      27.039  -1.032  54.418  1.00  0.00     0.161 HD
BRANCH  15  17
HETATM   17  C3  UNL     1      27.029  -2.108  52.502  1.00  0.00     0.269 C 
BRANCH  17  18
HETATM   18  N1  UNL     1      28.162  -2.824  53.002  1.00  0.00    -0.287 NA
HETATM   19  C2  UNL     1      29.244  -2.279  53.352  1.00  0.00     0.081 C 
HETATM   20  C1  UNL     1      29.936  -0.973  53.478  1.00  0.00     0.057 C 
ENDBRANCH  17  18
ENDBRANCH  15  17
ENDBRANCH   1  15
BRANCH  14  21
HETATM   21  O2  UNL     1      27.516   1.216  52.708  1.00  0.00    -0.354 OA
HETATM   22  C18 UNL     1      28.013   2.286  53.447  1.00  0.00     0.210 C 
ENDBRANCH  14  21
BRANCH   9  23
HETATM   23  C11 UNL     1      24.869   6.989  50.686  1.00  0.00     0.070 C 
HETATM   24  C12 UNL     1      23.548   7.645  50.306  1.00  0.00     0.019 C 
HETATM   25  C13 UNL     1      26.061   7.827  50.283  1.00  0.00     0.019 C 
ENDBRANCH   9  23
TORSDOF 5
ENDMDL
MODEL 2
REMARK VINA RESULT:      -7.4      2.817      4.504
REMARK  5 active torsions:
REMARK  status: ('A' for Active; 'I' for Inactive)
REMARK    1  A    between atoms: N1_3  and  C3_4 
REMARK    2  A    between atoms: C3_4  and  N2_5 
REMARK    3  A    between atoms: N2_5  and  C4_6 
REMARK       I    between atoms: N4_13  and  C10_14 
REMARK    4  A    between atoms: C10_14  and  C11_16 
REMARK    5  A    between atoms: C17_22  and  O2_23 
ROOT
HETATM    1  C4  UNL     1      25.790   0.792  52.637  1.00  0.00     0.062 C 
HETATM    2  C5  UNL     1      26.667   1.448  51.889  1.00  0.00     0.033 C 
HETATM    3  C6  UNL     1      26.474   2.501  50.864  1.00  0.00     0.019 C 
HETATM    4  C7  UNL     1      25.440   3.255  50.513  1.00  0.00     0.086 C 
HETATM    5  N3  UNL     1      24.098   3.362  50.975  1.00  0.00    -0.379 N 
HETATM    6  C8  UNL     1      23.309   3.800  49.830  1.00  0.00     0.143 C 
HETATM    7  C9  UNL     1      21.941   3.185  49.819  1.00  0.00     0.145 C 
HETATM    8  N4  UNL     1      21.208   3.347  51.021  1.00  0.00    -0.348 N 
HETATM    9  C10 UNL     1      19.805   3.162  51.144  1.00  0.00     0.223 C 
HETATM   10  O1  UNL     1      19.271   3.333  52.275  1.00  0.00    -0.273 OA
HETATM   11  C14 UNL     1      21.999   3.726  52.156  1.00  0.00     0.155 C 
HETATM   12  C15 UNL     1      23.368   3.160  52.212  1.00  0.00     0.127 C 
HETATM   13  C16 UNL     1      23.396   1.730  52.620  1.00  0.00     0.039 C 
HETATM   14  C17 UNL     1      24.320   0.800  52.790  1.00  0.00     0.092 C 
ENDROOT
BRANCH   1  15
HETATM   15  N2  UNL     1      26.389  -0.152  53.509  1.00  0.00    -0.370 N 
HETATM   16  H7  UNL     1      26.530  -1.110  53.082  1.00  0.00     0.161 HD
BRANCH  15  17
HETATM   17  C3  UNL     1      26.777   0.154  54.862  1.00  0.00     0.269 C 
BRANCH  17  18
HETATM   18  N1  UNL     1      28.081   0.744  54.881  1.00  0.00    -0.287 NA
HETATM   19  C2  UNL     1      29.107   0.202  54.389  1.00  0.00     0.081 C 
HETATM   20  C1  UNL     1      29.596  -1.005  53.678  1.00  0.00     0.057 C 
ENDBRANCH  17  18
ENDBRANCH  15  17
ENDBRANCH   1  15
BRANCH  14  21
HETATM   21  O2  UNL     1      23.822  -0.451  53.202  1.00  0.00    -0.354 OA
HETATM   22  C18 UNL     1      22.471  -0.766  53.315  1.00  0.00     0.210 C 
ENDBRANCH  14  21
BRANCH   9  23
HETATM   23  C11 UNL     1      18.947   2.778  50.003  1.00  0.00     0.070 C 
HETATM   24  C12 UNL     1      17.713   3.668  50.041  1.00  0.00     0.019 C 
HETATM   25  C13 UNL     1      18.592   1.307  50.005  1.00  0.00     0.019 C 
ENDBRANCH   9  23
TORSDOF 5
ENDMDL
MODEL 3
REMARK VINA RESULT:      -7.3      1.913      2.267
REMARK  5 active torsions:
REMARK  status: ('A' for Active; 'I' for Inactive)
REMARK    1  A    between atoms: N1_3  and  C3_4 
REMARK    2  A    between atoms: C3_4  and  N2_5 
REMARK    3  A    between atoms: N2_5  and  C4_6 
REMARK       I    between atoms: N4_13  and  C10_14 
REMARK    4  A    between atoms: C10_14  and  C11_16 
REMARK    5  A    between atoms: C17_22  and  O2_23 
ROOT
HETATM    1  C4  UNL     1      24.804  -0.262  53.676  1.00  0.00     0.062 C 
HETATM    2  C5  UNL     1      23.861  -0.909  54.348  1.00  0.00     0.033 C 
HETATM    3  C6  UNL     1      22.396  -0.691  54.419  1.00  0.00     0.019 C 
HETATM    4  C7  UNL     1      21.548   0.047  53.715  1.00  0.00     0.086 C 
HETATM    5  N3  UNL     1      21.694   0.928  52.607  1.00  0.00    -0.379 N 
HETATM    6  C8  UNL     1      20.626   1.914  52.729  1.00  0.00     0.143 C 
HETATM    7  C9  UNL     1      21.061   3.276  52.278  1.00  0.00     0.145 C 
HETATM    8  N4  UNL     1      21.632   3.317  50.981  1.00  0.00    -0.348 N 
HETATM    9  C10 UNL     1      21.804   4.498  50.210  1.00  0.00     0.223 C 
HETATM   10  O1  UNL     1      22.332   4.400  49.067  1.00  0.00    -0.273 OA
HETATM   11  C14 UNL     1      22.042   2.042  50.469  1.00  0.00     0.155 C 
HETATM   12  C15 UNL     1      22.576   1.083  51.466  1.00  0.00     0.127 C 
HETATM   13  C16 UNL     1      23.962   1.399  51.903  1.00  0.00     0.039 C 
HETATM   14  C17 UNL     1      24.838   0.892  52.753  1.00  0.00     0.092 C 
ENDROOT
BRANCH   1  15
HETATM   15  N2  UNL     1      26.104  -0.792  53.879  1.00  0.00    -0.370 N 
HETATM   16  H7  UNL     1      26.506  -0.599  54.839  1.00  0.00     0.161 HD
BRANCH  15  17
HETATM   17  C3  UNL     1      26.823  -1.531  52.875  1.00  0.00     0.269 C 
BRANCH  17  18
HETATM   18  N1  UNL     1      28.102  -1.931  53.377  1.00  0.00    -0.287 NA
HETATM   19  C2  UNL     1      29.055  -1.136  53.597  1.00  0.00     0.081 C 
HETATM   20  C1  UNL     1      29.457   0.291  53.535  1.00  0.00     0.057 C 
ENDBRANCH  17  18
ENDBRANCH  15  17
ENDBRANCH   1  15
BRANCH  14  21
HETATM   21  O2  UNL     1      26.065   1.580  52.808  1.00  0.00    -0.354 OA
HETATM   22  C18 UNL     1      26.706   2.143  51.708  1.00  0.00     0.210 C 
ENDBRANCH  14  21
BRANCH   9  23
HETATM   23  C11 UNL     1      21.391   5.833  50.691  1.00  0.00     0.070 C 
HETATM   24  C12 UNL     1      20.337   6.359  49.727  1.00  0.00     0.019 C 
HETATM   25  C13 UNL     1      22.554   6.787  50.843  1.00  0.00     0.019 C 
ENDBRANCH   9  23
TORSDOF 5
ENDMDL
MODEL 4
REMARK VINA RESULT:      -6.9      3.063      4.008
REMARK  5 active torsions:
REMARK  status: ('A' for Active; 'I' for Inactive)
REMARK    1  A    between atoms: N1_3  and  C3_4 
REMARK    2  A    between atoms: C3_4  and  N2_5 
REMARK    3  A    between atoms: N2_5  and  C4_6 
REMARK       I    between atoms: N4_13  and  C10_14 
REMARK    4  A    between atoms: C10_14  and  C11_16 
REMARK    5  A    between atoms: C17_22  and  O2_23 
ROOT
HETATM    1  C4  UNL     1      24.329   0.388  53.010  1.00  0.00     0.062 C 
HETATM    2  C5  UNL     1      23.740  -0.495  53.805  1.00  0.00     0.033 C 
HETATM    3  C6  UNL     1      22.307  -0.824  53.998  1.00  0.00     0.019 C 
HETATM    4  C7  UNL     1      21.202  -0.517  53.331  1.00  0.00     0.086 C 
HETATM    5  N3  UNL     1      20.940   0.251  52.162  1.00  0.00    -0.379 N 
HETATM    6  C8  UNL     1      19.591   0.782  52.320  1.00  0.00     0.143 C 
HETATM    7  C9  UNL     1      19.457   2.162  51.747  1.00  0.00     0.145 C 
HETATM    8  N4  UNL     1      19.889   2.289  50.403  1.00  0.00    -0.348 N 
HETATM    9  C10 UNL     1      19.558   3.375  49.548  1.00  0.00     0.223 C 
HETATM   10  O1  UNL     1      20.012   3.373  48.369  1.00  0.00    -0.273 OA
HETATM   11  C14 UNL     1      20.712   1.213  49.935  1.00  0.00     0.155 C 
HETATM   12  C15 UNL     1      21.626   0.612  50.937  1.00  0.00     0.127 C 
HETATM   13  C16 UNL     1      22.819   1.454  51.222  1.00  0.00     0.039 C 
HETATM   14  C17 UNL     1      23.872   1.384  52.018  1.00  0.00     0.092 C 
ENDROOT
BRANCH   1  15
HETATM   15  N2  UNL     1      25.743   0.393  53.125  1.00  0.00    -0.370 N 
HETATM   16  H7  UNL     1      26.206   1.266  52.747  1.00  0.00     0.161 HD
BRANCH  15  17
HETATM   17  C3  UNL     1      26.494  -0.691  53.704  1.00  0.00     0.269 C 
BRANCH  17  18
HETATM   18  N1  UNL     1      27.415  -0.189  54.677  1.00  0.00    -0.287 NA
HETATM   19  C2  UNL     1      28.665  -0.162  54.518  1.00  0.00     0.081 C 
HETATM   20  C1  UNL     1      29.755  -0.497  53.568  1.00  0.00     0.057 C 
ENDBRANCH  17  18
ENDBRANCH  15  17
ENDBRANCH   1  15
BRANCH  14  21
HETATM   21  O2  UNL     1      24.755   2.476  51.917  1.00  0.00    -0.354 OA
HETATM   22  C18 UNL     1      25.084   3.118  50.727  1.00  0.00     0.210 C 
ENDBRANCH  14  21
BRANCH   9  23
HETATM   23  C11 UNL     1      18.708   4.504  49.981  1.00  0.00     0.070 C 
HETATM   24  C12 UNL     1      17.307   4.252  49.442  1.00  0.00     0.019 C 
HETATM   25  C13 UNL     1      19.254   5.847  49.551  1.00  0.00     0.019 C 
ENDBRANCH   9  23
TORSDOF 5
ENDMDL
MODEL 5
REMARK VINA RESULT:      -6.7      4.049      7.905
REMARK  5 active torsions:
REMARK  status: ('A' for Active; 'I' for Inactive)
REMARK    1  A    between atoms: N1_3  and  C3_4 
REMARK    2  A    between atoms: C3_4  and  N2_5 
REMARK    3  A    between atoms: N2_5  and  C4_6 
REMARK       I    between atoms: N4_13  and  C10_14 
REMARK    4  A    between atoms: C10_14  and  C11_16 
REMARK    5  A    between atoms: C17_22  and  O2_23 
ROOT
HETATM    1  C4  UNL     1      18.437   0.558  50.313  1.00  0.00     0.062 C 
HETATM    2  C5  UNL     1      17.663  -0.155  51.121  1.00  0.00     0.033 C 
HETATM    3  C6  UNL     1      17.965  -0.844  52.397  1.00  0.00     0.019 C 
HETATM    4  C7  UNL     1      18.998  -0.812  53.230  1.00  0.00     0.086 C 
HETATM    5  N3  UNL     1      20.233  -0.105  53.239  1.00  0.00    -0.379 N 
HETATM    6  C8  UNL     1      21.179  -0.950  53.958  1.00  0.00     0.143 C 
HETATM    7  C9  UNL     1      22.562  -0.864  53.385  1.00  0.00     0.145 C 
HETATM    8  N4  UNL     1      23.069   0.454  53.256  1.00  0.00    -0.348 N 
HETATM    9  C10 UNL     1      24.439   0.777  53.068  1.00  0.00     0.223 C 
HETATM   10  O1  UNL     1      24.762   1.993  52.961  1.00  0.00    -0.273 OA
HETATM   11  C14 UNL     1      22.076   1.485  53.332  1.00  0.00     0.155 C 
HETATM   12  C15 UNL     1      20.753   1.157  52.749  1.00  0.00     0.127 C 
HETATM   13  C16 UNL     1      20.739   1.197  51.262  1.00  0.00     0.039 C 
HETATM   14  C17 UNL     1      19.856   0.970  50.305  1.00  0.00     0.092 C 
ENDROOT
BRANCH   1  15
HETATM   15  N2  UNL     1      17.754   1.056  49.174  1.00  0.00    -0.370 N 
HETATM   16  H7  UNL     1      17.860   0.456  48.308  1.00  0.00     0.161 HD
BRANCH  15  17
HETATM   17  C3  UNL     1      16.980   2.270  49.182  1.00  0.00     0.269 C 
BRANCH  17  18
HETATM   18  N1  UNL     1      17.634   3.278  48.405  1.00  0.00    -0.287 NA
HETATM   19  C2  UNL     1      18.430   4.132  48.881  1.00  0.00     0.081 C 
HETATM   20  C1  UNL     1      19.073   4.595  50.136  1.00  0.00     0.057 C 
ENDBRANCH  17  18
ENDBRANCH  15  17
ENDBRANCH   1  15
BRANCH  14  21
HETATM   21  O2  UNL     1      20.349   1.151  48.999  1.00  0.00    -0.354 OA
HETATM   22  C18 UNL     1      21.650   1.538  48.691  1.00  0.00     0.210 C 
ENDBRANCH  14  21
BRANCH   9  23
HETATM   23  C11 UNL     1      25.500  -0.250  52.990  1.00  0.00     0.070 C 
HETATM   24  C12 UNL     1      26.079  -0.412  54.389  1.00  0.00     0.019 C 
HETATM   25  C13 UNL     1      26.562   0.081  51.965  1.00  0.00     0.019 C 
ENDBRANCH   9  23
TORSDOF 5
ENDMDL
MODEL 6
REMARK VINA RESULT:      -6.5      7.810      9.842
REMARK  5 active torsions:
REMARK  status: ('A' for Active; 'I' for Inactive)
REMARK    1  A    between atoms: N1_3  and  C3_4 
REMARK    2  A    between atoms: C3_4  and  N2_5 
REMARK    3  A    between atoms: N2_5  and  C4_6 
REMARK       I    between atoms: N4_13  and  C10_14 
REMARK    4  A    between atoms: C10_14  and  C11_16 
REMARK    5  A    between atoms: C17_22  and  O2_23 
ROOT
HETATM    1  C4  UNL     1      33.141   6.305  48.198  1.00  0.00     0.062 C 
HETATM    2  C5  UNL     1      34.107   7.005  47.618  1.00  0.00     0.033 C 
HETATM    3  C6  UNL     1      34.125   8.395  47.103  1.00  0.00     0.019 C 
HETATM    4  C7  UNL     1      33.297   9.424  47.226  1.00  0.00     0.086 C 
HETATM    5  N3  UNL     1      32.059   9.617  47.901  1.00  0.00    -0.379 N 
HETATM    6  C8  UNL     1      31.336  10.631  47.141  1.00  0.00     0.143 C 
HETATM    7  C9  UNL     1      29.859  10.373  47.118  1.00  0.00     0.145 C 
HETATM    8  N4  UNL     1      29.270  10.191  48.395  1.00  0.00    -0.348 N 
HETATM    9  C10 UNL     1      27.876  10.272  48.660  1.00  0.00     0.223 C 
HETATM   10  O1  UNL     1      27.476  10.085  49.843  1.00  0.00    -0.273 OA
HETATM   11  C14 UNL     1      30.201   9.912  49.448  1.00  0.00     0.155 C 
HETATM   12  C15 UNL     1      31.381   9.097  49.072  1.00  0.00     0.127 C 
HETATM   13  C16 UNL     1      31.070   7.652  48.910  1.00  0.00     0.039 C 
HETATM   14  C17 UNL     1      31.735   6.560  48.574  1.00  0.00     0.092 C 
ENDROOT
BRANCH   1  15
HETATM   15  N2  UNL     1      33.534   4.989  48.550  1.00  0.00    -0.370 N 
HETATM   16  H7  UNL     1      32.736   4.365  48.857  1.00  0.00     0.161 HD
BRANCH  15  17
HETATM   17  C3  UNL     1      34.897   4.529  48.498  1.00  0.00     0.269 C 
BRANCH  17  18
HETATM   18  N1  UNL     1      34.976   3.294  47.779  1.00  0.00    -0.287 NA
HETATM   19  C2  UNL     1      35.005   3.211  46.522  1.00  0.00     0.081 C 
HETATM   20  C1  UNL     1      34.988   4.009  45.271  1.00  0.00     0.057 C 
ENDBRANCH  17  18
ENDBRANCH  15  17
ENDBRANCH   1  15
BRANCH  14  21
HETATM   21  O2  UNL     1      30.961   5.383  48.564  1.00  0.00    -0.354 OA
HETATM   22  C18 UNL     1      29.642   5.308  48.127  1.00  0.00     0.210 C 
ENDBRANCH  14  21
BRANCH   9  23
HETATM   23  C11 UNL     1      26.878  10.564  47.609  1.00  0.00     0.070 C 
HETATM   24  C12 UNL     1      25.861  11.528  48.203  1.00  0.00     0.019 C 
HETATM   25  C13 UNL     1      26.228   9.316  47.055  1.00  0.00     0.019 C 
ENDBRANCH   9  23
TORSDOF 5
ENDMDL
MODEL 7
REMARK VINA RESULT:      -6.5      3.355      5.957
REMARK  5 active torsions:
REMARK  status: ('A' for Active; 'I' for Inactive)
REMARK    1  A    between atoms: N1_3  and  C3_4 
REMARK    2  A    between atoms: C3_4  and  N2_5 
REMARK    3  A    between atoms: N2_5  and  C4_6 
REMARK       I    between atoms: N4_13  and  C10_14 
REMARK    4  A    between atoms: C10_14  and  C11_16 
REMARK    5  A    between atoms: C17_22  and  O2_23 
ROOT
HETATM    1  C4  UNL     1      20.922   0.118  53.446  1.00  0.00     0.062 C 
HETATM    2  C5  UNL     1      21.801  -0.825  53.758  1.00  0.00     0.033 C 
HETATM    3  C6  UNL     1      23.261  -0.909  53.516  1.00  0.00     0.019 C 
HETATM    4  C7  UNL     1      24.173  -0.032  53.116  1.00  0.00     0.086 C 
HETATM    5  N3  UNL     1      24.123   1.345  52.758  1.00  0.00    -0.379 N 
HETATM    6  C8  UNL     1      25.201   1.553  51.797  1.00  0.00     0.143 C 
HETATM    7  C9  UNL     1      24.827   2.545  50.736  1.00  0.00     0.145 C 
HETATM    8  N4  UNL     1      24.351   3.786  51.228  1.00  0.00    -0.348 N 
HETATM    9  C10 UNL     1      24.259   4.978  50.460  1.00  0.00     0.223 C 
HETATM   10  O1  UNL     1      23.811   6.020  51.015  1.00  0.00    -0.273 OA
HETATM   11  C14 UNL     1      23.951   3.770  52.605  1.00  0.00     0.155 C 
HETATM   12  C15 UNL     1      23.329   2.512  53.085  1.00  0.00     0.127 C 
HETATM   13  C16 UNL     1      21.922   2.343  52.633  1.00  0.00     0.039 C 
HETATM   14  C17 UNL     1      20.978   1.427  52.763  1.00  0.00     0.092 C 
ENDROOT
BRANCH   1  15
HETATM   15  N2  UNL     1      19.600  -0.186  53.861  1.00  0.00    -0.370 N 
HETATM   16  H7  UNL     1      19.156   0.555  54.472  1.00  0.00     0.161 HD
BRANCH  15  17
HETATM   17  C3  UNL     1      18.912  -1.395  53.490  1.00  0.00     0.269 C 
BRANCH  17  18
HETATM   18  N1  UNL     1      17.498  -1.176  53.481  1.00  0.00    -0.287 NA
HETATM   19  C2  UNL     1      16.857  -0.740  52.486  1.00  0.00     0.081 C 
HETATM   20  C1  UNL     1      17.000  -0.284  51.081  1.00  0.00     0.057 C 
ENDBRANCH  17  18
ENDBRANCH  15  17
ENDBRANCH   1  15
BRANCH  14  21
HETATM   21  O2  UNL     1      19.764   1.744  52.123  1.00  0.00    -0.354 OA
HETATM   22  C18 UNL     1      19.637   2.647  51.072  1.00  0.00     0.210 C 
ENDBRANCH  14  21
BRANCH   9  23
HETATM   23  C11 UNL     1      24.664   5.046  49.040  1.00  0.00     0.070 C 
HETATM   24  C12 UNL     1      26.089   5.582  48.999  1.00  0.00     0.019 C 
HETATM   25  C13 UNL     1      23.717   5.873  48.199  1.00  0.00     0.019 C 
ENDBRANCH   9  23
TORSDOF 5
ENDMDL
MODEL 8
REMARK VINA RESULT:      -6.2      3.312      6.115
REMARK  5 active torsions:
REMARK  status: ('A' for Active; 'I' for Inactive)
REMARK    1  A    between atoms: N1_3  and  C3_4 
REMARK    2  A    between atoms: C3_4  and  N2_5 
REMARK    3  A    between atoms: N2_5  and  C4_6 
REMARK       I    between atoms: N4_13  and  C10_14 
REMARK    4  A    between atoms: C10_14  and  C11_16 
REMARK    5  A    between atoms: C17_22  and  O2_23 
ROOT
HETATM    1  C4  UNL     1      25.283   2.969  51.285  1.00  0.00     0.062 C 
HETATM    2  C5  UNL     1      25.693   2.158  52.252  1.00  0.00     0.033 C 
HETATM    3  C6  UNL     1      24.938   1.225  53.121  1.00  0.00     0.019 C 
HETATM    4  C7  UNL     1      23.700   0.750  53.092  1.00  0.00     0.086 C 
HETATM    5  N3  UNL     1      22.592   0.941  52.219  1.00  0.00    -0.379 N 
HETATM    6  C8  UNL     1      21.397   0.750  53.032  1.00  0.00     0.143 C 
HETATM    7  C9  UNL     1      20.284   1.669  52.625  1.00  0.00     0.145 C 
HETATM    8  N4  UNL     1      19.960   1.632  51.245  1.00  0.00    -0.348 N 
HETATM    9  C10 UNL     1      18.756   2.135  50.684  1.00  0.00     0.223 C 
HETATM   10  O1  UNL     1      18.589   2.046  49.436  1.00  0.00    -0.273 OA
HETATM   11  C14 UNL     1      20.960   1.029  50.413  1.00  0.00     0.155 C 
HETATM   12  C15 UNL     1      22.367   1.255  50.822  1.00  0.00     0.127 C 
HETATM   13  C16 UNL     1      22.861   2.620  50.496  1.00  0.00     0.039 C 
HETATM   14  C17 UNL     1      23.983   3.299  50.667  1.00  0.00     0.092 C 
ENDROOT
BRANCH   1  15
HETATM   15  N2  UNL     1      26.336   3.708  50.687  1.00  0.00    -0.370 N 
HETATM   16  H7  UNL     1      26.803   4.401  51.336  1.00  0.00     0.161 HD
BRANCH  15  17
HETATM   17  C3  UNL     1      26.743   3.538  49.316  1.00  0.00     0.269 C 
BRANCH  17  18
HETATM   18  N1  UNL     1      27.675   4.559  48.947  1.00  0.00    -0.287 NA
HETATM   19  C2  UNL     1      27.343   5.720  48.585  1.00  0.00     0.081 C 
HETATM   20  C1  UNL     1      26.179   6.609  48.345  1.00  0.00     0.057 C 
ENDBRANCH  17  18
ENDBRANCH  15  17
ENDBRANCH   1  15
BRANCH  14  21
HETATM   21  O2  UNL     1      23.953   4.613  50.162  1.00  0.00    -0.354 OA
HETATM   22  C18 UNL     1      22.806   5.263  49.716  1.00  0.00     0.210 C 
ENDBRANCH  14  21
BRANCH   9  23
HETATM   23  C11 UNL     1      17.693   2.758  51.501  1.00  0.00     0.070 C 
HETATM   24  C12 UNL     1      16.469   1.856  51.421  1.00  0.00     0.019 C 
HETATM   25  C13 UNL     1      17.386   4.178  51.079  1.00  0.00     0.019 C 
ENDBRANCH   9  23
TORSDOF 5
ENDMDL
MODEL 9
REMARK VINA RESULT:      -6.2      2.974      4.673
REMARK  5 active torsions:
REMARK  status: ('A' for Active; 'I' for Inactive)
REMARK    1  A    between atoms: N1_3  and  C3_4 
REMARK    2  A    between atoms: C3_4  and  N2_5 
REMARK    3  A    between atoms: N2_5  and  C4_6 
REMARK       I    between atoms: N4_13  and  C10_14 
REMARK    4  A    between atoms: C10_14  and  C11_16 
REMARK    5  A    between atoms: C17_22  and  O2_23 
ROOT
HETATM    1  C4  UNL     1      25.216   1.137  52.133  1.00  0.00     0.062 C 
HETATM    2  C5  UNL     1      26.339   1.636  51.635  1.00  0.00     0.033 C 
HETATM    3  C6  UNL     1      26.568   2.733  50.665  1.00  0.00     0.019 C 
HETATM    4  C7  UNL     1      25.788   3.676  50.153  1.00  0.00     0.086 C 
HETATM    5  N3  UNL     1      24.418   4.021  50.324  1.00  0.00    -0.379 N 
HETATM    6  C8  UNL     1      23.993   4.629  49.069  1.00  0.00     0.143 C 
HETATM    7  C9  UNL     1      22.575   4.281  48.725  1.00  0.00     0.145 C 
HETATM    8  N4  UNL     1      21.634   4.547  49.752  1.00  0.00    -0.348 N 
HETATM    9  C10 UNL     1      20.229   4.625  49.559  1.00  0.00     0.223 C 
HETATM   10  O1  UNL     1      19.496   4.864  50.559  1.00  0.00    -0.273 OA
HETATM   11  C14 UNL     1      22.208   4.742  51.051  1.00  0.00     0.155 C 
HETATM   12  C15 UNL     1      23.408   3.927  51.360  1.00  0.00     0.127 C 
HETATM   13  C16 UNL     1      23.091   2.507  51.669  1.00  0.00     0.039 C 
HETATM   14  C17 UNL     1      23.774   1.417  51.970  1.00  0.00     0.092 C 
ENDROOT
BRANCH   1  15
HETATM   15  N2  UNL     1      25.429   0.075  53.049  1.00  0.00    -0.370 N 
HETATM   16  H7  UNL     1      25.366  -0.890  52.617  1.00  0.00     0.161 HD
BRANCH  15  17
HETATM   17  C3  UNL     1      25.710   0.278  54.446  1.00  0.00     0.269 C 
BRANCH  17  18
HETATM   18  N1  UNL     1      25.484  -0.931  55.177  1.00  0.00    -0.287 NA
HETATM   19  C2  UNL     1      24.341  -1.391  55.443  1.00  0.00     0.081 C 
HETATM   20  C1  UNL     1      22.887  -1.146  55.278  1.00  0.00     0.057 C 
ENDBRANCH  17  18
ENDBRANCH  15  17
ENDBRANCH   1  15
BRANCH  14  21
HETATM   21  O2  UNL     1      22.983   0.271  52.182  1.00  0.00    -0.354 OA
HETATM   22  C18 UNL     1      21.610   0.207  51.964  1.00  0.00     0.210 C 
ENDBRANCH  14  21
BRANCH   9  23
HETATM   23  C11 UNL     1      19.591   4.439  48.238  1.00  0.00     0.070 C 
HETATM   24  C12 UNL     1      18.525   5.515  48.092  1.00  0.00     0.019 C 
HETATM   25  C13 UNL     1      19.031   3.047  48.050  1.00  0.00     0.019 C 
ENDBRANCH   9  23
TORSDOF 5
ENDMDL
