MODEL 1
REMARK VINA RESULT:      -7.1      0.000      0.000
REMARK  6 active torsions:
REMARK  status: ('A' for Active; 'I' for Inactive)
REMARK    1  A    between atoms: C2_2  and  N1_3 
REMARK    2  A    between atoms: N1_3  and  C3_4 
REMARK    3  A    between atoms: C10_14  and  C11_15 
REMARK    4  A    between atoms: C11_15  and  C12_16 
REMARK    5  A    between atoms: C12_16  and  N4_17 
REMARK    6  A    between atoms: C16_22  and  C17_24 
ROOT
HETATM    1  C3  UNL     1      24.606   2.252  51.663  1.00  0.00     0.384 C 
HETATM    2  N2  UNL     1      26.030   1.951  51.333  1.00  0.00    -0.242 NA
HETATM    3  C4  UNL     1      26.928   2.382  52.165  1.00  0.00     0.229 C 
HETATM    4  N3  UNL     1      28.294   2.503  52.541  1.00  0.00    -0.257 NA
HETATM    5  C5  UNL     1      28.723   1.760  53.512  1.00  0.00     0.107 C 
HETATM    6  C6  UNL     1      28.267   0.753  54.442  1.00  0.00     0.105 A 
HETATM    7  C7  UNL     1      27.759  -0.145  55.237  1.00  0.00     0.084 A 
HETATM    8  S1  UNL     1      26.405   0.321  54.245  1.00  0.00    -0.132 SA
HETATM    9  C8  UNL     1      25.285   0.730  53.405  1.00  0.00    -0.082 C 
HETATM   10  C9  UNL     1      24.227   1.119  52.581  1.00  0.00     0.048 C 
HETATM   11  C10 UNL     1      23.106   0.475  52.709  1.00  0.00     0.030 C 
ENDROOT
BRANCH   1  12
HETATM   12  N1  UNL     1      24.645   3.503  52.406  1.00  0.00     0.113 N 
HETATM   13  H6  UNL     1      24.264   3.396  53.367  1.00  0.00     0.319 HD
BRANCH  12  14
HETATM   14  C2  UNL     1      23.851   4.506  51.719  1.00  0.00     0.268 C 
HETATM   15  C1  UNL     1      24.011   4.371  50.219  1.00  0.00     0.037 C 
ENDBRANCH  12  14
ENDBRANCH   1  12
BRANCH  11  16
HETATM   16  C11 UNL     1      21.767   0.428  52.167  1.00  0.00    -0.021 C 
HETATM   17  C16 UNL     1      20.769  -0.060  52.922  1.00  0.00     0.019 C 
HETATM   18 CL1  UNL     1      19.112  -0.153  52.331  1.00  0.00    -0.088 Cl
BRANCH  16  19
HETATM   19  C12 UNL     1      21.394   0.884  50.796  1.00  0.00     0.169 C 
BRANCH  19  20
HETATM   20  N4  UNL     1      20.915   2.269  50.850  1.00  0.00    -0.346 N 
HETATM   21  C13 UNL     1      20.637   2.980  49.721  1.00  0.00     0.111 A 
HETATM   22  C14 UNL     1      20.204   4.260  50.064  1.00  0.00     0.135 A 
HETATM   23  N5  UNL     1      20.239   4.262  51.395  1.00  0.00    -0.255 NA
HETATM   24  C15 UNL     1      20.658   3.092  51.863  1.00  0.00     0.209 A 
ENDBRANCH  19  20
ENDBRANCH  16  19
BRANCH  17  25
HETATM   25  C17 UNL     1      20.911  -0.556  54.313  1.00  0.00     0.047 C 
HETATM   26  C18 UNL     1      21.409  -1.976  54.385  1.00  0.00     0.011 C 
ENDBRANCH  17  25
ENDBRANCH  11  16
TORSDOF 6
ENDMDL
MODEL 2
REMARK VINA RESULT:      -6.9      2.047      3.337
REMARK  6 active torsions:
REMARK  status: ('A' for Active; 'I' for Inactive)
REMARK    1  A    between atoms: C2_2  and  N1_3 
REMARK    2  A    between atoms: N1_3  and  C3_4 
REMARK    3  A    between atoms: C10_14  and  C11_15 
REMARK    4  A    between atoms: C11_15  and  C12_16 
REMARK    5  A    between atoms: C12_16  and  N4_17 
REMARK    6  A    between atoms: C16_22  and  C17_24 
ROOT
HETATM    1  C3  UNL     1      24.144   2.990  51.383  1.00  0.00     0.384 C 
HETATM    2  N2  UNL     1      25.535   2.673  50.949  1.00  0.00    -0.242 NA
HETATM    3  C4  UNL     1      26.430   2.557  51.882  1.00  0.00     0.229 C 
HETATM    4  N3  UNL     1      27.774   2.305  52.268  1.00  0.00    -0.257 NA
HETATM    5  C5  UNL     1      28.047   1.155  52.799  1.00  0.00     0.107 C 
HETATM    6  C6  UNL     1      27.413  -0.085  53.179  1.00  0.00     0.105 A 
HETATM    7  C7  UNL     1      26.748  -1.162  53.486  1.00  0.00     0.084 A 
HETATM    8  S1  UNL     1      25.527  -0.119  52.815  1.00  0.00    -0.132 SA
HETATM    9  C8  UNL     1      24.519   0.774  52.252  1.00  0.00    -0.082 C 
HETATM   10  C9  UNL     1      23.571   1.633  51.695  1.00  0.00     0.048 C 
HETATM   11  C10 UNL     1      22.371   1.163  51.523  1.00  0.00     0.030 C 
ENDROOT
BRANCH   1  12
HETATM   12  N1  UNL     1      24.296   3.761  52.609  1.00  0.00     0.113 N 
HETATM   13  H6  UNL     1      24.280   3.154  53.454  1.00  0.00     0.319 HD
BRANCH  12  14
HETATM   14  C2  UNL     1      23.210   4.718  52.725  1.00  0.00     0.268 C 
HETATM   15  C1  UNL     1      22.734   5.146  51.353  1.00  0.00     0.037 C 
ENDBRANCH  12  14
ENDBRANCH   1  12
BRANCH  11  16
HETATM   16  C11 UNL     1      21.072   1.551  51.022  1.00  0.00    -0.021 C 
HETATM   17  C16 UNL     1      20.878   1.638  49.696  1.00  0.00     0.019 C 
HETATM   18 CL1  UNL     1      19.326   2.107  49.008  1.00  0.00    -0.088 Cl
BRANCH  16  19
HETATM   19  C12 UNL     1      19.898   1.879  51.883  1.00  0.00     0.169 C 
BRANCH  19  20
HETATM   20  N4  UNL     1      19.270   0.640  52.352  1.00  0.00    -0.346 N 
HETATM   21  C13 UNL     1      18.086   0.195  51.842  1.00  0.00     0.111 A 
HETATM   22  C14 UNL     1      17.723  -0.998  52.466  1.00  0.00     0.135 A 
HETATM   23  N5  UNL     1      18.712  -1.221  53.328  1.00  0.00    -0.255 NA
HETATM   24  C15 UNL     1      19.626  -0.259  53.264  1.00  0.00     0.209 A 
ENDBRANCH  19  20
ENDBRANCH  16  19
BRANCH  17  25
HETATM   25  C17 UNL     1      21.900   1.347  48.660  1.00  0.00     0.047 C 
HETATM   26  C18 UNL     1      22.461   2.589  48.019  1.00  0.00     0.011 C 
ENDBRANCH  17  25
ENDBRANCH  11  16
TORSDOF 6
ENDMDL
MODEL 3
REMARK VINA RESULT:      -6.9      2.691      6.524
REMARK  6 active torsions:
REMARK  status: ('A' for Active; 'I' for Inactive)
REMARK    1  A    between atoms: C2_2  and  N1_3 
REMARK    2  A    between atoms: N1_3  and  C3_4 
REMARK    3  A    between atoms: C10_14  and  C11_15 
REMARK    4  A    between atoms: C11_15  and  C12_16 
REMARK    5  A    between atoms: C12_16  and  N4_17 
REMARK    6  A    between atoms: C16_22  and  C17_24 
ROOT
HETATM    1  C3  UNL     1      23.298   2.504  49.749  1.00  0.00     0.384 C 
HETATM    2  N2  UNL     1      23.379   3.503  48.644  1.00  0.00    -0.242 NA
HETATM    3  C4  UNL     1      22.512   4.469  48.662  1.00  0.00     0.229 C 
HETATM    4  N3  UNL     1      21.982   5.652  48.079  1.00  0.00    -0.257 NA
HETATM    5  C5  UNL     1      22.246   6.782  48.655  1.00  0.00     0.107 C 
HETATM    6  C6  UNL     1      22.955   7.326  49.790  1.00  0.00     0.105 A 
HETATM    7  C7  UNL     1      23.621   7.716  50.839  1.00  0.00     0.084 A 
HETATM    8  S1  UNL     1      23.817   5.986  50.863  1.00  0.00    -0.132 SA
HETATM    9  C8  UNL     1      23.964   4.534  50.865  1.00  0.00    -0.082 C 
HETATM   10  C9  UNL     1      24.110   3.146  50.843  1.00  0.00     0.048 C 
HETATM   11  C10 UNL     1      24.899   2.617  51.730  1.00  0.00     0.030 C 
ENDROOT
BRANCH   1  12
HETATM   12  N1  UNL     1      21.893   2.469  50.127  1.00  0.00     0.113 N 
HETATM   13  H6  UNL     1      21.764   2.578  51.153  1.00  0.00     0.319 HD
BRANCH  12  14
HETATM   14  C2  UNL     1      21.310   1.198  49.734  1.00  0.00     0.268 C 
HETATM   15  C1  UNL     1      20.462   0.636  50.856  1.00  0.00     0.037 C 
ENDBRANCH  12  14
ENDBRANCH   1  12
BRANCH  11  16
HETATM   16  C11 UNL     1      25.411   1.335  52.159  1.00  0.00    -0.021 C 
HETATM   17  C16 UNL     1      24.629   0.528  52.894  1.00  0.00     0.019 C 
HETATM   18 CL1  UNL     1      25.181  -1.047  53.457  1.00  0.00    -0.088 Cl
BRANCH  16  19
HETATM   19  C12 UNL     1      26.779   0.826  51.850  1.00  0.00     0.169 C 
BRANCH  19  20
HETATM   20  N4  UNL     1      27.711   1.248  52.902  1.00  0.00    -0.346 N 
HETATM   21  C13 UNL     1      28.401   0.347  53.657  1.00  0.00     0.111 A 
HETATM   22  C14 UNL     1      29.206   1.020  54.575  1.00  0.00     0.135 A 
HETATM   23  N5  UNL     1      28.965   2.306  54.328  1.00  0.00    -0.255 NA
HETATM   24  C15 UNL     1      28.085   2.445  53.344  1.00  0.00     0.209 A 
ENDBRANCH  19  20
ENDBRANCH  16  19
BRANCH  17  25
HETATM   25  C17 UNL     1      23.236   0.828  53.306  1.00  0.00     0.047 C 
HETATM   26  C18 UNL     1      22.502  -0.380  53.828  1.00  0.00     0.011 C 
ENDBRANCH  17  25
ENDBRANCH  11  16
TORSDOF 6
ENDMDL
MODEL 4
REMARK VINA RESULT:      -6.8      3.273      5.507
REMARK  6 active torsions:
REMARK  status: ('A' for Active; 'I' for Inactive)
REMARK    1  A    between atoms: C2_2  and  N1_3 
REMARK    2  A    between atoms: N1_3  and  C3_4 
REMARK    3  A    between atoms: C10_14  and  C11_15 
REMARK    4  A    between atoms: C11_15  and  C12_16 
REMARK    5  A    between atoms: C12_16  and  N4_17 
REMARK    6  A    between atoms: C16_22  and  C17_24 
ROOT
HETATM    1  C3  UNL     1      23.613   2.691  51.476  1.00  0.00     0.384 C 
HETATM    2  N2  UNL     1      23.617   2.079  52.836  1.00  0.00    -0.242 NA
HETATM    3  C4  UNL     1      23.768   0.791  52.901  1.00  0.00     0.229 C 
HETATM    4  N3  UNL     1      23.873  -0.394  53.678  1.00  0.00    -0.257 NA
HETATM    5  C5  UNL     1      25.046  -0.929  53.811  1.00  0.00     0.107 C 
HETATM    6  C6  UNL     1      26.421  -0.734  53.414  1.00  0.00     0.105 A 
HETATM    7  C7  UNL     1      27.628  -0.472  53.002  1.00  0.00     0.084 A 
HETATM    8  S1  UNL     1      26.682   0.812  52.304  1.00  0.00    -0.132 SA
HETATM    9  C8  UNL     1      25.868   1.876  51.726  1.00  0.00    -0.082 C 
HETATM   10  C9  UNL     1      25.078   2.898  51.196  1.00  0.00     0.048 C 
HETATM   11  C10 UNL     1      25.690   3.853  50.561  1.00  0.00     0.030 C 
ENDROOT
BRANCH   1  12
HETATM   12  N1  UNL     1      23.079   1.660  50.598  1.00  0.00     0.113 N 
HETATM   13  H6  UNL     1      23.579   1.628  49.687  1.00  0.00     0.319 HD
BRANCH  12  14
HETATM   14  C2  UNL     1      21.676   1.922  50.329  1.00  0.00     0.268 C 
HETATM   15  C1  UNL     1      21.213   1.136  49.122  1.00  0.00     0.037 C 
ENDBRANCH  12  14
ENDBRANCH   1  12
BRANCH  11  16
HETATM   16  C11 UNL     1      25.424   5.088  49.858  1.00  0.00    -0.021 C 
HETATM   17  C16 UNL     1      26.314   5.536  48.958  1.00  0.00     0.019 C 
HETATM   18 CL1  UNL     1      26.064   7.033  48.063  1.00  0.00    -0.088 Cl
BRANCH  16  19
HETATM   19  C12 UNL     1      24.210   5.931  50.062  1.00  0.00     0.169 C 
BRANCH  19  20
HETATM   20  N4  UNL     1      23.108   5.413  49.244  1.00  0.00    -0.346 N 
HETATM   21  C13 UNL     1      21.803   5.636  49.570  1.00  0.00     0.111 A 
HETATM   22  C14 UNL     1      20.973   5.033  48.626  1.00  0.00     0.135 A 
HETATM   23  N5  UNL     1      21.820   4.472  47.767  1.00  0.00    -0.255 NA
HETATM   24  C15 UNL     1      23.079   4.693  48.127  1.00  0.00     0.209 A 
ENDBRANCH  19  20
ENDBRANCH  16  19
BRANCH  17  25
HETATM   25  C17 UNL     1      27.580   4.854  48.591  1.00  0.00     0.047 C 
HETATM   26  C18 UNL     1      28.697   5.814  48.274  1.00  0.00     0.011 C 
ENDBRANCH  17  25
ENDBRANCH  11  16
TORSDOF 6
ENDMDL
MODEL 5
REMARK VINA RESULT:      -6.5      3.068      5.204
REMARK  6 active torsions:
REMARK  status: ('A' for Active; 'I' for Inactive)
REMARK    1  A    between atoms: C2_2  and  N1_3 
REMARK    2  A    between atoms: N1_3  and  C3_4 
REMARK    3  A    between atoms: C10_14  and  C11_15 
REMARK    4  A    between atoms: C11_15  and  C12_16 
REMARK    5  A    between atoms: C12_16  and  N4_17 
REMARK    6  A    between atoms: C16_22  and  C17_24 
ROOT
HETATM    1  C3  UNL     1      20.872   1.417  52.492  1.00  0.00     0.384 C 
HETATM    2  N2  UNL     1      20.991   1.036  53.929  1.00  0.00    -0.242 NA
HETATM    3  C4  UNL     1      21.381  -0.175  54.185  1.00  0.00     0.229 C 
HETATM    4  N3  UNL     1      21.707  -1.185  55.131  1.00  0.00    -0.257 NA
HETATM    5  C5  UNL     1      22.959  -1.465  55.310  1.00  0.00     0.107 C 
HETATM    6  C6  UNL     1      24.273  -1.082  54.847  1.00  0.00     0.105 A 
HETATM    7  C7  UNL     1      25.410  -0.668  54.365  1.00  0.00     0.084 A 
HETATM    8  S1  UNL     1      24.239   0.293  53.507  1.00  0.00    -0.132 SA
HETATM    9  C8  UNL     1      23.240   1.084  52.797  1.00  0.00    -0.082 C 
HETATM   10  C9  UNL     1      22.272   1.847  52.140  1.00  0.00     0.048 C 
HETATM   11  C10 UNL     1      22.693   2.788  51.349  1.00  0.00     0.030 C 
ENDROOT
BRANCH   1  12
HETATM   12  N1  UNL     1      20.541   0.181  51.797  1.00  0.00     0.113 N 
HETATM   13  H6  UNL     1      21.144   0.030  50.964  1.00  0.00     0.319 HD
BRANCH  12  14
HETATM   14  C2  UNL     1      19.161   0.224  51.349  1.00  0.00     0.268 C 
HETATM   15  C1  UNL     1      18.764   1.641  50.995  1.00  0.00     0.037 C 
ENDBRANCH  12  14
ENDBRANCH   1  12
BRANCH  11  16
HETATM   16  C11 UNL     1      22.199   3.827  50.474  1.00  0.00    -0.021 C 
HETATM   17  C16 UNL     1      22.171   3.611  49.148  1.00  0.00     0.019 C 
HETATM   18 CL1  UNL     1      21.587   4.827  48.016  1.00  0.00    -0.088 Cl
BRANCH  16  19
HETATM   19  C12 UNL     1      21.712   5.160  50.935  1.00  0.00     0.169 C 
BRANCH  19  20
HETATM   20  N4  UNL     1      22.804   6.136  50.859  1.00  0.00    -0.346 N 
HETATM   21  C13 UNL     1      22.595   7.421  50.454  1.00  0.00     0.111 A 
HETATM   22  C14 UNL     1      23.799   8.124  50.476  1.00  0.00     0.135 A 
HETATM   23  N5  UNL     1      24.686   7.225  50.898  1.00  0.00    -0.255 NA
HETATM   24  C15 UNL     1      24.104   6.052  51.125  1.00  0.00     0.209 A 
ENDBRANCH  19  20
ENDBRANCH  16  19
BRANCH  17  25
HETATM   25  C17 UNL     1      22.596   2.358  48.476  1.00  0.00     0.047 C 
HETATM   26  C18 UNL     1      21.508   1.317  48.426  1.00  0.00     0.011 C 
ENDBRANCH  17  25
ENDBRANCH  11  16
TORSDOF 6
ENDMDL
MODEL 6
REMARK VINA RESULT:      -6.5      3.863      6.310
REMARK  6 active torsions:
REMARK  status: ('A' for Active; 'I' for Inactive)
REMARK    1  A    between atoms: C2_2  and  N1_3 
REMARK    2  A    between atoms: N1_3  and  C3_4 
REMARK    3  A    between atoms: C10_14  and  C11_15 
REMARK    4  A    between atoms: C11_15  and  C12_16 
REMARK    5  A    between atoms: C12_16  and  N4_17 
REMARK    6  A    between atoms: C16_22  and  C17_24 
ROOT
HETATM    1  C3  UNL     1      24.549   5.969  49.434  1.00  0.00     0.384 C 
HETATM    2  N2  UNL     1      24.925   6.546  48.111  1.00  0.00    -0.242 NA
HETATM    3  C4  UNL     1      25.879   7.427  48.103  1.00  0.00     0.229 C 
HETATM    4  N3  UNL     1      26.717   8.321  47.384  1.00  0.00    -0.257 NA
HETATM    5  C5  UNL     1      27.951   7.975  47.195  1.00  0.00     0.107 C 
HETATM    6  C6  UNL     1      28.873   6.901  47.482  1.00  0.00     0.105 A 
HETATM    7  C7  UNL     1      29.624   5.883  47.792  1.00  0.00     0.084 A 
HETATM    8  S1  UNL     1      28.083   5.467  48.487  1.00  0.00    -0.132 SA
HETATM    9  C8  UNL     1      26.783   5.142  49.066  1.00  0.00    -0.082 C 
HETATM   10  C9  UNL     1      25.529   4.837  49.597  1.00  0.00     0.048 C 
HETATM   11  C10 UNL     1      25.381   3.663  50.135  1.00  0.00     0.030 C 
ENDROOT
BRANCH   1  12
HETATM   12  N1  UNL     1      24.836   7.019  50.401  1.00  0.00     0.113 N 
HETATM   13  H6  UNL     1      25.343   6.654  51.232  1.00  0.00     0.319 HD
BRANCH  12  14
HETATM   14  C2  UNL     1      23.595   7.616  50.860  1.00  0.00     0.268 C 
HETATM   15  C1  UNL     1      22.484   6.587  50.868  1.00  0.00     0.037 C 
ENDBRANCH  12  14
ENDBRANCH   1  12
BRANCH  11  16
HETATM   16  C11 UNL     1      24.387   2.843  50.790  1.00  0.00    -0.021 C 
HETATM   17  C16 UNL     1      23.325   2.412  50.090  1.00  0.00     0.019 C 
HETATM   18 CL1  UNL     1      22.070   1.412  50.817  1.00  0.00    -0.088 Cl
BRANCH  16  19
HETATM   19  C12 UNL     1      24.443   2.431  52.223  1.00  0.00     0.169 C 
BRANCH  19  20
HETATM   20  N4  UNL     1      25.262   1.221  52.356  1.00  0.00    -0.346 N 
HETATM   21  C13 UNL     1      24.833   0.136  53.062  1.00  0.00     0.111 A 
HETATM   22  C14 UNL     1      25.805  -0.863  53.024  1.00  0.00     0.135 A 
HETATM   23  N5  UNL     1      26.781  -0.332  52.292  1.00  0.00    -0.255 NA
HETATM   24  C15 UNL     1      26.465   0.896  51.896  1.00  0.00     0.209 A 
ENDBRANCH  19  20
ENDBRANCH  16  19
BRANCH  17  25
HETATM   25  C17 UNL     1      23.076   2.692  48.654  1.00  0.00     0.047 C 
HETATM   26  C18 UNL     1      22.088   1.740  48.030  1.00  0.00     0.011 C 
ENDBRANCH  17  25
ENDBRANCH  11  16
TORSDOF 6
ENDMDL
MODEL 7
REMARK VINA RESULT:      -6.5      2.863      6.255
REMARK  6 active torsions:
REMARK  status: ('A' for Active; 'I' for Inactive)
REMARK    1  A    between atoms: C2_2  and  N1_3 
REMARK    2  A    between atoms: N1_3  and  C3_4 
REMARK    3  A    between atoms: C10_14  and  C11_15 
REMARK    4  A    between atoms: C11_15  and  C12_16 
REMARK    5  A    between atoms: C12_16  and  N4_17 
REMARK    6  A    between atoms: C16_22  and  C17_24 
ROOT
HETATM    1  C3  UNL     1      20.978   2.110  51.554  1.00  0.00     0.384 C 
HETATM    2  N2  UNL     1      19.559   2.280  51.979  1.00  0.00    -0.242 NA
HETATM    3  C4  UNL     1      18.701   1.422  51.518  1.00  0.00     0.229 C 
HETATM    4  N3  UNL     1      17.365   0.942  51.444  1.00  0.00    -0.257 NA
HETATM    5  C5  UNL     1      17.071  -0.134  52.103  1.00  0.00     0.107 C 
HETATM    6  C6  UNL     1      17.672  -1.120  52.970  1.00  0.00     0.105 A 
HETATM    7  C7  UNL     1      18.307  -1.956  53.742  1.00  0.00     0.084 A 
HETATM    8  S1  UNL     1      19.538  -0.807  53.302  1.00  0.00    -0.132 SA
HETATM    9  C8  UNL     1      20.555   0.166  52.916  1.00  0.00    -0.082 C 
HETATM   10  C9  UNL     1      21.512   1.116  52.553  1.00  0.00     0.048 C 
HETATM   11  C10 UNL     1      22.684   1.021  53.107  1.00  0.00     0.030 C 
ENDROOT
BRANCH   1  12
HETATM   12  N1  UNL     1      20.909   1.500  50.234  1.00  0.00     0.113 N 
HETATM   13  H6  UNL     1      21.513   0.656  50.163  1.00  0.00     0.319 HD
BRANCH  12  14
HETATM   14  C2  UNL     1      21.350   2.451  49.230  1.00  0.00     0.268 C 
HETATM   15  C1  UNL     1      22.047   1.736  48.092  1.00  0.00     0.037 C 
ENDBRANCH  12  14
ENDBRANCH   1  12
BRANCH  11  16
HETATM   16  C11 UNL     1      23.975   1.671  53.127  1.00  0.00    -0.021 C 
HETATM   17  C16 UNL     1      25.084   0.924  53.247  1.00  0.00     0.019 C 
HETATM   18 CL1  UNL     1      26.693   1.642  53.283  1.00  0.00    -0.088 Cl
BRANCH  16  19
HETATM   19  C12 UNL     1      24.179   3.146  53.031  1.00  0.00     0.169 C 
BRANCH  19  20
HETATM   20  N4  UNL     1      24.313   3.533  51.622  1.00  0.00    -0.346 N 
HETATM   21  C13 UNL     1      23.892   4.748  51.167  1.00  0.00     0.111 A 
HETATM   22  C14 UNL     1      24.138   4.848  49.798  1.00  0.00     0.135 A 
HETATM   23  N5  UNL     1      24.701   3.682  49.488  1.00  0.00    -0.255 NA
HETATM   24  C15 UNL     1      24.806   2.904  50.560  1.00  0.00     0.209 A 
ENDBRANCH  19  20
ENDBRANCH  16  19
BRANCH  17  25
HETATM   25  C17 UNL     1      25.114  -0.556  53.346  1.00  0.00     0.047 C 
HETATM   26  C18 UNL     1      26.369  -1.161  52.771  1.00  0.00     0.011 C 
ENDBRANCH  17  25
ENDBRANCH  11  16
TORSDOF 6
ENDMDL
MODEL 8
REMARK VINA RESULT:      -6.5      3.141      7.471
REMARK  6 active torsions:
REMARK  status: ('A' for Active; 'I' for Inactive)
REMARK    1  A    between atoms: C2_2  and  N1_3 
REMARK    2  A    between atoms: N1_3  and  C3_4 
REMARK    3  A    between atoms: C10_14  and  C11_15 
REMARK    4  A    between atoms: C11_15  and  C12_16 
REMARK    5  A    between atoms: C12_16  and  N4_17 
REMARK    6  A    between atoms: C16_22  and  C17_24 
ROOT
HETATM    1  C3  UNL     1      21.452   0.766  52.355  1.00  0.00     0.384 C 
HETATM    2  N2  UNL     1      20.326   0.311  51.489  1.00  0.00    -0.242 NA
HETATM    3  C4  UNL     1      19.124   0.487  51.946  1.00  0.00     0.229 C 
HETATM    4  N3  UNL     1      17.718   0.361  51.781  1.00  0.00    -0.257 NA
HETATM    5  C5  UNL     1      17.043   1.431  51.503  1.00  0.00     0.107 C 
HETATM    6  C6  UNL     1      17.223   2.847  51.280  1.00  0.00     0.105 A 
HETATM    7  C7  UNL     1      17.489   4.108  51.096  1.00  0.00     0.084 A 
HETATM    8  S1  UNL     1      19.050   3.417  51.439  1.00  0.00    -0.132 SA
HETATM    9  C8  UNL     1      20.347   2.817  51.733  1.00  0.00    -0.082 C 
HETATM   10  C9  UNL     1      21.583   2.224  51.998  1.00  0.00     0.048 C 
HETATM   11  C10 UNL     1      22.637   2.978  51.900  1.00  0.00     0.030 C 
ENDROOT
BRANCH   1  12
HETATM   12  N1  UNL     1      20.960   0.630  53.719  1.00  0.00     0.113 N 
HETATM   13  H6  UNL     1      20.947   1.541  54.220  1.00  0.00     0.319 HD
BRANCH  12  14
HETATM   14  C2  UNL     1      21.816  -0.278  54.461  1.00  0.00     0.268 C 
HETATM   15  C1  UNL     1      21.312  -1.700  54.339  1.00  0.00     0.037 C 
ENDBRANCH  12  14
ENDBRANCH   1  12
BRANCH  11  16
HETATM   16  C11 UNL     1      24.075   2.925  52.037  1.00  0.00    -0.021 C 
HETATM   17  C16 UNL     1      24.844   3.050  50.944  1.00  0.00     0.019 C 
HETATM   18 CL1  UNL     1      26.603   2.993  51.028  1.00  0.00    -0.088 Cl
BRANCH  16  19
HETATM   19  C12 UNL     1      24.794   2.729  53.330  1.00  0.00     0.169 C 
BRANCH  19  20
HETATM   20  N4  UNL     1      25.329   1.365  53.394  1.00  0.00    -0.346 N 
HETATM   21  C13 UNL     1      26.433   1.059  54.134  1.00  0.00     0.111 A 
HETATM   22  C14 UNL     1      26.719  -0.301  54.012  1.00  0.00     0.135 A 
HETATM   23  N5  UNL     1      25.768  -0.756  53.200  1.00  0.00    -0.255 NA
HETATM   24  C15 UNL     1      24.947   0.222  52.833  1.00  0.00     0.209 A 
ENDBRANCH  19  20
ENDBRANCH  16  19
BRANCH  17  25
HETATM   25  C17 UNL     1      24.343   3.263  49.564  1.00  0.00     0.047 C 
HETATM   26  C18 UNL     1      24.477   4.690  49.101  1.00  0.00     0.011 C 
ENDBRANCH  17  25
ENDBRANCH  11  16
TORSDOF 6
ENDMDL
MODEL 9
REMARK VINA RESULT:      -6.5      3.106      5.266
REMARK  6 active torsions:
REMARK  status: ('A' for Active; 'I' for Inactive)
REMARK    1  A    between atoms: C2_2  and  N1_3 
REMARK    2  A    between atoms: N1_3  and  C3_4 
REMARK    3  A    between atoms: C10_14  and  C11_15 
REMARK    4  A    between atoms: C11_15  and  C12_16 
REMARK    5  A    between atoms: C12_16  and  N4_17 
REMARK    6  A    between atoms: C16_22  and  C17_24 
ROOT
HETATM    1  C3  UNL     1      23.064   2.290  51.374  1.00  0.00     0.384 C 
HETATM    2  N2  UNL     1      23.276   1.914  52.801  1.00  0.00    -0.242 NA
HETATM    3  C4  UNL     1      23.580   0.675  53.043  1.00  0.00     0.229 C 
HETATM    4  N3  UNL     1      23.900  -0.350  53.974  1.00  0.00    -0.257 NA
HETATM    5  C5  UNL     1      25.134  -0.737  54.049  1.00  0.00     0.107 C 
HETATM    6  C6  UNL     1      26.430  -0.476  53.467  1.00  0.00     0.105 A 
HETATM    7  C7  UNL     1      27.552  -0.168  52.881  1.00  0.00     0.084 A 
HETATM    8  S1  UNL     1      26.397   0.884  52.111  1.00  0.00    -0.132 SA
HETATM    9  C8  UNL     1      25.411   1.754  51.477  1.00  0.00    -0.082 C 
HETATM   10  C9  UNL     1      24.459   2.592  50.894  1.00  0.00     0.048 C 
HETATM   11  C10 UNL     1      24.889   3.485  50.053  1.00  0.00     0.030 C 
ENDROOT
BRANCH   1  12
HETATM   12  N1  UNL     1      22.567   1.081  50.732  1.00  0.00     0.113 N 
HETATM   13  H6  UNL     1      23.246   0.701  50.042  1.00  0.00     0.319 HD
BRANCH  12  14
HETATM   14  C2  UNL     1      21.329   1.371  50.031  1.00  0.00     0.268 C 
HETATM   15  C1  UNL     1      21.543   1.309  48.533  1.00  0.00     0.037 C 
ENDBRANCH  12  14
ENDBRANCH   1  12
BRANCH  11  16
HETATM   16  C11 UNL     1      24.412   4.555  49.206  1.00  0.00    -0.021 C 
HETATM   17  C16 UNL     1      25.252   5.545  48.863  1.00  0.00     0.019 C 
HETATM   18 CL1  UNL     1      24.745   6.884  47.837  1.00  0.00    -0.088 Cl
BRANCH  16  19
HETATM   19  C12 UNL     1      23.022   4.655  48.675  1.00  0.00     0.169 C 
BRANCH  19  20
HETATM   20  N4  UNL     1      22.261   5.627  49.466  1.00  0.00    -0.346 N 
HETATM   21  C13 UNL     1      21.334   6.451  48.899  1.00  0.00     0.111 A 
HETATM   22  C14 UNL     1      20.768   7.267  49.877  1.00  0.00     0.135 A 
HETATM   23  N5  UNL     1      21.382   6.896  50.998  1.00  0.00    -0.255 NA
HETATM   24  C15 UNL     1      22.262   5.929  50.761  1.00  0.00     0.209 A 
ENDBRANCH  19  20
ENDBRANCH  16  19
BRANCH  17  25
HETATM   25  C17 UNL     1      26.676   5.640  49.268  1.00  0.00     0.047 C 
HETATM   26  C18 UNL     1      27.565   6.177  48.177  1.00  0.00     0.011 C 
ENDBRANCH  17  25
ENDBRANCH  11  16
TORSDOF 6
ENDMDL
