MODEL 1
REMARK VINA RESULT:      -8.1      0.000      0.000
REMARK  5 active torsions:
REMARK  status: ('A' for Active; 'I' for Inactive)
REMARK    1  A    between atoms: C2_2  and  C3_3 
REMARK    2  A    between atoms: C6_6  and  O1_7 
REMARK    3  A    between atoms: C7_8  and  O2_9 
REMARK    4  A    between atoms: O2_9  and  C8_10 
REMARK    5  A    between atoms: C8_10  and  C10_13 
ROOT
HETATM    1  C8  UNL     1      25.913   0.456  53.813  1.00  0.00     0.252 C 
HETATM    2  C9  UNL     1      25.316   1.777  53.580  1.00  0.00     0.093 C 
HETATM    3  N1  UNL     1      24.837   2.818  53.406  1.00  0.00    -0.194 NA
ENDROOT
BRANCH   1   4
HETATM    4  O2  UNL     1      25.004  -0.563  53.530  1.00  0.00    -0.327 OA
BRANCH   4   5
HETATM    5  C7  UNL     1      23.680  -0.645  53.819  1.00  0.00     0.104 A 
HETATM    6  C6  UNL     1      22.920  -1.062  54.888  1.00  0.00     0.099 A 
HETATM    7  C5  UNL     1      21.547  -1.028  54.897  1.00  0.00     0.040 A 
HETATM    8  C4  UNL     1      20.848  -0.558  53.804  1.00  0.00     0.010 A 
HETATM    9  C3  UNL     1      21.555  -0.126  52.703  1.00  0.00    -0.056 A 
HETATM   10  C16 UNL     1      22.953  -0.170  52.715  1.00  0.00     0.046 A 
BRANCH   6  11
HETATM   11  O1  UNL     1      23.698  -1.517  55.939  1.00  0.00    -0.358 OA
HETATM   12  H8  UNL     1      23.331  -2.229  56.587  1.00  0.00     0.217 HD
ENDBRANCH   6  11
BRANCH   9  13
HETATM   13  C2  UNL     1      20.732   0.358  51.580  1.00  0.00     0.034 C 
HETATM   14  C1  UNL     1      21.538   0.733  50.358  1.00  0.00     0.010 C 
ENDBRANCH   9  13
ENDBRANCH   4   5
ENDBRANCH   1   4
BRANCH   1  15
HETATM   15  C10 UNL     1      27.073   0.357  52.828  1.00  0.00     0.051 A 
HETATM   16  C11 UNL     1      26.793   1.002  51.515  1.00  0.00     0.029 C 
HETATM   17  C12 UNL     1      27.360  -1.114  52.699  1.00  0.00    -0.008 A 
HETATM   18  C13 UNL     1      28.568  -1.394  53.182  1.00  0.00    -0.001 A 
HETATM   19  C14 UNL     1      29.203  -0.175  53.673  1.00  0.00     0.020 A 
HETATM   20  C15 UNL     1      28.343   0.810  53.466  1.00  0.00     0.027 A 
HETATM   21 CL1  UNL     1      28.425   2.533  53.802  1.00  0.00    -0.088 Cl
ENDBRANCH   1  15
TORSDOF 5
ENDMDL
MODEL 2
REMARK VINA RESULT:      -7.5      2.785      4.356
REMARK  5 active torsions:
REMARK  status: ('A' for Active; 'I' for Inactive)
REMARK    1  A    between atoms: C2_2  and  C3_3 
REMARK    2  A    between atoms: C6_6  and  O1_7 
REMARK    3  A    between atoms: C7_8  and  O2_9 
REMARK    4  A    between atoms: O2_9  and  C8_10 
REMARK    5  A    between atoms: C8_10  and  C10_13 
ROOT
HETATM    1  C8  UNL     1      26.445   1.492  53.418  1.00  0.00     0.252 C 
HETATM    2  C9  UNL     1      27.713   2.155  53.745  1.00  0.00     0.093 C 
HETATM    3  N1  UNL     1      28.710   2.690  53.999  1.00  0.00    -0.194 NA
ENDROOT
BRANCH   1   4
HETATM    4  O2  UNL     1      26.272   1.391  52.037  1.00  0.00    -0.327 OA
BRANCH   4   5
HETATM    5  C7  UNL     1      25.635   2.231  51.183  1.00  0.00     0.104 A 
HETATM    6  C6  UNL     1      25.975   3.338  50.438  1.00  0.00     0.099 A 
HETATM    7  C5  UNL     1      25.086   4.009  49.635  1.00  0.00     0.040 A 
HETATM    8  C4  UNL     1      23.774   3.592  49.534  1.00  0.00     0.010 A 
HETATM    9  C3  UNL     1      23.374   2.489  50.257  1.00  0.00    -0.056 A 
HETATM   10  C16 UNL     1      24.297   1.821  51.070  1.00  0.00     0.046 A 
BRANCH   6  11
HETATM   11  O1  UNL     1      27.305   3.688  50.597  1.00  0.00    -0.358 OA
HETATM   12  H8  UNL     1      27.678   3.901  51.534  1.00  0.00     0.217 HD
ENDBRANCH   6  11
BRANCH   9  13
HETATM   13  C2  UNL     1      21.959   2.112  50.094  1.00  0.00     0.034 C 
HETATM   14  C1  UNL     1      21.604   0.799  50.752  1.00  0.00     0.010 C 
ENDBRANCH   9  13
ENDBRANCH   4   5
ENDBRANCH   1   4
BRANCH   1  15
HETATM   15  C10 UNL     1      26.563   0.086  53.994  1.00  0.00     0.051 A 
HETATM   16  C11 UNL     1      26.311   0.023  55.461  1.00  0.00     0.029 C 
HETATM   17  C12 UNL     1      27.944  -0.382  53.625  1.00  0.00    -0.008 A 
HETATM   18  C13 UNL     1      27.875  -1.411  52.783  1.00  0.00    -0.001 A 
HETATM   19  C14 UNL     1      26.479  -1.734  52.506  1.00  0.00     0.020 A 
HETATM   20  C15 UNL     1      25.746  -0.877  53.200  1.00  0.00     0.027 A 
HETATM   21 CL1  UNL     1      24.008  -0.670  53.353  1.00  0.00    -0.088 Cl
ENDBRANCH   1  15
TORSDOF 5
ENDMDL
MODEL 3
REMARK VINA RESULT:      -7.3      2.206      3.046
REMARK  5 active torsions:
REMARK  status: ('A' for Active; 'I' for Inactive)
REMARK    1  A    between atoms: C2_2  and  C3_3 
REMARK    2  A    between atoms: C6_6  and  O1_7 
REMARK    3  A    between atoms: C7_8  and  O2_9 
REMARK    4  A    between atoms: O2_9  and  C8_10 
REMARK    5  A    between atoms: C8_10  and  C10_13 
ROOT
HETATM    1  C8  UNL     1      25.035  -0.073  52.680  1.00  0.00     0.252 C 
HETATM    2  C9  UNL     1      26.176  -0.937  53.005  1.00  0.00     0.093 C 
HETATM    3  N1  UNL     1      27.070  -1.629  53.262  1.00  0.00    -0.194 NA
ENDROOT
BRANCH   1   4
HETATM    4  O2  UNL     1      24.155   0.024  53.759  1.00  0.00    -0.327 OA
BRANCH   4   5
HETATM    5  C7  UNL     1      22.891  -0.453  53.887  1.00  0.00     0.104 A 
HETATM    6  C6  UNL     1      22.231  -1.300  54.749  1.00  0.00     0.099 A 
HETATM    7  C5  UNL     1      20.898  -1.611  54.628  1.00  0.00     0.040 A 
HETATM    8  C4  UNL     1      20.139  -1.072  53.609  1.00  0.00     0.010 A 
HETATM    9  C3  UNL     1      20.745  -0.217  52.715  1.00  0.00    -0.056 A 
HETATM   10  C16 UNL     1      22.104   0.086  52.856  1.00  0.00     0.046 A 
BRANCH   6  11
HETATM   11  O1  UNL     1      23.064  -1.794  55.737  1.00  0.00    -0.358 OA
HETATM   12  H8  UNL     1      23.989  -2.179  55.493  1.00  0.00     0.217 HD
ENDBRANCH   6  11
BRANCH   9  13
HETATM   13  C2  UNL     1      19.865   0.313  51.658  1.00  0.00     0.034 C 
HETATM   14  C1  UNL     1      18.438  -0.175  51.761  1.00  0.00     0.010 C 
ENDBRANCH   9  13
ENDBRANCH   4   5
ENDBRANCH   1   4
BRANCH   1  15
HETATM   15  C10 UNL     1      25.632   1.305  52.417  1.00  0.00     0.051 A 
HETATM   16  C11 UNL     1      26.766   1.285  51.452  1.00  0.00     0.029 C 
HETATM   17  C12 UNL     1      26.032   1.830  53.769  1.00  0.00    -0.008 A 
HETATM   18  C13 UNL     1      25.303   2.898  54.085  1.00  0.00    -0.001 A 
HETATM   19  C14 UNL     1      24.363   3.195  53.010  1.00  0.00     0.020 A 
HETATM   20  C15 UNL     1      24.560   2.283  52.070  1.00  0.00     0.027 A 
HETATM   21 CL1  UNL     1      23.799   2.020  50.509  1.00  0.00    -0.088 Cl
ENDBRANCH   1  15
TORSDOF 5
ENDMDL
MODEL 4
REMARK VINA RESULT:      -7.2      2.155      2.996
REMARK  5 active torsions:
REMARK  status: ('A' for Active; 'I' for Inactive)
REMARK    1  A    between atoms: C2_2  and  C3_3 
REMARK    2  A    between atoms: C6_6  and  O1_7 
REMARK    3  A    between atoms: C7_8  and  O2_9 
REMARK    4  A    between atoms: O2_9  and  C8_10 
REMARK    5  A    between atoms: C8_10  and  C10_13 
ROOT
HETATM    1  C8  UNL     1      24.469  -0.291  53.655  1.00  0.00     0.252 C 
HETATM    2  C9  UNL     1      24.507  -0.966  54.958  1.00  0.00     0.093 C 
HETATM    3  N1  UNL     1      24.526  -1.505  55.984  1.00  0.00    -0.194 NA
ENDROOT
BRANCH   1   4
HETATM    4  O2  UNL     1      23.408   0.614  53.589  1.00  0.00    -0.327 OA
BRANCH   4   5
HETATM    5  C7  UNL     1      22.161   0.446  53.082  1.00  0.00     0.104 A 
HETATM    6  C6  UNL     1      20.935   0.049  53.568  1.00  0.00     0.099 A 
HETATM    7  C5  UNL     1      19.805  -0.028  52.792  1.00  0.00     0.040 A 
HETATM    8  C4  UNL     1      19.847   0.297  51.451  1.00  0.00     0.010 A 
HETATM    9  C3  UNL     1      21.047   0.702  50.907  1.00  0.00    -0.056 A 
HETATM   10  C16 UNL     1      22.187   0.773  51.717  1.00  0.00     0.046 A 
BRANCH   6  11
HETATM   11  O1  UNL     1      20.981  -0.258  54.917  1.00  0.00    -0.358 OA
HETATM   12  H8  UNL     1      20.111  -0.438  55.439  1.00  0.00     0.217 HD
ENDBRANCH   6  11
BRANCH   9  13
HETATM   13  C2  UNL     1      21.006   1.030  49.471  1.00  0.00     0.034 C 
HETATM   14  C1  UNL     1      22.198   1.829  48.999  1.00  0.00     0.010 C 
ENDBRANCH   9  13
ENDBRANCH   4   5
ENDBRANCH   1   4
BRANCH   1  15
HETATM   15  C10 UNL     1      25.776   0.488  53.564  1.00  0.00     0.051 A 
HETATM   16  C11 UNL     1      26.549   0.500  54.837  1.00  0.00     0.029 C 
HETATM   17  C12 UNL     1      25.385   1.869  53.112  1.00  0.00    -0.008 A 
HETATM   18  C13 UNL     1      25.882   2.117  51.902  1.00  0.00    -0.001 A 
HETATM   19  C14 UNL     1      26.637   0.962  51.427  1.00  0.00     0.020 A 
HETATM   20  C15 UNL     1      26.568   0.045  52.380  1.00  0.00     0.027 A 
HETATM   21 CL1  UNL     1      27.232  -1.577  52.501  1.00  0.00    -0.088 Cl
ENDBRANCH   1  15
TORSDOF 5
ENDMDL
MODEL 5
REMARK VINA RESULT:      -7.2      3.143      5.676
REMARK  5 active torsions:
REMARK  status: ('A' for Active; 'I' for Inactive)
REMARK    1  A    between atoms: C2_2  and  C3_3 
REMARK    2  A    between atoms: C6_6  and  O1_7 
REMARK    3  A    between atoms: C7_8  and  O2_9 
REMARK    4  A    between atoms: O2_9  and  C8_10 
REMARK    5  A    between atoms: C8_10  and  C10_13 
ROOT
HETATM    1  C8  UNL     1      25.074   3.367  51.366  1.00  0.00     0.252 C 
HETATM    2  C9  UNL     1      23.681   3.477  51.815  1.00  0.00     0.093 C 
HETATM    3  N1  UNL     1      22.584   3.560  52.182  1.00  0.00    -0.194 NA
ENDROOT
BRANCH   1   4
HETATM    4  O2  UNL     1      25.521   2.047  51.432  1.00  0.00    -0.327 OA
BRANCH   4   5
HETATM    5  C7  UNL     1      25.891   1.315  52.513  1.00  0.00     0.104 A 
HETATM    6  C6  UNL     1      25.247   0.636  53.523  1.00  0.00     0.099 A 
HETATM    7  C5  UNL     1      25.907  -0.041  54.519  1.00  0.00     0.040 A 
HETATM    8  C4  UNL     1      27.286  -0.073  54.553  1.00  0.00     0.010 A 
HETATM    9  C3  UNL     1      27.988   0.589  53.568  1.00  0.00    -0.056 A 
HETATM   10  C16 UNL     1      27.294   1.272  52.563  1.00  0.00     0.046 A 
BRANCH   6  11
HETATM   11  O1  UNL     1      23.869   0.719  53.412  1.00  0.00    -0.358 OA
HETATM   12  H8  UNL     1      23.398   0.412  52.549  1.00  0.00     0.217 HD
ENDBRANCH   6  11
BRANCH   9  13
HETATM   13  C2  UNL     1      29.455   0.506  53.680  1.00  0.00     0.034 C 
HETATM   14  C1  UNL     1      29.981  -0.911  53.677  1.00  0.00     0.010 C 
ENDBRANCH   9  13
ENDBRANCH   4   5
ENDBRANCH   1   4
BRANCH   1  15
HETATM   15  C10 UNL     1      25.064   3.801  49.904  1.00  0.00     0.051 A 
HETATM   16  C11 UNL     1      23.896   3.282  49.140  1.00  0.00     0.029 C 
HETATM   17  C12 UNL     1      26.378   3.333  49.341  1.00  0.00    -0.008 A 
HETATM   18  C13 UNL     1      27.129   4.375  48.993  1.00  0.00    -0.001 A 
HETATM   19  C14 UNL     1      26.420   5.618  49.278  1.00  0.00     0.020 A 
HETATM   20  C15 UNL     1      25.249   5.278  49.794  1.00  0.00     0.027 A 
HETATM   21 CL1  UNL     1      23.893   6.236  50.367  1.00  0.00    -0.088 Cl
ENDBRANCH   1  15
TORSDOF 5
ENDMDL
MODEL 6
REMARK VINA RESULT:      -7.2      3.389      5.436
REMARK  5 active torsions:
REMARK  status: ('A' for Active; 'I' for Inactive)
REMARK    1  A    between atoms: C2_2  and  C3_3 
REMARK    2  A    between atoms: C6_6  and  O1_7 
REMARK    3  A    between atoms: C7_8  and  O2_9 
REMARK    4  A    between atoms: O2_9  and  C8_10 
REMARK    5  A    between atoms: C8_10  and  C10_13 
ROOT
HETATM    1  C8  UNL     1      25.049   3.033  50.641  1.00  0.00     0.252 C 
HETATM    2  C9  UNL     1      26.209   3.591  49.934  1.00  0.00     0.093 C 
HETATM    3  N1  UNL     1      27.131   4.021  49.380  1.00  0.00    -0.194 NA
ENDROOT
BRANCH   1   4
HETATM    4  O2  UNL     1      25.244   3.057  52.023  1.00  0.00    -0.327 OA
BRANCH   4   5
HETATM    5  C7  UNL     1      25.422   2.027  52.888  1.00  0.00     0.104 A 
HETATM    6  C6  UNL     1      26.372   1.659  53.815  1.00  0.00     0.099 A 
HETATM    7  C5  UNL     1      26.283   0.518  54.573  1.00  0.00     0.040 A 
HETATM    8  C4  UNL     1      25.207  -0.336  54.438  1.00  0.00     0.010 A 
HETATM    9  C3  UNL     1      24.223  -0.020  53.526  1.00  0.00    -0.056 A 
HETATM   10  C16 UNL     1      24.334   1.148  52.763  1.00  0.00     0.046 A 
BRANCH   6  11
HETATM   11  O1  UNL     1      27.413   2.568  53.885  1.00  0.00    -0.358 OA
HETATM   12  H8  UNL     1      27.564   3.246  53.123  1.00  0.00     0.217 HD
ENDBRANCH   6  11
BRANCH   9  13
HETATM   13  C2  UNL     1      23.111  -0.984  53.444  1.00  0.00     0.034 C 
HETATM   14  C1  UNL     1      22.413  -1.214  54.765  1.00  0.00     0.010 C 
ENDBRANCH   9  13
ENDBRANCH   4   5
ENDBRANCH   1   4
BRANCH   1  15
HETATM   15  C10 UNL     1      23.885   3.956  50.301  1.00  0.00     0.051 A 
HETATM   16  C11 UNL     1      23.992   4.571  48.948  1.00  0.00     0.029 C 
HETATM   17  C12 UNL     1      23.854   4.981  51.401  1.00  0.00    -0.008 A 
HETATM   18  C13 UNL     1      22.735   4.864  52.112  1.00  0.00    -0.001 A 
HETATM   19  C14 UNL     1      21.918   3.778  51.580  1.00  0.00     0.020 A 
HETATM   20  C15 UNL     1      22.583   3.272  50.552  1.00  0.00     0.027 A 
HETATM   21 CL1  UNL     1      22.215   1.957  49.446  1.00  0.00    -0.088 Cl
ENDBRANCH   1  15
TORSDOF 5
ENDMDL
MODEL 7
REMARK VINA RESULT:      -7.1      2.406      5.998
REMARK  5 active torsions:
REMARK  status: ('A' for Active; 'I' for Inactive)
REMARK    1  A    between atoms: C2_2  and  C3_3 
REMARK    2  A    between atoms: C6_6  and  O1_7 
REMARK    3  A    between atoms: C7_8  and  O2_9 
REMARK    4  A    between atoms: O2_9  and  C8_10 
REMARK    5  A    between atoms: C8_10  and  C10_13 
ROOT
HETATM    1  C8  UNL     1      22.701   0.984  53.143  1.00  0.00     0.252 C 
HETATM    2  C9  UNL     1      22.289  -0.338  53.632  1.00  0.00     0.093 C 
HETATM    3  N1  UNL     1      21.974  -1.382  54.024  1.00  0.00    -0.194 NA
ENDROOT
BRANCH   1   4
HETATM    4  O2  UNL     1      23.874   0.899  52.392  1.00  0.00    -0.327 OA
BRANCH   4   5
HETATM    5  C7  UNL     1      25.164   1.054  52.785  1.00  0.00     0.104 A 
HETATM    6  C6  UNL     1      25.943   2.088  53.253  1.00  0.00     0.099 A 
HETATM    7  C5  UNL     1      27.269   1.945  53.582  1.00  0.00     0.040 A 
HETATM    8  C4  UNL     1      27.898   0.723  53.455  1.00  0.00     0.010 A 
HETATM    9  C3  UNL     1      27.169  -0.350  52.991  1.00  0.00    -0.056 A 
HETATM   10  C16 UNL     1      25.819  -0.182  52.662  1.00  0.00     0.046 A 
BRANCH   6  11
HETATM   11  O1  UNL     1      25.236   3.274  53.349  1.00  0.00    -0.358 OA
HETATM   12  H8  UNL     1      25.485   4.077  52.752  1.00  0.00     0.217 HD
ENDBRANCH   6  11
BRANCH   9  13
HETATM   13  C2  UNL     1      27.916  -1.616  52.885  1.00  0.00     0.034 C 
HETATM   14  C1  UNL     1      29.336  -1.524  53.392  1.00  0.00     0.010 C 
ENDBRANCH   9  13
ENDBRANCH   4   5
ENDBRANCH   1   4
BRANCH   1  15
HETATM   15  C10 UNL     1      21.574   1.447  52.228  1.00  0.00     0.051 A 
HETATM   16  C11 UNL     1      20.270   1.612  52.930  1.00  0.00     0.029 C 
HETATM   17  C12 UNL     1      21.511   0.426  51.125  1.00  0.00    -0.008 A 
HETATM   18  C13 UNL     1      21.839   0.982  49.961  1.00  0.00    -0.001 A 
HETATM   19  C14 UNL     1      22.148   2.395  50.153  1.00  0.00     0.020 A 
HETATM   20  C15 UNL     1      21.993   2.645  51.444  1.00  0.00     0.027 A 
HETATM   21 CL1  UNL     1      22.190   4.113  52.390  1.00  0.00    -0.088 Cl
ENDBRANCH   1  15
TORSDOF 5
ENDMDL
MODEL 8
REMARK VINA RESULT:      -7.0      3.448      5.444
REMARK  5 active torsions:
REMARK  status: ('A' for Active; 'I' for Inactive)
REMARK    1  A    between atoms: C2_2  and  C3_3 
REMARK    2  A    between atoms: C6_6  and  O1_7 
REMARK    3  A    between atoms: C7_8  and  O2_9 
REMARK    4  A    between atoms: O2_9  and  C8_10 
REMARK    5  A    between atoms: C8_10  and  C10_13 
ROOT
HETATM    1  C8  UNL     1      24.914   3.620  51.277  1.00  0.00     0.252 C 
HETATM    2  C9  UNL     1      23.497   3.735  51.639  1.00  0.00     0.093 C 
HETATM    3  N1  UNL     1      22.380   3.824  51.937  1.00  0.00    -0.194 NA
ENDROOT
BRANCH   1   4
HETATM    4  O2  UNL     1      25.364   2.306  51.417  1.00  0.00    -0.327 OA
BRANCH   4   5
HETATM    5  C7  UNL     1      26.022   1.724  52.450  1.00  0.00     0.104 A 
HETATM    6  C6  UNL     1      27.274   1.827  53.016  1.00  0.00     0.099 A 
HETATM    7  C5  UNL     1      27.676   1.082  54.098  1.00  0.00     0.040 A 
HETATM    8  C4  UNL     1      26.821   0.172  54.683  1.00  0.00     0.010 A 
HETATM    9  C3  UNL     1      25.554   0.024  54.160  1.00  0.00    -0.056 A 
HETATM   10  C16 UNL     1      25.165   0.793  53.058  1.00  0.00     0.046 A 
BRANCH   6  11
HETATM   11  O1  UNL     1      28.065   2.760  52.370  1.00  0.00    -0.358 OA
HETATM   12  H8  UNL     1      27.639   3.454  51.737  1.00  0.00     0.217 HD
ENDBRANCH   6  11
BRANCH   9  13
HETATM   13  C2  UNL     1      24.706  -0.970  54.843  1.00  0.00     0.034 C 
HETATM   14  C1  UNL     1      23.253  -0.907  54.433  1.00  0.00     0.010 C 
ENDBRANCH   9  13
ENDBRANCH   4   5
ENDBRANCH   1   4
BRANCH   1  15
HETATM   15  C10 UNL     1      24.988   4.002  49.803  1.00  0.00     0.051 A 
HETATM   16  C11 UNL     1      23.840   3.495  49.001  1.00  0.00     0.029 C 
HETATM   17  C12 UNL     1      26.310   3.470  49.320  1.00  0.00    -0.008 A 
HETATM   18  C13 UNL     1      27.114   4.473  48.973  1.00  0.00    -0.001 A 
HETATM   19  C14 UNL     1      26.436   5.748  49.182  1.00  0.00     0.020 A 
HETATM   20  C15 UNL     1      25.231   5.466  49.652  1.00  0.00     0.027 A 
HETATM   21 CL1  UNL     1      23.884   6.489  50.126  1.00  0.00    -0.088 Cl
ENDBRANCH   1  15
TORSDOF 5
ENDMDL
MODEL 9
REMARK VINA RESULT:      -7.0      3.010      4.779
REMARK  5 active torsions:
REMARK  status: ('A' for Active; 'I' for Inactive)
REMARK    1  A    between atoms: C2_2  and  C3_3 
REMARK    2  A    between atoms: C6_6  and  O1_7 
REMARK    3  A    between atoms: C7_8  and  O2_9 
REMARK    4  A    between atoms: O2_9  and  C8_10 
REMARK    5  A    between atoms: C8_10  and  C10_13 
ROOT
HETATM    1  C8  UNL     1      25.785   0.707  52.619  1.00  0.00     0.252 C 
HETATM    2  C9  UNL     1      24.672  -0.131  53.083  1.00  0.00     0.093 C 
HETATM    3  N1  UNL     1      23.788  -0.791  53.439  1.00  0.00    -0.194 NA
ENDROOT
BRANCH   1   4
HETATM    4  O2  UNL     1      25.364   2.017  52.384  1.00  0.00    -0.327 OA
BRANCH   4   5
HETATM    5  C7  UNL     1      24.774   2.550  51.285  1.00  0.00     0.104 A 
HETATM    6  C6  UNL     1      23.583   2.381  50.615  1.00  0.00     0.099 A 
HETATM    7  C5  UNL     1      23.245   3.088  49.486  1.00  0.00     0.040 A 
HETATM    8  C4  UNL     1      24.109   4.026  48.958  1.00  0.00     0.010 A 
HETATM    9  C3  UNL     1      25.317   4.239  49.585  1.00  0.00    -0.056 A 
HETATM   10  C16 UNL     1      25.641   3.508  50.734  1.00  0.00     0.046 A 
BRANCH   6  11
HETATM   11  O1  UNL     1      22.779   1.425  51.210  1.00  0.00    -0.358 OA
HETATM   12  H8  UNL     1      21.945   1.707  51.747  1.00  0.00     0.217 HD
ENDBRANCH   6  11
BRANCH   9  13
HETATM   13  C2  UNL     1      26.179   5.255  48.957  1.00  0.00     0.034 C 
HETATM   14  C1  UNL     1      27.590   4.778  48.703  1.00  0.00     0.010 C 
ENDBRANCH   9  13
ENDBRANCH   4   5
ENDBRANCH   1   4
BRANCH   1  15
HETATM   15  C10 UNL     1      26.789   0.719  53.765  1.00  0.00     0.051 A 
HETATM   16  C11 UNL     1      26.245   0.166  55.036  1.00  0.00     0.029 C 
HETATM   17  C12 UNL     1      27.224   2.153  53.898  1.00  0.00    -0.008 A 
HETATM   18  C13 UNL     1      28.515   2.275  53.597  1.00  0.00    -0.001 A 
HETATM   19  C14 UNL     1      29.068   0.973  53.240  1.00  0.00     0.020 A 
HETATM   20  C15 UNL     1      28.078   0.100  53.340  1.00  0.00     0.027 A 
HETATM   21 CL1  UNL     1      28.007  -1.634  53.065  1.00  0.00    -0.088 Cl
ENDBRANCH   1  15
TORSDOF 5
ENDMDL
