MODEL 1
REMARK VINA RESULT:      -8.8      0.000      0.000
REMARK  3 active torsions:
REMARK  status: ('A' for Active; 'I' for Inactive)
REMARK    1  A    between atoms: C14_18  and  C15_19 
REMARK    2  A    between atoms: C16_20  and  C17_21 
REMARK    3  A    between atoms: C18_22  and  N4_23 
ROOT
HETATM    1  C1  UNL     1      19.127  -0.435  53.131  1.00  0.00     0.050 C 
HETATM    2  C2  UNL     1      20.565  -0.512  53.537  1.00  0.00    -0.036 A 
HETATM    3  C3  UNL     1      20.836  -1.618  54.308  1.00  0.00     0.123 A 
HETATM    4  N1  UNL     1      22.094  -1.831  54.735  1.00  0.00    -0.272 NA
HETATM    5  C4  UNL     1      22.966  -0.853  54.313  1.00  0.00     0.124 A 
HETATM    6  C5  UNL     1      22.824   0.341  53.517  1.00  0.00    -0.030 A 
HETATM    7  C6  UNL     1      21.473   0.455  53.131  1.00  0.00    -0.025 A 
HETATM    8  C7  UNL     1      20.804   1.463  52.311  1.00  0.00     0.158 C 
HETATM    9  N2  UNL     1      20.762   1.163  50.902  1.00  0.00    -0.395 N 
HETATM   10  C8  UNL     1      20.853   0.840  49.484  1.00  0.00     0.083 C 
HETATM   11  C9  UNL     1      21.566   1.357  48.486  1.00  0.00     0.016 C 
HETATM   12  C10 UNL     1      22.515   2.256  47.861  1.00  0.00    -0.002 C 
HETATM   13  C11 UNL     1      23.264   3.271  48.347  1.00  0.00    -0.017 C 
HETATM   14  C12 UNL     1      23.100   3.525  49.772  1.00  0.00     0.130 C 
HETATM   15  C13 UNL     1      24.328   3.378  50.603  1.00  0.00     0.221 C 
HETATM   16  O1  UNL     1      25.521   3.454  50.960  1.00  0.00    -0.273 OA
HETATM   17  N3  UNL     1      24.266   2.691  51.874  1.00  0.00    -0.353 N 
HETATM   18  C14 UNL     1      24.595   2.176  53.152  1.00  0.00     0.111 C 
HETATM   19  C19 UNL     1      24.185   0.826  53.500  1.00  0.00     0.069 C 
HETATM   20  H8  UNL     1      21.798   0.893  50.863  1.00  0.00     0.159 HD
HETATM   21  H15 UNL     1      23.362   2.246  51.913  1.00  0.00     0.163 HD
ENDROOT
BRANCH  18  22
HETATM   22  C15 UNL     1      26.209   2.013  53.012  1.00  0.00    -0.002 C 
HETATM   23  C16 UNL     1      26.993   1.332  53.818  1.00  0.00    -0.001 C 
BRANCH  23  24
HETATM   24  C17 UNL     1      28.367   1.400  53.397  1.00  0.00     0.016 C 
HETATM   25  C18 UNL     1      29.081   0.477  54.057  1.00  0.00     0.080 C 
BRANCH  25  26
HETATM   26  N4  UNL     1      28.169  -0.206  54.925  1.00  0.00    -0.408 N 
HETATM   27  H21 UNL     1      27.436  -0.699  55.488  1.00  0.00     0.155 HD
HETATM   28  H22 UNL     1      27.822  -0.685  55.809  1.00  0.00     0.155 HD
ENDBRANCH  25  26
ENDBRANCH  23  24
ENDBRANCH  18  22
TORSDOF 3
ENDMDL
MODEL 2
REMARK VINA RESULT:      -8.3      2.023      5.186
REMARK  3 active torsions:
REMARK  status: ('A' for Active; 'I' for Inactive)
REMARK    1  A    between atoms: C14_18  and  C15_19 
REMARK    2  A    between atoms: C16_20  and  C17_21 
REMARK    3  A    between atoms: C18_22  and  N4_23 
ROOT
HETATM    1  C1  UNL     1      21.631  -1.622  54.568  1.00  0.00     0.050 C 
HETATM    2  C2  UNL     1      21.543  -0.330  53.821  1.00  0.00    -0.036 A 
HETATM    3  C3  UNL     1      20.344   0.313  54.020  1.00  0.00     0.123 A 
HETATM    4  N1  UNL     1      20.125   1.500  53.424  1.00  0.00    -0.272 NA
HETATM    5  C4  UNL     1      21.196   1.912  52.663  1.00  0.00     0.124 A 
HETATM    6  C5  UNL     1      22.491   1.351  52.368  1.00  0.00    -0.030 A 
HETATM    7  C6  UNL     1      22.601   0.118  53.043  1.00  0.00    -0.025 A 
HETATM    8  C7  UNL     1      23.705  -0.838  53.096  1.00  0.00     0.158 C 
HETATM    9  N2  UNL     1      24.637  -0.624  54.173  1.00  0.00    -0.395 N 
HETATM   10  C8  UNL     1      25.589  -0.279  55.222  1.00  0.00     0.083 C 
HETATM   11  C9  UNL     1      26.816   0.235  55.191  1.00  0.00     0.016 C 
HETATM   12  C10 UNL     1      28.016   0.767  54.578  1.00  0.00    -0.002 C 
HETATM   13  C11 UNL     1      28.366   0.972  53.288  1.00  0.00    -0.017 C 
HETATM   14  C12 UNL     1      27.355   0.589  52.312  1.00  0.00     0.130 C 
HETATM   15  C13 UNL     1      26.850   1.686  51.437  1.00  0.00     0.221 C 
HETATM   16  O1  UNL     1      26.842   2.697  50.708  1.00  0.00    -0.273 OA
HETATM   17  N3  UNL     1      25.434   1.806  51.170  1.00  0.00    -0.353 N 
HETATM   18  C14 UNL     1      24.187   2.207  50.629  1.00  0.00     0.111 C 
HETATM   19  C19 UNL     1      23.050   2.375  51.516  1.00  0.00     0.069 C 
HETATM   20  H8  UNL     1      24.712   0.429  53.986  1.00  0.00     0.159 HD
HETATM   21  H15 UNL     1      24.970   1.175  51.805  1.00  0.00     0.163 HD
ENDROOT
BRANCH  18  22
HETATM   22  C15 UNL     1      24.515   3.744  50.204  1.00  0.00    -0.002 C 
HETATM   23  C16 UNL     1      24.163   4.823  50.866  1.00  0.00    -0.001 C 
BRANCH  23  24
HETATM   24  C17 UNL     1      24.620   6.017  50.205  1.00  0.00     0.016 C 
HETATM   25  C18 UNL     1      24.636   7.032  51.080  1.00  0.00     0.080 C 
BRANCH  25  26
HETATM   26  N4  UNL     1      24.182   6.504  52.333  1.00  0.00    -0.408 N 
HETATM   27  H21 UNL     1      23.898   6.034  53.225  1.00  0.00     0.155 HD
HETATM   28  H22 UNL     1      23.673   6.481  53.266  1.00  0.00     0.155 HD
ENDBRANCH  25  26
ENDBRANCH  23  24
ENDBRANCH  18  22
TORSDOF 3
ENDMDL
MODEL 3
REMARK VINA RESULT:      -8.1      2.049      5.067
REMARK  3 active torsions:
REMARK  status: ('A' for Active; 'I' for Inactive)
REMARK    1  A    between atoms: C14_18  and  C15_19 
REMARK    2  A    between atoms: C16_20  and  C17_21 
REMARK    3  A    between atoms: C18_22  and  N4_23 
ROOT
HETATM    1  C1  UNL     1      22.310   4.036  48.414  1.00  0.00     0.050 C 
HETATM    2  C2  UNL     1      23.591   3.927  49.178  1.00  0.00    -0.036 A 
HETATM    3  C3  UNL     1      24.408   5.018  48.994  1.00  0.00     0.123 A 
HETATM    4  N1  UNL     1      25.591   5.070  49.633  1.00  0.00    -0.272 NA
HETATM    5  C4  UNL     1      25.815   3.961  50.417  1.00  0.00     0.124 A 
HETATM    6  C5  UNL     1      25.062   2.764  50.699  1.00  0.00    -0.030 A 
HETATM    7  C6  UNL     1      23.853   2.825  49.978  1.00  0.00    -0.025 A 
HETATM    8  C7  UNL     1      22.735   1.884  49.923  1.00  0.00     0.158 C 
HETATM    9  N2  UNL     1      21.699   2.123  50.896  1.00  0.00    -0.395 N 
HETATM   10  C8  UNL     1      20.748   2.365  51.974  1.00  0.00     0.083 C 
HETATM   11  C9  UNL     1      20.474   1.708  53.098  1.00  0.00     0.016 C 
HETATM   12  C10 UNL     1      20.608   0.656  54.085  1.00  0.00    -0.002 C 
HETATM   13  C11 UNL     1      21.408  -0.431  54.155  1.00  0.00    -0.017 C 
HETATM   14  C12 UNL     1      22.318  -0.595  53.030  1.00  0.00     0.130 C 
HETATM   15  C13 UNL     1      23.771  -0.585  53.363  1.00  0.00     0.221 C 
HETATM   16  O1  UNL     1      24.840  -0.812  53.965  1.00  0.00    -0.273 OA
HETATM   17  N3  UNL     1      24.698   0.161  52.542  1.00  0.00    -0.353 N 
HETATM   18  C14 UNL     1      25.887   0.683  51.974  1.00  0.00     0.111 C 
HETATM   19  C19 UNL     1      25.947   2.091  51.623  1.00  0.00     0.069 C 
HETATM   20  H8  UNL     1      22.394   2.242  51.702  1.00  0.00     0.159 HD
HETATM   21  H15 UNL     1      24.139   0.731  51.926  1.00  0.00     0.163 HD
ENDROOT
BRANCH  18  22
HETATM   22  C15 UNL     1      26.896   0.610  53.249  1.00  0.00    -0.002 C 
HETATM   23  C16 UNL     1      28.195   0.808  53.223  1.00  0.00    -0.001 C 
BRANCH  23  24
HETATM   24  C17 UNL     1      28.775   0.666  54.533  1.00  0.00     0.016 C 
HETATM   25  C18 UNL     1      29.494   1.760  54.822  1.00  0.00     0.080 C 
BRANCH  25  26
HETATM   26  N4  UNL     1      29.390   2.633  53.691  1.00  0.00    -0.408 N 
HETATM   27  H21 UNL     1      29.389   3.321  52.901  1.00  0.00     0.155 HD
HETATM   28  H22 UNL     1      29.004   3.023  52.779  1.00  0.00     0.155 HD
ENDBRANCH  25  26
ENDBRANCH  23  24
ENDBRANCH  18  22
TORSDOF 3
ENDMDL
MODEL 4
REMARK VINA RESULT:      -7.9      2.420      6.180
REMARK  3 active torsions:
REMARK  status: ('A' for Active; 'I' for Inactive)
REMARK    1  A    between atoms: C14_18  and  C15_19 
REMARK    2  A    between atoms: C16_20  and  C17_21 
REMARK    3  A    between atoms: C18_22  and  N4_23 
ROOT
HETATM    1  C1  UNL     1      25.632  -0.131  54.373  1.00  0.00     0.050 C 
HETATM    2  C2  UNL     1      24.181  -0.488  54.301  1.00  0.00    -0.036 A 
HETATM    3  C3  UNL     1      23.791  -1.317  55.326  1.00  0.00     0.123 A 
HETATM    4  N1  UNL     1      22.506  -1.709  55.403  1.00  0.00    -0.272 NA
HETATM    5  C4  UNL     1      21.736  -1.193  54.385  1.00  0.00     0.124 A 
HETATM    6  C5  UNL     1      22.006  -0.329  53.264  1.00  0.00    -0.030 A 
HETATM    7  C6  UNL     1      23.373   0.013  53.290  1.00  0.00    -0.025 A 
HETATM    8  C7  UNL     1      24.153   0.870  52.399  1.00  0.00     0.158 C 
HETATM    9  N2  UNL     1      24.213   2.254  52.794  1.00  0.00    -0.395 N 
HETATM   10  C8  UNL     1      24.140   3.651  53.202  1.00  0.00     0.083 C 
HETATM   11  C9  UNL     1      23.507   4.706  52.695  1.00  0.00     0.016 C 
HETATM   12  C10 UNL     1      22.660   5.422  51.762  1.00  0.00    -0.002 C 
HETATM   13  C11 UNL     1      21.986   5.030  50.658  1.00  0.00    -0.017 C 
HETATM   14  C12 UNL     1      22.126   3.619  50.324  1.00  0.00     0.130 C 
HETATM   15  C13 UNL     1      20.864   2.827  50.311  1.00  0.00     0.221 C 
HETATM   16  O1  UNL     1      19.672   2.520  50.111  1.00  0.00    -0.273 OA
HETATM   17  N3  UNL     1      20.826   1.513  50.915  1.00  0.00    -0.353 N 
HETATM   18  C14 UNL     1      20.413   0.218  51.314  1.00  0.00     0.111 C 
HETATM   19  C19 UNL     1      20.694  -0.230  52.667  1.00  0.00     0.069 C 
HETATM   20  H8  UNL     1      23.159   2.314  52.978  1.00  0.00     0.159 HD
HETATM   21  H15 UNL     1      21.686   1.412  51.431  1.00  0.00     0.163 HD
ENDROOT
BRANCH  18  22
HETATM   22  C15 UNL     1      18.797   0.407  51.350  1.00  0.00    -0.002 C 
HETATM   23  C16 UNL     1      17.933  -0.399  51.926  1.00  0.00    -0.001 C 
BRANCH  23  24
HETATM   24  C17 UNL     1      16.584   0.073  51.763  1.00  0.00     0.016 C 
HETATM   25  C18 UNL     1      15.774  -0.600  52.594  1.00  0.00     0.080 C 
BRANCH  25  26
HETATM   26  N4  UNL     1      16.598  -1.528  53.310  1.00  0.00    -0.408 N 
HETATM   27  H21 UNL     1      17.248  -2.129  53.869  1.00  0.00     0.155 HD
HETATM   28  H22 UNL     1      16.960  -2.471  53.643  1.00  0.00     0.155 HD
ENDBRANCH  25  26
ENDBRANCH  23  24
ENDBRANCH  18  22
TORSDOF 3
ENDMDL
MODEL 5
REMARK VINA RESULT:      -7.7      2.805      6.742
REMARK  3 active torsions:
REMARK  status: ('A' for Active; 'I' for Inactive)
REMARK    1  A    between atoms: C14_18  and  C15_19 
REMARK    2  A    between atoms: C16_20  and  C17_21 
REMARK    3  A    between atoms: C18_22  and  N4_23 
ROOT
HETATM    1  C1  UNL     1      23.590   5.818  51.537  1.00  0.00     0.050 C 
HETATM    2  C2  UNL     1      22.455   4.846  51.568  1.00  0.00    -0.036 A 
HETATM    3  C3  UNL     1      21.395   5.247  50.790  1.00  0.00     0.123 A 
HETATM    4  N1  UNL     1      20.305   4.463  50.705  1.00  0.00    -0.272 NA
HETATM    5  C4  UNL     1      20.423   3.314  51.454  1.00  0.00     0.124 A 
HETATM    6  C5  UNL     1      21.455   2.773  52.304  1.00  0.00    -0.030 A 
HETATM    7  C6  UNL     1      22.537   3.677  52.312  1.00  0.00    -0.025 A 
HETATM    8  C7  UNL     1      23.829   3.602  52.992  1.00  0.00     0.158 C 
HETATM    9  N2  UNL     1      24.878   2.980  52.226  1.00  0.00    -0.395 N 
HETATM   10  C8  UNL     1      25.855   2.246  51.431  1.00  0.00     0.083 C 
HETATM   11  C9  UNL     1      26.388   1.033  51.554  1.00  0.00     0.016 C 
HETATM   12  C10 UNL     1      26.602  -0.267  52.157  1.00  0.00    -0.002 C 
HETATM   13  C11 UNL     1      26.083  -0.856  53.258  1.00  0.00    -0.017 C 
HETATM   14  C12 UNL     1      25.123  -0.044  53.992  1.00  0.00     0.130 C 
HETATM   15  C13 UNL     1      23.749  -0.611  54.109  1.00  0.00     0.221 C 
HETATM   16  O1  UNL     1      22.830  -1.438  54.273  1.00  0.00    -0.273 OA
HETATM   17  N3  UNL     1      22.595   0.236  53.905  1.00  0.00    -0.353 N 
HETATM   18  C14 UNL     1      21.266   0.724  53.854  1.00  0.00     0.111 C 
HETATM   19  C19 UNL     1      20.850   1.529  52.718  1.00  0.00     0.069 C 
HETATM   20  H8  UNL     1      24.262   2.154  51.932  1.00  0.00     0.159 HD
HETATM   21  H15 UNL     1      22.942   1.103  53.524  1.00  0.00     0.163 HD
ENDROOT
BRANCH  18  22
HETATM   22  C15 UNL     1      20.439  -0.656  53.611  1.00  0.00    -0.002 C 
HETATM   23  C16 UNL     1      19.134  -0.772  53.510  1.00  0.00    -0.001 C 
BRANCH  23  24
HETATM   24  C17 UNL     1      18.742  -2.140  53.297  1.00  0.00     0.016 C 
HETATM   25  C18 UNL     1      17.407  -2.209  53.190  1.00  0.00     0.080 C 
BRANCH  25  26
HETATM   26  N4  UNL     1      16.912  -0.872  53.336  1.00  0.00    -0.408 N 
HETATM   27  H21 UNL     1      16.641   0.136  53.422  1.00  0.00     0.155 HD
HETATM   28  H22 UNL     1      16.211  -0.097  53.532  1.00  0.00     0.155 HD
ENDBRANCH  25  26
ENDBRANCH  23  24
ENDBRANCH  18  22
TORSDOF 3
ENDMDL
MODEL 6
REMARK VINA RESULT:      -7.7      3.057      4.858
REMARK  3 active torsions:
REMARK  status: ('A' for Active; 'I' for Inactive)
REMARK    1  A    between atoms: C14_18  and  C15_19 
REMARK    2  A    between atoms: C16_20  and  C17_21 
REMARK    3  A    between atoms: C18_22  and  N4_23 
ROOT
HETATM    1  C1  UNL     1      23.584  -0.174  53.409  1.00  0.00     0.050 C 
HETATM    2  C2  UNL     1      24.695   0.551  52.719  1.00  0.00    -0.036 A 
HETATM    3  C3  UNL     1      25.912  -0.066  52.890  1.00  0.00     0.123 A 
HETATM    4  N1  UNL     1      27.006   0.463  52.311  1.00  0.00    -0.272 NA
HETATM    5  C4  UNL     1      26.723   1.605  51.597  1.00  0.00     0.124 A 
HETATM    6  C5  UNL     1      25.518   2.352  51.337  1.00  0.00    -0.030 A 
HETATM    7  C6  UNL     1      24.450   1.705  51.990  1.00  0.00    -0.025 A 
HETATM    8  C7  UNL     1      23.027   2.037  52.035  1.00  0.00     0.158 C 
HETATM    9  N2  UNL     1      22.233   1.426  50.999  1.00  0.00    -0.395 N 
HETATM   10  C8  UNL     1      21.520   0.857  49.862  1.00  0.00     0.083 C 
HETATM   11  C9  UNL     1      21.005   1.396  48.760  1.00  0.00     0.016 C 
HETATM   12  C10 UNL     1      20.673   2.461  47.835  1.00  0.00    -0.002 C 
HETATM   13  C11 UNL     1      20.898   3.793  47.862  1.00  0.00    -0.017 C 
HETATM   14  C12 UNL     1      21.609   4.271  49.040  1.00  0.00     0.130 C 
HETATM   15  C13 UNL     1      22.917   4.937  48.782  1.00  0.00     0.221 C 
HETATM   16  O1  UNL     1      23.782   5.661  48.249  1.00  0.00    -0.273 OA
HETATM   17  N3  UNL     1      24.062   4.634  49.611  1.00  0.00    -0.353 N 
HETATM   18  C14 UNL     1      25.344   4.664  50.213  1.00  0.00     0.111 C 
HETATM   19  C19 UNL     1      26.025   3.412  50.496  1.00  0.00     0.069 C 
HETATM   20  H8  UNL     1      22.927   1.687  50.224  1.00  0.00     0.159 HD
HETATM   21  H15 UNL     1      23.806   3.833  50.168  1.00  0.00     0.163 HD
ENDROOT
BRANCH  18  22
HETATM   22  C15 UNL     1      26.241   5.270  48.998  1.00  0.00    -0.002 C 
HETATM   23  C16 UNL     1      27.020   6.326  49.060  1.00  0.00    -0.001 C 
BRANCH  23  24
HETATM   24  C17 UNL     1      27.666   6.578  47.799  1.00  0.00     0.016 C 
HETATM   25  C18 UNL     1      28.567   7.560  47.949  1.00  0.00     0.080 C 
BRANCH  25  26
HETATM   26  N4  UNL     1      28.513   7.963  49.323  1.00  0.00    -0.408 N 
HETATM   27  H21 UNL     1      28.481   8.162  50.350  1.00  0.00     0.155 HD
HETATM   28  H22 UNL     1      28.436   8.622  50.154  1.00  0.00     0.155 HD
ENDBRANCH  25  26
ENDBRANCH  23  24
ENDBRANCH  18  22
TORSDOF 3
ENDMDL
MODEL 7
REMARK VINA RESULT:      -7.6      2.359      5.973
REMARK  3 active torsions:
REMARK  status: ('A' for Active; 'I' for Inactive)
REMARK    1  A    between atoms: C14_18  and  C15_19 
REMARK    2  A    between atoms: C16_20  and  C17_21 
REMARK    3  A    between atoms: C18_22  and  N4_23 
ROOT
HETATM    1  C1  UNL     1      26.627   2.004  52.521  1.00  0.00     0.050 C 
HETATM    2  C2  UNL     1      25.397   1.189  52.761  1.00  0.00    -0.036 A 
HETATM    3  C3  UNL     1      25.544   0.308  53.807  1.00  0.00     0.123 A 
HETATM    4  N1  UNL     1      24.511  -0.482  54.153  1.00  0.00    -0.272 NA
HETATM    5  C4  UNL     1      23.403  -0.277  53.362  1.00  0.00     0.124 A 
HETATM    6  C5  UNL     1      23.112   0.594  52.252  1.00  0.00    -0.030 A 
HETATM    7  C6  UNL     1      24.260   1.367  51.985  1.00  0.00    -0.025 A 
HETATM    8  C7  UNL     1      24.491   2.405  50.983  1.00  0.00     0.158 C 
HETATM    9  N2  UNL     1      24.186   3.744  51.421  1.00  0.00    -0.395 N 
HETATM   10  C8  UNL     1      23.757   5.051  51.902  1.00  0.00     0.083 C 
HETATM   11  C9  UNL     1      22.716   5.823  51.603  1.00  0.00     0.016 C 
HETATM   12  C10 UNL     1      21.492   6.194  50.922  1.00  0.00    -0.002 C 
HETATM   13  C11 UNL     1      20.749   5.570  49.981  1.00  0.00    -0.017 C 
HETATM   14  C12 UNL     1      21.261   4.275  49.556  1.00  0.00     0.130 C 
HETATM   15  C13 UNL     1      20.358   3.112  49.791  1.00  0.00     0.221 C 
HETATM   16  O1  UNL     1      19.319   2.425  49.850  1.00  0.00    -0.273 OA
HETATM   17  N3  UNL     1      20.890   1.877  50.322  1.00  0.00    -0.353 N 
HETATM   18  C14 UNL     1      21.025   0.530  50.742  1.00  0.00     0.111 C 
HETATM   19  C19 UNL     1      21.739   0.239  51.973  1.00  0.00     0.069 C 
HETATM   20  H8  UNL     1      23.242   3.460  51.841  1.00  0.00     0.159 HD
HETATM   21  H15 UNL     1      21.831   2.079  50.625  1.00  0.00     0.163 HD
ENDROOT
BRANCH  18  22
HETATM   22  C15 UNL     1      19.489   0.179  51.151  1.00  0.00    -0.002 C 
HETATM   23  C16 UNL     1      19.074  -0.230  52.329  1.00  0.00    -0.001 C 
BRANCH  23  24
HETATM   24  C17 UNL     1      17.652  -0.446  52.339  1.00  0.00     0.016 C 
HETATM   25  C18 UNL     1      17.350  -1.386  53.247  1.00  0.00     0.080 C 
BRANCH  25  26
HETATM   26  N4  UNL     1      18.588  -1.796  53.841  1.00  0.00    -0.408 N 
HETATM   27  H21 UNL     1      19.446  -2.093  54.362  1.00  0.00     0.155 HD
HETATM   28  H22 UNL     1      19.613  -2.074  53.889  1.00  0.00     0.155 HD
ENDBRANCH  25  26
ENDBRANCH  23  24
ENDBRANCH  18  22
TORSDOF 3
ENDMDL
MODEL 8
REMARK VINA RESULT:      -7.4      3.635      7.696
REMARK  3 active torsions:
REMARK  status: ('A' for Active; 'I' for Inactive)
REMARK    1  A    between atoms: C14_18  and  C15_19 
REMARK    2  A    between atoms: C16_20  and  C17_21 
REMARK    3  A    between atoms: C18_22  and  N4_23 
ROOT
HETATM    1  C1  UNL     1      18.782   4.041  49.964  1.00  0.00     0.050 C 
HETATM    2  C2  UNL     1      18.146   2.699  50.142  1.00  0.00    -0.036 A 
HETATM    3  C3  UNL     1      17.223   2.419  49.163  1.00  0.00     0.123 A 
HETATM    4  N1  UNL     1      16.580   1.237  49.182  1.00  0.00    -0.272 NA
HETATM    5  C4  UNL     1      16.966   0.445  50.239  1.00  0.00     0.124 A 
HETATM    6  C5  UNL     1      17.903   0.606  51.322  1.00  0.00    -0.030 A 
HETATM    7  C6  UNL     1      18.509   1.872  51.195  1.00  0.00    -0.025 A 
HETATM    8  C7  UNL     1      19.533   2.519  52.014  1.00  0.00     0.158 C 
HETATM    9  N2  UNL     1      20.888   2.275  51.588  1.00  0.00    -0.395 N 
HETATM   10  C8  UNL     1      22.228   1.897  51.159  1.00  0.00     0.083 C 
HETATM   11  C9  UNL     1      23.152   1.098  51.687  1.00  0.00     0.016 C 
HETATM   12  C10 UNL     1      23.715   0.185  52.661  1.00  0.00    -0.002 C 
HETATM   13  C11 UNL     1      23.234  -0.325  53.816  1.00  0.00    -0.017 C 
HETATM   14  C12 UNL     1      21.891   0.116  54.168  1.00  0.00     0.130 C 
HETATM   15  C13 UNL     1      20.864  -0.958  54.282  1.00  0.00     0.221 C 
HETATM   16  O1  UNL     1      20.333  -2.049  54.570  1.00  0.00    -0.273 OA
HETATM   17  N3  UNL     1      19.550  -0.769  53.709  1.00  0.00    -0.353 N 
HETATM   18  C14 UNL     1      18.187  -0.939  53.365  1.00  0.00     0.111 C 
HETATM   19  C19 UNL     1      17.759  -0.659  52.005  1.00  0.00     0.069 C 
HETATM   20  H8  UNL     1      20.731   1.221  51.476  1.00  0.00     0.159 HD
HETATM   21  H15 UNL     1      19.605   0.059  53.138  1.00  0.00     0.163 HD
ENDROOT
BRANCH  18  22
HETATM   22  C15 UNL     1      18.049  -2.559  53.436  1.00  0.00    -0.002 C 
HETATM   23  C16 UNL     1      16.929  -3.245  53.397  1.00  0.00    -0.001 C 
BRANCH  23  24
HETATM   24  C17 UNL     1      17.175  -4.660  53.483  1.00  0.00     0.016 C 
HETATM   25  C18 UNL     1      16.062  -5.282  53.898  1.00  0.00     0.080 C 
BRANCH  25  26
HETATM   26  N4  UNL     1      15.071  -4.265  54.091  1.00  0.00    -0.408 N 
HETATM   27  H21 UNL     1      14.305  -3.582  54.299  1.00  0.00     0.155 HD
HETATM   28  H22 UNL     1      14.564  -3.342  53.942  1.00  0.00     0.155 HD
ENDBRANCH  25  26
ENDBRANCH  23  24
ENDBRANCH  18  22
TORSDOF 3
ENDMDL
MODEL 9
REMARK VINA RESULT:      -7.4      3.827      5.505
REMARK  3 active torsions:
REMARK  status: ('A' for Active; 'I' for Inactive)
REMARK    1  A    between atoms: C14_18  and  C15_19 
REMARK    2  A    between atoms: C16_20  and  C17_21 
REMARK    3  A    between atoms: C18_22  and  N4_23 
ROOT
HETATM    1  C1  UNL     1      22.890   1.216  51.745  1.00  0.00     0.050 C 
HETATM    2  C2  UNL     1      24.190   1.862  51.387  1.00  0.00    -0.036 A 
HETATM    3  C3  UNL     1      25.275   1.124  51.796  1.00  0.00     0.123 A 
HETATM    4  N1  UNL     1      26.516   1.572  51.527  1.00  0.00    -0.272 NA
HETATM    5  C4  UNL     1      26.507   2.769  50.847  1.00  0.00     0.124 A 
HETATM    6  C5  UNL     1      25.465   3.640  50.364  1.00  0.00    -0.030 A 
HETATM    7  C6  UNL     1      24.222   3.068  50.702  1.00  0.00    -0.025 A 
HETATM    8  C7  UNL     1      22.862   3.532  50.434  1.00  0.00     0.158 C 
HETATM    9  N2  UNL     1      22.293   3.050  49.202  1.00  0.00    -0.395 N 
HETATM   10  C8  UNL     1      21.829   2.607  47.893  1.00  0.00     0.083 C 
HETATM   11  C9  UNL     1      21.639   3.245  46.741  1.00  0.00     0.016 C 
HETATM   12  C10 UNL     1      21.627   4.379  45.839  1.00  0.00    -0.002 C 
HETATM   13  C11 UNL     1      21.947   5.681  46.010  1.00  0.00    -0.017 C 
HETATM   14  C12 UNL     1      22.392   6.032  47.352  1.00  0.00     0.130 C 
HETATM   15  C13 UNL     1      23.774   6.581  47.455  1.00  0.00     0.221 C 
HETATM   16  O1  UNL     1      24.797   7.243  47.190  1.00  0.00    -0.273 OA
HETATM   17  N3  UNL     1      24.657   6.130  48.506  1.00  0.00    -0.353 N 
HETATM   18  C14 UNL     1      25.756   6.008  49.393  1.00  0.00     0.111 C 
HETATM   19  C19 UNL     1      26.244   4.685  49.740  1.00  0.00     0.069 C 
HETATM   20  H8  UNL     1      23.170   3.280  48.631  1.00  0.00     0.159 HD
HETATM   21  H15 UNL     1      24.210   5.331  48.931  1.00  0.00     0.163 HD
ENDROOT
BRANCH  18  22
HETATM   22  C15 UNL     1      26.965   6.582  48.466  1.00  0.00    -0.002 C 
HETATM   23  C16 UNL     1      28.186   6.100  48.398  1.00  0.00    -0.001 C 
BRANCH  23  24
HETATM   24  C17 UNL     1      28.996   6.851  47.476  1.00  0.00     0.016 C 
HETATM   25  C18 UNL     1      30.264   6.871  47.912  1.00  0.00     0.080 C 
BRANCH  25  26
HETATM   26  N4  UNL     1      30.290   6.127  49.137  1.00  0.00    -0.408 N 
HETATM   27  H21 UNL     1      30.261   5.513  49.984  1.00  0.00     0.155 HD
HETATM   28  H22 UNL     1      30.495   5.921  50.159  1.00  0.00     0.155 HD
ENDBRANCH  25  26
ENDBRANCH  23  24
ENDBRANCH  18  22
TORSDOF 3
ENDMDL
