MODEL 1
REMARK VINA RESULT:      -8.7      0.000      0.000
REMARK  4 active torsions:
REMARK  status: ('A' for Active; 'I' for Inactive)
REMARK    1  A    between atoms: C5_5  and  N1_6 
REMARK    2  A    between atoms: N1_6  and  C6_7 
REMARK    3  A    between atoms: C8_9  and  S1_10 
REMARK    4  A    between atoms: N2_11  and  C9_12 
ROOT
HETATM    1  C6  UNL     1      26.441   3.009  50.616  1.00  0.00     0.120 C 
HETATM    2  C7  UNL     1      26.513   1.814  51.174  1.00  0.00     0.060 C 
HETATM    3  C8  UNL     1      25.982   0.618  51.900  1.00  0.00     0.193 C 
HETATM    4  N2  UNL     1      24.966   0.998  52.861  1.00  0.00    -0.273 N 
HETATM    5  N3  UNL     1      24.605   2.340  53.023  1.00  0.00    -0.290 N 
HETATM    6  C15 UNL     1      23.654   3.347  52.709  1.00  0.00     0.224 C 
HETATM    7  N4  UNL     1      22.993   3.554  51.621  1.00  0.00    -0.234 NA
HETATM    8  C16 UNL     1      23.080   2.778  50.451  1.00  0.00     0.256 C 
HETATM    9  N5  UNL     1      24.258   2.906  49.964  1.00  0.00    -0.166 NA
HETATM   10  N6  UNL     1      25.188   3.723  50.614  1.00  0.00    -0.262 N 
HETATM   11  H14 UNL     1      25.428   2.574  53.620  1.00  0.00     0.188 HD
HETATM   12  H17 UNL     1      24.792   4.641  50.947  1.00  0.00     0.191 HD
ENDROOT
BRANCH   1  13
HETATM   13  N1  UNL     1      27.124   4.046  49.925  1.00  0.00    -0.351 N 
HETATM   14  H6  UNL     1      28.183   3.975  49.890  1.00  0.00     0.166 HD
BRANCH  13  15
HETATM   15  C5  UNL     1      26.409   5.095  49.331  1.00  0.00     0.101 C 
HETATM   16  C4  UNL     1      26.753   6.095  48.553  1.00  0.00    -0.018 A 
HETATM   17  C3  UNL     1      28.138   6.235  48.165  1.00  0.00     0.037 A 
HETATM   18  C17 UNL     1      25.676   6.982  48.149  1.00  0.00     0.030 A 
HETATM   19  C2  UNL     1      28.389   7.283  47.369  1.00  0.00     0.005 A 
HETATM   20  C1  UNL     1      29.776   7.544  46.895  1.00  0.00     0.068 C 
HETATM   21  N7  UNL     1      27.352   8.182  46.949  1.00  0.00    -0.369 N 
HETATM   22  C18 UNL     1      25.997   8.010  47.352  1.00  0.00     0.089 A 
HETATM   23  H20 UNL     1      27.522   9.001  46.333  1.00  0.00     0.165 HD
ENDBRANCH  13  15
ENDBRANCH   1  13
BRANCH   3  24
HETATM   24  S1  UNL     1      27.353  -0.257  52.739  1.00  0.00    -0.151 SA
HETATM   25  H9  UNL     1      27.005  -0.519  54.095  1.00  0.00     0.104 HD
ENDBRANCH   3  24
BRANCH   4  26
HETATM   26  C9  UNL     1      24.248   0.122  53.714  1.00  0.00     0.054 A 
HETATM   27  C10 UNL     1      24.758  -0.583  54.781  1.00  0.00     0.031 A 
HETATM   28  C11 UNL     1      23.982  -1.411  55.553  1.00  0.00     0.004 A 
HETATM   29  C12 UNL     1      22.656  -1.573  55.295  1.00  0.00     0.024 A 
HETATM   30  C13 UNL     1      22.065  -0.914  54.257  1.00  0.00     0.036 A 
HETATM   31 CL1  UNL     1      20.365  -1.062  53.850  1.00  0.00    -0.084 Cl
HETATM   32  C14 UNL     1      22.881  -0.091  53.504  1.00  0.00     0.055 A 
ENDBRANCH   4  26
TORSDOF 4
ENDMDL
MODEL 2
REMARK VINA RESULT:      -8.6      1.723      2.550
REMARK  4 active torsions:
REMARK  status: ('A' for Active; 'I' for Inactive)
REMARK    1  A    between atoms: C5_5  and  N1_6 
REMARK    2  A    between atoms: N1_6  and  C6_7 
REMARK    3  A    between atoms: C8_9  and  S1_10 
REMARK    4  A    between atoms: N2_11  and  C9_12 
ROOT
HETATM    1  C6  UNL     1      25.919   3.255  51.084  1.00  0.00     0.120 C 
HETATM    2  C7  UNL     1      24.708   3.118  51.594  1.00  0.00     0.060 C 
HETATM    3  C8  UNL     1      23.661   2.497  52.464  1.00  0.00     0.193 C 
HETATM    4  N2  UNL     1      23.873   1.070  52.600  1.00  0.00    -0.273 N 
HETATM    5  N3  UNL     1      24.942   0.443  51.951  1.00  0.00    -0.290 N 
HETATM    6  C15 UNL     1      26.255  -0.083  52.088  1.00  0.00     0.224 C 
HETATM    7  N4  UNL     1      27.248   0.338  52.795  1.00  0.00    -0.234 NA
HETATM    8  C16 UNL     1      27.237   1.473  53.627  1.00  0.00     0.256 C 
HETATM    9  N5  UNL     1      27.092   2.514  52.895  1.00  0.00    -0.166 NA
HETATM   10  N6  UNL     1      26.977   2.371  51.508  1.00  0.00    -0.262 N 
HETATM   11  H14 UNL     1      24.464   0.406  51.025  1.00  0.00     0.188 HD
HETATM   12  H17 UNL     1      27.656   1.682  51.092  1.00  0.00     0.191 HD
ENDROOT
BRANCH   1  13
HETATM   13  N1  UNL     1      26.765   3.972  50.196  1.00  0.00    -0.351 N 
HETATM   14  H6  UNL     1      27.768   3.632  50.120  1.00  0.00     0.166 HD
BRANCH  13  15
HETATM   15  C5  UNL     1      26.273   5.066  49.472  1.00  0.00     0.101 C 
HETATM   16  C4  UNL     1      26.833   5.951  48.681  1.00  0.00    -0.018 A 
HETATM   17  C3  UNL     1      28.255   5.868  48.436  1.00  0.00     0.037 A 
HETATM   18  C17 UNL     1      25.942   6.948  48.115  1.00  0.00     0.030 A 
HETATM   19  C2  UNL     1      28.733   6.813  47.614  1.00  0.00     0.005 A 
HETATM   20  C1  UNL     1      30.183   6.844  47.278  1.00  0.00     0.068 C 
HETATM   21  N7  UNL     1      27.885   7.816  47.036  1.00  0.00    -0.369 N 
HETATM   22  C18 UNL     1      26.486   7.863  47.301  1.00  0.00     0.089 A 
HETATM   23  H20 UNL     1      28.232   8.557  46.397  1.00  0.00     0.165 HD
ENDBRANCH  13  15
ENDBRANCH   1  13
BRANCH   3  24
HETATM   24  S1  UNL     1      22.000   2.829  51.771  1.00  0.00    -0.151 SA
HETATM   25  H9  UNL     1      21.519   1.675  51.087  1.00  0.00     0.104 HD
ENDBRANCH   3  24
BRANCH   4  26
HETATM   26  C9  UNL     1      23.077   0.172  53.356  1.00  0.00     0.054 A 
HETATM   27  C10 UNL     1      23.505  -0.632  54.389  1.00  0.00     0.031 A 
HETATM   28  C11 UNL     1      22.657  -1.471  55.067  1.00  0.00     0.004 A 
HETATM   29  C12 UNL     1      21.338  -1.547  54.744  1.00  0.00     0.024 A 
HETATM   30  C13 UNL     1      20.825  -0.786  53.734  1.00  0.00     0.036 A 
HETATM   31 CL1  UNL     1      19.139  -0.819  53.250  1.00  0.00    -0.084 Cl
HETATM   32  C14 UNL     1      21.711   0.045  53.077  1.00  0.00     0.055 A 
ENDBRANCH   4  26
TORSDOF 4
ENDMDL
MODEL 3
REMARK VINA RESULT:      -8.5      4.632      6.366
REMARK  4 active torsions:
REMARK  status: ('A' for Active; 'I' for Inactive)
REMARK    1  A    between atoms: C5_5  and  N1_6 
REMARK    2  A    between atoms: N1_6  and  C6_7 
REMARK    3  A    between atoms: C8_9  and  S1_10 
REMARK    4  A    between atoms: N2_11  and  C9_12 
ROOT
HETATM    1  C6  UNL     1      23.876   1.919  52.663  1.00  0.00     0.120 C 
HETATM    2  C7  UNL     1      23.192   0.863  53.061  1.00  0.00     0.060 C 
HETATM    3  C8  UNL     1      22.050  -0.104  53.044  1.00  0.00     0.193 C 
HETATM    4  N2  UNL     1      20.809   0.558  52.696  1.00  0.00    -0.273 N 
HETATM    5  N3  UNL     1      20.783   1.932  52.436  1.00  0.00    -0.290 N 
HETATM    6  C15 UNL     1      20.758   2.939  51.434  1.00  0.00     0.224 C 
HETATM    7  N4  UNL     1      21.342   2.981  50.285  1.00  0.00    -0.234 NA
HETATM    8  C16 UNL     1      22.171   1.977  49.752  1.00  0.00     0.256 C 
HETATM    9  N5  UNL     1      23.224   1.891  50.477  1.00  0.00    -0.166 NA
HETATM   10  N6  UNL     1      23.370   2.733  51.584  1.00  0.00    -0.262 N 
HETATM   11  H14 UNL     1      20.785   2.205  53.443  1.00  0.00     0.188 HD
HETATM   12  H17 UNL     1      23.091   3.732  51.401  1.00  0.00     0.191 HD
ENDROOT
BRANCH   1  13
HETATM   13  N1  UNL     1      25.034   2.724  52.831  1.00  0.00    -0.351 N 
HETATM   14  H6  UNL     1      25.036   3.663  52.334  1.00  0.00     0.166 HD
BRANCH  13  15
HETATM   15  C5  UNL     1      26.104   2.275  53.618  1.00  0.00     0.101 C 
HETATM   16  C4  UNL     1      26.771   1.147  53.675  1.00  0.00    -0.018 A 
HETATM   17  C3  UNL     1      26.408   0.073  52.778  1.00  0.00     0.037 A 
HETATM   18  C17 UNL     1      27.838   1.091  54.659  1.00  0.00     0.030 A 
HETATM   19  C2  UNL     1      27.148  -1.036  52.910  1.00  0.00     0.005 A 
HETATM   20  C1  UNL     1      26.879  -2.219  52.047  1.00  0.00     0.068 C 
HETATM   21  N7  UNL     1      28.209  -1.130  53.871  1.00  0.00    -0.369 N 
HETATM   22  C18 UNL     1      28.538  -0.049  54.738  1.00  0.00     0.089 A 
HETATM   23  H20 UNL     1      28.796  -1.979  53.992  1.00  0.00     0.165 HD
ENDBRANCH  13  15
ENDBRANCH   1  13
BRANCH   3  24
HETATM   24  S1  UNL     1      21.899  -0.915  54.678  1.00  0.00    -0.151 SA
HETATM   25  H9  UNL     1      22.765  -2.045  54.742  1.00  0.00     0.104 HD
ENDBRANCH   3  24
BRANCH   4  26
HETATM   26  C9  UNL     1      19.535  -0.055  52.579  1.00  0.00     0.054 A 
HETATM   27  C10 UNL     1      18.920  -0.851  53.518  1.00  0.00     0.031 A 
HETATM   28  C11 UNL     1      17.679  -1.402  53.316  1.00  0.00     0.004 A 
HETATM   29  C12 UNL     1      16.993  -1.181  52.162  1.00  0.00     0.024 A 
HETATM   30  C13 UNL     1      17.525  -0.404  51.175  1.00  0.00     0.036 A 
HETATM   31 CL1  UNL     1      16.713  -0.066  49.657  1.00  0.00    -0.084 Cl
HETATM   32  C14 UNL     1      18.776   0.131  51.418  1.00  0.00     0.055 A 
ENDBRANCH   4  26
TORSDOF 4
ENDMDL
MODEL 4
REMARK VINA RESULT:      -8.5      2.027      2.606
REMARK  4 active torsions:
REMARK  status: ('A' for Active; 'I' for Inactive)
REMARK    1  A    between atoms: C5_5  and  N1_6 
REMARK    2  A    between atoms: N1_6  and  C6_7 
REMARK    3  A    between atoms: C8_9  and  S1_10 
REMARK    4  A    between atoms: N2_11  and  C9_12 
ROOT
HETATM    1  C6  UNL     1      23.680   3.671  49.561  1.00  0.00     0.120 C 
HETATM    2  C7  UNL     1      24.084   2.903  50.556  1.00  0.00     0.060 C 
HETATM    3  C8  UNL     1      23.989   1.759  51.516  1.00  0.00     0.193 C 
HETATM    4  N2  UNL     1      22.612   1.494  51.879  1.00  0.00    -0.273 N 
HETATM    5  N3  UNL     1      21.574   2.271  51.355  1.00  0.00    -0.290 N 
HETATM    6  C15 UNL     1      20.542   2.352  50.382  1.00  0.00     0.224 C 
HETATM    7  N4  UNL     1      20.516   1.931  49.163  1.00  0.00    -0.234 NA
HETATM    8  C16 UNL     1      21.566   1.265  48.505  1.00  0.00     0.256 C 
HETATM    9  N5  UNL     1      22.552   2.074  48.388  1.00  0.00    -0.166 NA
HETATM   10  N6  UNL     1      22.440   3.375  48.887  1.00  0.00    -0.262 N 
HETATM   11  H14 UNL     1      21.722   3.062  52.017  1.00  0.00     0.188 HD
HETATM   12  H17 UNL     1      21.517   3.836  48.674  1.00  0.00     0.191 HD
ENDROOT
BRANCH   1  13
HETATM   13  N1  UNL     1      23.946   4.802  48.742  1.00  0.00    -0.351 N 
HETATM   14  H6  UNL     1      23.753   4.691  47.704  1.00  0.00     0.166 HD
BRANCH  13  15
HETATM   15  C5  UNL     1      24.439   5.987  49.305  1.00  0.00     0.101 C 
HETATM   16  C4  UNL     1      25.614   6.572  49.294  1.00  0.00    -0.018 A 
HETATM   17  C3  UNL     1      26.700   5.944  48.576  1.00  0.00     0.037 A 
HETATM   18  C17 UNL     1      25.705   7.825  50.021  1.00  0.00     0.030 A 
HETATM   19  C2  UNL     1      27.858   6.617  48.621  1.00  0.00     0.005 A 
HETATM   20  C1  UNL     1      29.059   6.081  47.924  1.00  0.00     0.068 C 
HETATM   21  N7  UNL     1      27.987   7.858  49.330  1.00  0.00    -0.369 N 
HETATM   22  C18 UNL     1      26.892   8.446  50.025  1.00  0.00     0.089 A 
HETATM   23  H20 UNL     1      28.874   8.398  49.379  1.00  0.00     0.165 HD
ENDBRANCH  13  15
ENDBRANCH   1  13
BRANCH   3  24
HETATM   24  S1  UNL     1      24.982   2.120  53.011  1.00  0.00    -0.151 SA
HETATM   25  H9  UNL     1      24.175   1.974  54.176  1.00  0.00     0.104 HD
ENDBRANCH   3  24
BRANCH   4  26
HETATM   26  C9  UNL     1      22.157   0.479  52.759  1.00  0.00     0.054 A 
HETATM   27  C10 UNL     1      22.919  -0.219  53.670  1.00  0.00     0.031 A 
HETATM   28  C11 UNL     1      22.388  -1.187  54.484  1.00  0.00     0.004 A 
HETATM   29  C12 UNL     1      21.066  -1.504  54.427  1.00  0.00     0.024 A 
HETATM   30  C13 UNL     1      20.235  -0.865  53.556  1.00  0.00     0.036 A 
HETATM   31 CL1  UNL     1      18.520  -1.208  53.414  1.00  0.00    -0.084 Cl
HETATM   32  C14 UNL     1      20.809   0.103  52.753  1.00  0.00     0.055 A 
ENDBRANCH   4  26
TORSDOF 4
ENDMDL
MODEL 5
REMARK VINA RESULT:      -8.4      2.436      3.279
REMARK  4 active torsions:
REMARK  status: ('A' for Active; 'I' for Inactive)
REMARK    1  A    between atoms: C5_5  and  N1_6 
REMARK    2  A    between atoms: N1_6  and  C6_7 
REMARK    3  A    between atoms: C8_9  and  S1_10 
REMARK    4  A    between atoms: N2_11  and  C9_12 
ROOT
HETATM    1  C6  UNL     1      24.919   3.629  49.785  1.00  0.00     0.120 C 
HETATM    2  C7  UNL     1      23.764   3.116  49.404  1.00  0.00     0.060 C 
HETATM    3  C8  UNL     1      22.385   2.569  49.606  1.00  0.00     0.193 C 
HETATM    4  N2  UNL     1      22.289   1.839  50.854  1.00  0.00    -0.273 N 
HETATM    5  N3  UNL     1      23.403   1.709  51.690  1.00  0.00    -0.290 N 
HETATM    6  C15 UNL     1      24.059   2.185  52.857  1.00  0.00     0.224 C 
HETATM    7  N4  UNL     1      24.151   3.382  53.328  1.00  0.00    -0.234 NA
HETATM    8  C16 UNL     1      23.587   4.533  52.749  1.00  0.00     0.256 C 
HETATM    9  N5  UNL     1      24.159   4.746  51.623  1.00  0.00    -0.166 NA
HETATM   10  N6  UNL     1      25.164   3.878  51.185  1.00  0.00    -0.262 N 
HETATM   11  H14 UNL     1      23.832   0.939  51.134  1.00  0.00     0.188 HD
HETATM   12  H17 UNL     1      25.850   3.604  51.936  1.00  0.00     0.191 HD
ENDROOT
BRANCH   1  13
HETATM   13  N1  UNL     1      26.196   4.115  49.394  1.00  0.00    -0.351 N 
HETATM   14  H6  UNL     1      27.016   3.455  49.535  1.00  0.00     0.166 HD
BRANCH  13  15
HETATM   15  C5  UNL     1      26.334   5.401  48.856  1.00  0.00     0.101 C 
HETATM   16  C4  UNL     1      27.351   6.072  48.369  1.00  0.00    -0.018 A 
HETATM   17  C3  UNL     1      28.651   5.441  48.333  1.00  0.00     0.037 A 
HETATM   18  C17 UNL     1      27.059   7.415  47.901  1.00  0.00     0.030 A 
HETATM   19  C2  UNL     1      29.624   6.204  47.817  1.00  0.00     0.005 A 
HETATM   20  C1  UNL     1      31.013   5.677  47.722  1.00  0.00     0.068 C 
HETATM   21  N7  UNL     1      29.375   7.536  47.345  1.00  0.00    -0.369 N 
HETATM   22  C18 UNL     1      28.078   8.123  47.396  1.00  0.00     0.089 A 
HETATM   23  H20 UNL     1      30.113   8.146  46.941  1.00  0.00     0.165 HD
ENDBRANCH  13  15
ENDBRANCH   1  13
BRANCH   3  24
HETATM   24  S1  UNL     1      21.935   1.486  48.201  1.00  0.00    -0.151 SA
HETATM   25  H9  UNL     1      20.732   1.950  47.595  1.00  0.00     0.104 HD
ENDBRANCH   3  24
BRANCH   4  26
HETATM   26  C9  UNL     1      21.132   1.199  51.364  1.00  0.00     0.054 A 
HETATM   27  C10 UNL     1      19.831   1.418  50.968  1.00  0.00     0.031 A 
HETATM   28  C11 UNL     1      18.771   0.745  51.521  1.00  0.00     0.004 A 
HETATM   29  C12 UNL     1      18.961  -0.181  52.499  1.00  0.00     0.024 A 
HETATM   30  C13 UNL     1      20.215  -0.464  52.955  1.00  0.00     0.036 A 
HETATM   31 CL1  UNL     1      20.553  -1.641  54.211  1.00  0.00    -0.084 Cl
HETATM   32  C14 UNL     1      21.255   0.235  52.372  1.00  0.00     0.055 A 
ENDBRANCH   4  26
TORSDOF 4
ENDMDL
MODEL 6
REMARK VINA RESULT:      -8.4      4.558      9.699
REMARK  4 active torsions:
REMARK  status: ('A' for Active; 'I' for Inactive)
REMARK    1  A    between atoms: C5_5  and  N1_6 
REMARK    2  A    between atoms: N1_6  and  C6_7 
REMARK    3  A    between atoms: C8_9  and  S1_10 
REMARK    4  A    between atoms: N2_11  and  C9_12 
ROOT
HETATM    1  C6  UNL     1      20.807  -0.368  53.489  1.00  0.00     0.120 C 
HETATM    2  C7  UNL     1      22.098  -0.126  53.613  1.00  0.00     0.060 C 
HETATM    3  C8  UNL     1      23.375   0.610  53.355  1.00  0.00     0.193 C 
HETATM    4  N2  UNL     1      23.416   1.128  52.002  1.00  0.00    -0.273 N 
HETATM    5  N3  UNL     1      22.353   0.904  51.121  1.00  0.00    -0.290 N 
HETATM    6  C15 UNL     1      21.187   1.454  50.522  1.00  0.00     0.224 C 
HETATM    7  N4  UNL     1      20.294   2.243  51.015  1.00  0.00    -0.234 NA
HETATM    8  C16 UNL     1      20.289   2.755  52.325  1.00  0.00     0.256 C 
HETATM    9  N5  UNL     1      20.130   1.782  53.143  1.00  0.00    -0.166 NA
HETATM   10  N6  UNL     1      19.998   0.481  52.648  1.00  0.00    -0.262 N 
HETATM   11  H14 UNL     1      22.644  -0.069  50.887  1.00  0.00     0.188 HD
HETATM   12  H17 UNL     1      19.366   0.405  51.809  1.00  0.00     0.191 HD
ENDROOT
BRANCH   1  13
HETATM   13  N1  UNL     1      19.706  -1.189  53.854  1.00  0.00    -0.351 N 
HETATM   14  H6  UNL     1      19.886  -1.916  54.607  1.00  0.00     0.166 HD
BRANCH  13  15
HETATM   15  C5  UNL     1      18.460  -1.025  53.234  1.00  0.00     0.101 C 
HETATM   16  C4  UNL     1      17.423  -1.813  53.068  1.00  0.00    -0.018 A 
HETATM   17  C3  UNL     1      17.474  -3.156  53.600  1.00  0.00     0.037 A 
HETATM   18  C17 UNL     1      16.300  -1.239  52.349  1.00  0.00     0.030 A 
HETATM   19  C2  UNL     1      16.369  -3.881  53.382  1.00  0.00     0.005 A 
HETATM   20  C1  UNL     1      16.288  -5.283  53.877  1.00  0.00     0.068 C 
HETATM   21  N7  UNL     1      15.239  -3.350  52.675  1.00  0.00    -0.369 N 
HETATM   22  C18 UNL     1      15.227  -2.020  52.166  1.00  0.00     0.089 A 
HETATM   23  H20 UNL     1      14.372  -3.893  52.494  1.00  0.00     0.165 HD
ENDBRANCH  13  15
ENDBRANCH   1  13
BRANCH   3  24
HETATM   24  S1  UNL     1      24.802  -0.497  53.655  1.00  0.00    -0.151 SA
HETATM   25  H9  UNL     1      24.601  -1.739  52.986  1.00  0.00     0.104 HD
ENDBRANCH   3  24
BRANCH   4  26
HETATM   26  C9  UNL     1      24.470   1.879  51.422  1.00  0.00     0.054 A 
HETATM   27  C10 UNL     1      25.820   1.656  51.582  1.00  0.00     0.031 A 
HETATM   28  C11 UNL     1      26.771   2.439  50.977  1.00  0.00     0.004 A 
HETATM   29  C12 UNL     1      26.417   3.484  50.182  1.00  0.00     0.024 A 
HETATM   30  C13 UNL     1      25.103   3.780  49.966  1.00  0.00     0.036 A 
HETATM   31 CL1  UNL     1      24.555   5.107  48.957  1.00  0.00    -0.084 Cl
HETATM   32  C14 UNL     1      24.177   2.968  50.593  1.00  0.00     0.055 A 
ENDBRANCH   4  26
TORSDOF 4
ENDMDL
MODEL 7
REMARK VINA RESULT:      -8.4      4.156      6.794
REMARK  4 active torsions:
REMARK  status: ('A' for Active; 'I' for Inactive)
REMARK    1  A    between atoms: C5_5  and  N1_6 
REMARK    2  A    between atoms: N1_6  and  C6_7 
REMARK    3  A    between atoms: C8_9  and  S1_10 
REMARK    4  A    between atoms: N2_11  and  C9_12 
ROOT
HETATM    1  C6  UNL     1      25.000   3.003  50.245  1.00  0.00     0.120 C 
HETATM    2  C7  UNL     1      23.850   2.700  49.672  1.00  0.00     0.060 C 
HETATM    3  C8  UNL     1      22.398   2.880  49.356  1.00  0.00     0.193 C 
HETATM    4  N2  UNL     1      21.681   3.430  50.490  1.00  0.00    -0.273 N 
HETATM    5  N3  UNL     1      22.348   3.712  51.686  1.00  0.00    -0.290 N 
HETATM    6  C15 UNL     1      22.938   4.721  52.494  1.00  0.00     0.224 C 
HETATM    7  N4  UNL     1      23.614   5.765  52.155  1.00  0.00    -0.234 NA
HETATM    8  C16 UNL     1      23.927   6.145  50.837  1.00  0.00     0.256 C 
HETATM    9  N5  UNL     1      24.706   5.263  50.332  1.00  0.00    -0.166 NA
HETATM   10  N6  UNL     1      25.089   4.160  51.101  1.00  0.00    -0.262 N 
HETATM   11  H14 UNL     1      22.348   2.722  52.014  1.00  0.00     0.188 HD
HETATM   12  H17 UNL     1      25.348   4.400  52.094  1.00  0.00     0.191 HD
ENDROOT
BRANCH   1  13
HETATM   13  N1  UNL     1      26.369   2.667  50.423  1.00  0.00    -0.351 N 
HETATM   14  H6  UNL     1      26.951   2.567  49.541  1.00  0.00     0.166 HD
BRANCH  13  15
HETATM   15  C5  UNL     1      26.894   2.481  51.710  1.00  0.00     0.101 C 
HETATM   16  C4  UNL     1      27.126   1.420  52.445  1.00  0.00    -0.018 A 
HETATM   17  C3  UNL     1      26.811   0.115  51.910  1.00  0.00     0.037 A 
HETATM   18  C17 UNL     1      27.694   1.671  53.758  1.00  0.00     0.030 A 
HETATM   19  C2  UNL     1      27.086  -0.905  52.734  1.00  0.00     0.005 A 
HETATM   20  C1  UNL     1      26.809  -2.304  52.307  1.00  0.00     0.068 C 
HETATM   21  N7  UNL     1      27.646  -0.697  54.038  1.00  0.00    -0.369 N 
HETATM   22  C18 UNL     1      27.944   0.605  54.531  1.00  0.00     0.089 A 
HETATM   23  H20 UNL     1      27.867  -1.471  54.695  1.00  0.00     0.165 HD
ENDBRANCH  13  15
ENDBRANCH   1  13
BRANCH   3  24
HETATM   24  S1  UNL     1      21.666   1.278  48.860  1.00  0.00    -0.151 SA
HETATM   25  H9  UNL     1      22.500   0.642  47.895  1.00  0.00     0.104 HD
ENDBRANCH   3  24
BRANCH   4  26
HETATM   26  C9  UNL     1      20.297   3.736  50.538  1.00  0.00     0.054 A 
HETATM   27  C10 UNL     1      19.409   3.362  51.522  1.00  0.00     0.031 A 
HETATM   28  C11 UNL     1      18.081   3.708  51.484  1.00  0.00     0.004 A 
HETATM   29  C12 UNL     1      17.577   4.446  50.458  1.00  0.00     0.024 A 
HETATM   30  C13 UNL     1      18.384   4.861  49.439  1.00  0.00     0.036 A 
HETATM   31 CL1  UNL     1      17.821   5.814  48.078  1.00  0.00    -0.084 Cl
HETATM   32  C14 UNL     1      19.713   4.492  49.515  1.00  0.00     0.055 A 
ENDBRANCH   4  26
TORSDOF 4
ENDMDL
MODEL 8
REMARK VINA RESULT:      -8.4      4.335      7.378
REMARK  4 active torsions:
REMARK  status: ('A' for Active; 'I' for Inactive)
REMARK    1  A    between atoms: C5_5  and  N1_6 
REMARK    2  A    between atoms: N1_6  and  C6_7 
REMARK    3  A    between atoms: C8_9  and  S1_10 
REMARK    4  A    between atoms: N2_11  and  C9_12 
ROOT
HETATM    1  C6  UNL     1      24.064   0.935  52.646  1.00  0.00     0.120 C 
HETATM    2  C7  UNL     1      24.374   1.911  51.812  1.00  0.00     0.060 C 
HETATM    3  C8  UNL     1      24.096   2.956  50.778  1.00  0.00     0.193 C 
HETATM    4  N2  UNL     1      23.034   2.539  49.885  1.00  0.00    -0.273 N 
HETATM    5  N3  UNL     1      22.417   1.294  50.044  1.00  0.00    -0.290 N 
HETATM    6  C15 UNL     1      21.283   0.599  50.544  1.00  0.00     0.224 C 
HETATM    7  N4  UNL     1      20.584   0.808  51.608  1.00  0.00    -0.234 NA
HETATM    8  C16 UNL     1      20.812   1.829  52.549  1.00  0.00     0.256 C 
HETATM    9  N5  UNL     1      21.938   1.612  53.121  1.00  0.00    -0.166 NA
HETATM   10  N6  UNL     1      22.694   0.494  52.753  1.00  0.00    -0.262 N 
HETATM   11  H14 UNL     1      23.182   0.764  49.575  1.00  0.00     0.188 HD
HETATM   12  H17 UNL     1      22.128  -0.386  52.639  1.00  0.00     0.191 HD
ENDROOT
BRANCH   1  13
HETATM   13  N1  UNL     1      24.523   0.003  53.615  1.00  0.00    -0.351 N 
HETATM   14  H6  UNL     1      23.972  -0.049  54.521  1.00  0.00     0.166 HD
BRANCH  13  15
HETATM   15  C5  UNL     1      25.647  -0.794  53.359  1.00  0.00     0.101 C 
HETATM   16  C4  UNL     1      26.940  -0.586  53.450  1.00  0.00    -0.018 A 
HETATM   17  C3  UNL     1      27.411   0.703  53.901  1.00  0.00     0.037 A 
HETATM   18  C17 UNL     1      27.788  -1.705  53.079  1.00  0.00     0.030 A 
HETATM   19  C2  UNL     1      28.745   0.817  53.962  1.00  0.00     0.005 A 
HETATM   20  C1  UNL     1      29.364   2.094  54.411  1.00  0.00     0.068 C 
HETATM   21  N7  UNL     1      29.616  -0.266  53.604  1.00  0.00    -0.369 N 
HETATM   22  C18 UNL     1      29.113  -1.523  53.164  1.00  0.00     0.089 A 
HETATM   23  H20 UNL     1      30.652  -0.201  53.643  1.00  0.00     0.165 HD
ENDBRANCH  13  15
ENDBRANCH   1  13
BRANCH   3  24
HETATM   24  S1  UNL     1      25.620   3.312  49.829  1.00  0.00    -0.151 SA
HETATM   25  H9  UNL     1      25.284   3.864  48.559  1.00  0.00     0.104 HD
ENDBRANCH   3  24
BRANCH   4  26
HETATM   26  C9  UNL     1      22.510   3.286  48.799  1.00  0.00     0.054 A 
HETATM   27  C10 UNL     1      22.337   2.841  47.507  1.00  0.00     0.031 A 
HETATM   28  C11 UNL     1      21.818   3.640  46.518  1.00  0.00     0.004 A 
HETATM   29  C12 UNL     1      21.447   4.923  46.775  1.00  0.00     0.024 A 
HETATM   30  C13 UNL     1      21.582   5.449  48.027  1.00  0.00     0.036 A 
HETATM   31 CL1  UNL     1      21.131   7.091  48.448  1.00  0.00    -0.084 Cl
HETATM   32  C14 UNL     1      22.109   4.613  48.993  1.00  0.00     0.055 A 
ENDBRANCH   4  26
TORSDOF 4
ENDMDL
MODEL 9
REMARK VINA RESULT:      -8.4      4.550      6.751
REMARK  4 active torsions:
REMARK  status: ('A' for Active; 'I' for Inactive)
REMARK    1  A    between atoms: C5_5  and  N1_6 
REMARK    2  A    between atoms: N1_6  and  C6_7 
REMARK    3  A    between atoms: C8_9  and  S1_10 
REMARK    4  A    between atoms: N2_11  and  C9_12 
ROOT
HETATM    1  C6  UNL     1      28.742   6.034  48.295  1.00  0.00     0.120 C 
HETATM    2  C7  UNL     1      27.746   5.224  48.606  1.00  0.00     0.060 C 
HETATM    3  C8  UNL     1      26.340   4.881  48.985  1.00  0.00     0.193 C 
HETATM    4  N2  UNL     1      25.760   5.906  49.829  1.00  0.00    -0.273 N 
HETATM    5  N3  UNL     1      26.505   7.031  50.197  1.00  0.00    -0.290 N 
HETATM    6  C15 UNL     1      26.761   8.406  49.943  1.00  0.00     0.224 C 
HETATM    7  N4  UNL     1      26.792   9.053  48.828  1.00  0.00    -0.234 NA
HETATM    8  C16 UNL     1      26.562   8.499  47.555  1.00  0.00     0.256 C 
HETATM    9  N5  UNL     1      27.500   7.666  47.297  1.00  0.00    -0.166 NA
HETATM   10  N6  UNL     1      28.514   7.457  48.237  1.00  0.00    -0.262 N 
HETATM   11  H14 UNL     1      27.030   6.538  50.951  1.00  0.00     0.188 HD
HETATM   12  H17 UNL     1      28.876   8.342  48.680  1.00  0.00     0.191 HD
ENDROOT
BRANCH   1  13
HETATM   13  N1  UNL     1      30.112   6.159  47.943  1.00  0.00    -0.351 N 
HETATM   14  H6  UNL     1      30.495   7.147  47.870  1.00  0.00     0.166 HD
BRANCH  13  15
HETATM   15  C5  UNL     1      30.893   5.019  47.708  1.00  0.00     0.101 C 
HETATM   16  C4  UNL     1      32.179   4.771  47.798  1.00  0.00    -0.018 A 
HETATM   17  C3  UNL     1      33.067   5.829  48.221  1.00  0.00     0.037 A 
HETATM   18  C17 UNL     1      32.589   3.420  47.455  1.00  0.00     0.030 A 
HETATM   19  C2  UNL     1      34.358   5.479  48.284  1.00  0.00     0.005 A 
HETATM   20  C1  UNL     1      35.382   6.475  48.705  1.00  0.00     0.068 C 
HETATM   21  N7  UNL     1      34.803   4.155  47.952  1.00  0.00    -0.369 N 
HETATM   22  C18 UNL     1      33.896   3.138  47.539  1.00  0.00     0.089 A 
HETATM   23  H20 UNL     1      35.798   3.860  47.993  1.00  0.00     0.165 HD
ENDBRANCH  13  15
ENDBRANCH   1  13
BRANCH   3  24
HETATM   24  S1  UNL     1      26.304   3.262  49.838  1.00  0.00    -0.151 SA
HETATM   25  H9  UNL     1      25.217   2.480  49.351  1.00  0.00     0.104 HD
ENDBRANCH   3  24
BRANCH   4  26
HETATM   26  C9  UNL     1      24.446   5.909  50.363  1.00  0.00     0.054 A 
HETATM   27  C10 UNL     1      23.978   5.122  51.392  1.00  0.00     0.031 A 
HETATM   28  C11 UNL     1      22.685   5.197  51.844  1.00  0.00     0.004 A 
HETATM   29  C12 UNL     1      21.796   6.064  51.289  1.00  0.00     0.024 A 
HETATM   30  C13 UNL     1      22.171   6.883  50.265  1.00  0.00     0.036 A 
HETATM   31 CL1  UNL     1      21.094   8.030  49.489  1.00  0.00    -0.084 Cl
HETATM   32  C14 UNL     1      23.481   6.776  49.838  1.00  0.00     0.055 A 
ENDBRANCH   4  26
TORSDOF 4
ENDMDL
