MODEL 1
REMARK VINA RESULT:      -8.7      0.000      0.000
REMARK  0 active torsions:
REMARK  status: ('A' for Active; 'I' for Inactive)
ROOT
HETATM    1  C1  UNL     1      26.042   6.735  49.696  1.00  0.00     0.049 C 
HETATM    2  C2  UNL     1      25.359   5.493  50.221  1.00  0.00    -0.044 C 
HETATM    3  C3  UNL     1      25.960   4.429  49.714  1.00  0.00     0.050 C 
HETATM    4 CL1  UNL     1      27.248   5.105  48.695  1.00  0.00    -0.085 Cl
HETATM    5  C4  UNL     1      25.975   2.942  49.705  1.00  0.00     0.198 C 
HETATM    6  C5  UNL     1      24.596   2.446  49.889  1.00  0.00     0.028 C 
HETATM    7  C6  UNL     1      23.299   2.750  49.690  1.00  0.00     0.086 C 
HETATM    8  N1  UNL     1      22.087   2.009  50.005  1.00  0.00    -0.374 N 
HETATM    9  C7  UNL     1      22.484   1.207  51.134  1.00  0.00     0.104 C 
HETATM   10  C8  UNL     1      22.991   1.832  52.184  1.00  0.00     0.015 C 
HETATM   11  C9  UNL     1      23.101   3.222  52.128  1.00  0.00    -0.069 C 
HETATM   12  C10 UNL     1      23.194   4.368  52.061  1.00  0.00    -0.091 C 
HETATM   13  C11 UNL     1      23.311   5.735  51.957  1.00  0.00     0.108 C 
HETATM   14  C12 UNL     1      24.268   5.693  51.146  1.00  0.00    -0.000 C 
HETATM   15  C13 UNL     1      23.444   1.079  53.378  1.00  0.00     0.083 C 
HETATM   16  C14 UNL     1      24.937   1.144  53.495  1.00  0.00    -0.072 C 
HETATM   17  C15 UNL     1      25.629   0.009  53.212  1.00  0.00    -0.017 C 
HETATM   18  C16 UNL     1      26.426  -0.001  51.927  1.00  0.00     0.095 C 
HETATM   19  C17 UNL     1      26.684   1.419  51.559  1.00  0.00     0.085 C 
HETATM   20  C18 UNL     1      27.035   2.107  52.678  1.00  0.00     0.127 C 
HETATM   21  F1  UNL     1      28.070   2.858  53.121  1.00  0.00    -0.208 F 
HETATM   22  C19 UNL     1      26.040   2.086  53.817  1.00  0.00     0.107 C 
HETATM   23  O1  UNL     1      26.807   2.558  50.789  1.00  0.00    -0.338 OA
HETATM   24  H7  UNL     1      21.356   2.295  49.331  1.00  0.00     0.164 HD
ENDROOT
TORSDOF 0
ENDMDL
MODEL 2
REMARK VINA RESULT:      -8.4      2.669      4.673
REMARK  0 active torsions:
REMARK  status: ('A' for Active; 'I' for Inactive)
ROOT
HETATM    1  C1  UNL     1      20.013   0.281  51.339  1.00  0.00     0.049 C 
HETATM    2  C2  UNL     1      21.235   1.156  51.170  1.00  0.00    -0.044 C 
HETATM    3  C3  UNL     1      21.676   1.506  52.368  1.00  0.00     0.050 C 
HETATM    4 CL1  UNL     1      20.547   0.720  53.492  1.00  0.00    -0.085 Cl
HETATM    5  C4  UNL     1      22.738   2.257  53.090  1.00  0.00     0.198 C 
HETATM    6  C5  UNL     1      23.152   3.412  52.269  1.00  0.00     0.028 C 
HETATM    7  C6  UNL     1      22.732   4.284  51.332  1.00  0.00     0.086 C 
HETATM    8  N1  UNL     1      23.422   5.382  50.672  1.00  0.00    -0.374 N 
HETATM    9  C7  UNL     1      24.802   4.969  50.719  1.00  0.00     0.104 C 
HETATM   10  C8  UNL     1      25.108   3.788  50.207  1.00  0.00     0.015 C 
HETATM   11  C9  UNL     1      24.077   3.029  49.653  1.00  0.00    -0.069 C 
HETATM   12  C10 UNL     1      23.213   2.410  49.209  1.00  0.00    -0.091 C 
HETATM   13  C11 UNL     1      22.166   1.679  48.696  1.00  0.00     0.108 C 
HETATM   14  C12 UNL     1      21.680   1.398  49.818  1.00  0.00    -0.000 C 
HETATM   15  C13 UNL     1      26.500   3.281  50.233  1.00  0.00     0.083 C 
HETATM   16  C14 UNL     1      26.609   2.120  51.176  1.00  0.00    -0.072 C 
HETATM   17  C15 UNL     1      27.261   2.335  52.348  1.00  0.00    -0.017 C 
HETATM   18  C16 UNL     1      26.415   2.378  53.601  1.00  0.00     0.095 C 
HETATM   19  C17 UNL     1      25.154   1.644  53.304  1.00  0.00     0.085 C 
HETATM   20  C18 UNL     1      25.454   0.511  52.616  1.00  0.00     0.127 C 
HETATM   21  F1  UNL     1      25.276  -0.825  52.739  1.00  0.00    -0.208 F 
HETATM   22  C19 UNL     1      26.212   0.696  51.320  1.00  0.00     0.107 C 
HETATM   23  O1  UNL     1      23.807   1.341  53.265  1.00  0.00    -0.338 OA
HETATM   24  H7  UNL     1      22.711   6.081  50.393  1.00  0.00     0.164 HD
ENDROOT
TORSDOF 0
ENDMDL
MODEL 3
REMARK VINA RESULT:      -8.2      3.801      5.280
REMARK  0 active torsions:
REMARK  status: ('A' for Active; 'I' for Inactive)
ROOT
HETATM    1  C1  UNL     1      19.759   4.575  48.315  1.00  0.00     0.049 C 
HETATM    2  C2  UNL     1      20.707   4.011  49.349  1.00  0.00    -0.044 C 
HETATM    3  C3  UNL     1      20.110   4.031  50.530  1.00  0.00     0.050 C 
HETATM    4 CL1  UNL     1      18.509   4.722  50.193  1.00  0.00    -0.085 Cl
HETATM    5  C4  UNL     1      20.265   3.677  51.966  1.00  0.00     0.198 C 
HETATM    6  C5  UNL     1      21.685   3.825  52.347  1.00  0.00     0.028 C 
HETATM    7  C6  UNL     1      22.821   4.490  52.061  1.00  0.00     0.086 C 
HETATM    8  N1  UNL     1      24.148   4.405  52.649  1.00  0.00    -0.374 N 
HETATM    9  C7  UNL     1      24.198   3.051  53.138  1.00  0.00     0.104 C 
HETATM   10  C8  UNL     1      23.956   2.077  52.276  1.00  0.00     0.015 C 
HETATM   11  C9  UNL     1      23.674   2.428  50.955  1.00  0.00    -0.069 C 
HETATM   12  C10 UNL     1      23.434   2.735  49.872  1.00  0.00    -0.091 C 
HETATM   13  C11 UNL     1      23.134   3.121  48.586  1.00  0.00     0.108 C 
HETATM   14  C12 UNL     1      21.992   3.554  48.874  1.00  0.00    -0.000 C 
HETATM   15  C13 UNL     1      23.967   0.658  52.702  1.00  0.00     0.083 C 
HETATM   16  C14 UNL     1      22.579   0.094  52.661  1.00  0.00    -0.072 C 
HETATM   17  C15 UNL     1      21.970  -0.137  53.854  1.00  0.00    -0.017 C 
HETATM   18  C16 UNL     1      20.835   0.789  54.232  1.00  0.00     0.095 C 
HETATM   19  C17 UNL     1      20.318   1.386  52.969  1.00  0.00     0.085 C 
HETATM   20  C18 UNL     1      20.236   0.414  52.022  1.00  0.00     0.127 C 
HETATM   21  F1  UNL     1      19.298  -0.140  51.219  1.00  0.00    -0.208 F 
HETATM   22  C19 UNL     1      21.519  -0.323  51.707  1.00  0.00     0.107 C 
HETATM   23  O1  UNL     1      19.841   2.328  52.079  1.00  0.00    -0.338 OA
HETATM   24  H7  UNL     1      24.609   5.324  52.526  1.00  0.00     0.164 HD
ENDROOT
TORSDOF 0
ENDMDL
MODEL 4
REMARK VINA RESULT:      -7.9      3.232      4.891
REMARK  0 active torsions:
REMARK  status: ('A' for Active; 'I' for Inactive)
ROOT
HETATM    1  C1  UNL     1      26.367   7.095  47.900  1.00  0.00     0.049 C 
HETATM    2  C2  UNL     1      25.572   6.070  48.679  1.00  0.00    -0.044 C 
HETATM    3  C3  UNL     1      24.319   6.484  48.770  1.00  0.00     0.050 C 
HETATM    4 CL1  UNL     1      24.308   8.031  47.900  1.00  0.00    -0.085 Cl
HETATM    5  C4  UNL     1      22.968   6.132  49.284  1.00  0.00     0.198 C 
HETATM    6  C5  UNL     1      23.115   5.346  50.526  1.00  0.00     0.028 C 
HETATM    7  C6  UNL     1      23.921   5.130  51.584  1.00  0.00     0.086 C 
HETATM    8  N1  UNL     1      23.786   4.227  52.716  1.00  0.00    -0.374 N 
HETATM    9  C7  UNL     1      22.980   3.159  52.182  1.00  0.00     0.104 C 
HETATM   10  C8  UNL     1      23.412   2.551  51.089  1.00  0.00     0.015 C 
HETATM   11  C9  UNL     1      24.618   2.982  50.534  1.00  0.00    -0.069 C 
HETATM   12  C10 UNL     1      25.609   3.357  50.082  1.00  0.00    -0.091 C 
HETATM   13  C11 UNL     1      26.787   3.828  49.550  1.00  0.00     0.108 C 
HETATM   14  C12 UNL     1      26.284   4.893  49.118  1.00  0.00    -0.000 C 
HETATM   15  C13 UNL     1      22.633   1.456  50.463  1.00  0.00     0.083 C 
HETATM   16  C14 UNL     1      22.072   1.907  49.148  1.00  0.00    -0.072 C 
HETATM   17  C15 UNL     1      20.733   2.133  49.093  1.00  0.00    -0.017 C 
HETATM   18  C16 UNL     1      20.289   3.576  48.987  1.00  0.00     0.095 C 
HETATM   19  C17 UNL     1      21.436   4.347  48.432  1.00  0.00     0.085 C 
HETATM   20  C18 UNL     1      21.995   3.637  47.417  1.00  0.00     0.127 C 
HETATM   21  F1  UNL     1      22.271   3.797  46.102  1.00  0.00    -0.208 F 
HETATM   22  C19 UNL     1      22.483   2.247  47.762  1.00  0.00     0.107 C 
HETATM   23  O1  UNL     1      22.354   5.364  48.261  1.00  0.00    -0.338 OA
HETATM   24  H7  UNL     1      24.301   4.640  53.514  1.00  0.00     0.164 HD
ENDROOT
TORSDOF 0
ENDMDL
MODEL 5
REMARK VINA RESULT:      -7.2      3.390      4.938
REMARK  0 active torsions:
REMARK  status: ('A' for Active; 'I' for Inactive)
ROOT
HETATM    1  C1  UNL     1      23.257   7.214  48.857  1.00  0.00     0.049 C 
HETATM    2  C2  UNL     1      23.264   5.930  49.655  1.00  0.00    -0.044 C 
HETATM    3  C3  UNL     1      22.262   5.959  50.519  1.00  0.00     0.050 C 
HETATM    4 CL1  UNL     1      21.478   7.524  50.220  1.00  0.00    -0.085 Cl
HETATM    5  C4  UNL     1      21.561   5.186  51.579  1.00  0.00     0.198 C 
HETATM    6  C5  UNL     1      22.545   4.346  52.292  1.00  0.00     0.028 C 
HETATM    7  C6  UNL     1      23.843   4.256  52.641  1.00  0.00     0.086 C 
HETATM    8  N1  UNL     1      24.559   3.235  53.391  1.00  0.00    -0.374 N 
HETATM    9  C7  UNL     1      23.786   2.046  53.136  1.00  0.00     0.104 C 
HETATM   10  C8  UNL     1      23.581   1.706  51.874  1.00  0.00     0.015 C 
HETATM   11  C9  UNL     1      24.129   2.517  50.880  1.00  0.00    -0.069 C 
HETATM   12  C10 UNL     1      24.579   3.204  50.072  1.00  0.00    -0.091 C 
HETATM   13  C11 UNL     1      25.113   4.043  49.121  1.00  0.00     0.108 C 
HETATM   14  C12 UNL     1      24.282   4.962  49.320  1.00  0.00    -0.000 C 
HETATM   15  C13 UNL     1      22.779   0.509  51.525  1.00  0.00     0.083 C 
HETATM   16  C14 UNL     1      21.482   0.920  50.896  1.00  0.00    -0.072 C 
HETATM   17  C15 UNL     1      20.357   0.763  51.642  1.00  0.00    -0.017 C 
HETATM   18  C16 UNL     1      19.703   2.023  52.163  1.00  0.00     0.095 C 
HETATM   19  C17 UNL     1      20.147   3.143  51.287  1.00  0.00     0.085 C 
HETATM   20  C18 UNL     1      20.106   2.733  49.992  1.00  0.00     0.127 C 
HETATM   21  F1  UNL     1      19.517   3.104  48.832  1.00  0.00    -0.208 F 
HETATM   22  C19 UNL     1      20.927   1.509  49.650  1.00  0.00     0.107 C 
HETATM   23  O1  UNL     1      20.599   4.391  50.905  1.00  0.00    -0.338 OA
HETATM   24  H7  UNL     1      25.368   3.689  53.850  1.00  0.00     0.164 HD
ENDROOT
TORSDOF 0
ENDMDL
MODEL 6
REMARK VINA RESULT:      -6.9      3.150      5.726
REMARK  0 active torsions:
REMARK  status: ('A' for Active; 'I' for Inactive)
ROOT
HETATM    1  C1  UNL     1      24.328   0.947  52.342  1.00  0.00     0.049 C 
HETATM    2  C2  UNL     1      23.290   1.833  51.689  1.00  0.00    -0.044 C 
HETATM    3  C3  UNL     1      23.381   3.047  52.207  1.00  0.00     0.050 C 
HETATM    4 CL1  UNL     1      24.701   2.917  53.387  1.00  0.00    -0.085 Cl
HETATM    5  C4  UNL     1      22.830   4.428  52.148  1.00  0.00     0.198 C 
HETATM    6  C5  UNL     1      21.397   4.359  51.796  1.00  0.00     0.028 C 
HETATM    7  C6  UNL     1      20.298   3.584  51.870  1.00  0.00     0.086 C 
HETATM    8  N1  UNL     1      18.941   3.805  51.394  1.00  0.00    -0.374 N 
HETATM    9  C7  UNL     1      19.133   4.696  50.277  1.00  0.00     0.104 C 
HETATM   10  C8  UNL     1      19.957   4.308  49.317  1.00  0.00     0.015 C 
HETATM   11  C9  UNL     1      20.578   3.065  49.450  1.00  0.00    -0.069 C 
HETATM   12  C10 UNL     1      21.090   2.042  49.580  1.00  0.00    -0.091 C 
HETATM   13  C11 UNL     1      21.703   0.823  49.759  1.00  0.00     0.108 C 
HETATM   14  C12 UNL     1      22.471   1.229  50.665  1.00  0.00    -0.000 C 
HETATM   15  C13 UNL     1      20.226   5.173  48.144  1.00  0.00     0.083 C 
HETATM   16  C14 UNL     1      21.635   5.682  48.190  1.00  0.00    -0.072 C 
HETATM   17  C15 UNL     1      21.807   6.997  48.491  1.00  0.00    -0.017 C 
HETATM   18  C16 UNL     1      22.387   7.314  49.852  1.00  0.00     0.095 C 
HETATM   19  C17 UNL     1      23.119   6.100  50.310  1.00  0.00     0.085 C 
HETATM   20  C18 UNL     1      23.831   5.595  49.269  1.00  0.00     0.127 C 
HETATM   21  F1  UNL     1      25.118   5.296  48.974  1.00  0.00    -0.208 F 
HETATM   22  C19 UNL     1      23.042   5.232  48.031  1.00  0.00     0.107 C 
HETATM   23  O1  UNL     1      23.574   5.097  51.142  1.00  0.00    -0.338 OA
HETATM   24  H7  UNL     1      18.300   3.264  52.000  1.00  0.00     0.164 HD
ENDROOT
TORSDOF 0
ENDMDL
MODEL 7
REMARK VINA RESULT:      -6.9      2.071      2.646
REMARK  0 active torsions:
REMARK  status: ('A' for Active; 'I' for Inactive)
ROOT
HETATM    1  C1  UNL     1      23.580   7.810  50.213  1.00  0.00     0.049 C 
HETATM    2  C2  UNL     1      23.176   6.356  50.119  1.00  0.00    -0.044 C 
HETATM    3  C3  UNL     1      24.269   5.614  50.049  1.00  0.00     0.050 C 
HETATM    4 CL1  UNL     1      25.597   6.792  50.113  1.00  0.00    -0.085 Cl
HETATM    5  C4  UNL     1      24.776   4.218  49.971  1.00  0.00     0.198 C 
HETATM    6  C5  UNL     1      23.809   3.397  49.214  1.00  0.00     0.028 C 
HETATM    7  C6  UNL     1      22.863   3.443  48.257  1.00  0.00     0.086 C 
HETATM    8  N1  UNL     1      22.025   2.396  47.694  1.00  0.00    -0.374 N 
HETATM    9  C7  UNL     1      21.926   1.447  48.774  1.00  0.00     0.104 C 
HETATM   10  C8  UNL     1      21.483   1.888  49.940  1.00  0.00     0.015 C 
HETATM   11  C9  UNL     1      21.138   3.236  50.042  1.00  0.00    -0.069 C 
HETATM   12  C10 UNL     1      20.868   4.353  50.111  1.00  0.00    -0.091 C 
HETATM   13  C11 UNL     1      20.564   5.694  50.180  1.00  0.00     0.108 C 
HETATM   14  C12 UNL     1      21.760   6.070  50.155  1.00  0.00    -0.000 C 
HETATM   15  C13 UNL     1      21.370   0.982  51.108  1.00  0.00     0.083 C 
HETATM   16  C14 UNL     1      22.388   1.348  52.146  1.00  0.00    -0.072 C 
HETATM   17  C15 UNL     1      23.441   0.503  52.303  1.00  0.00    -0.017 C 
HETATM   18  C16 UNL     1      24.786   0.992  51.812  1.00  0.00     0.095 C 
HETATM   19  C17 UNL     1      24.723   2.479  51.769  1.00  0.00     0.085 C 
HETATM   20  C18 UNL     1      24.104   2.928  52.893  1.00  0.00     0.127 C 
HETATM   21  F1  UNL     1      24.366   3.755  53.931  1.00  0.00    -0.208 F 
HETATM   22  C19 UNL     1      22.708   2.401  53.143  1.00  0.00     0.107 C 
HETATM   23  O1  UNL     1      24.888   3.772  51.314  1.00  0.00    -0.338 OA
HETATM   24  H7  UNL     1      21.782   2.670  46.726  1.00  0.00     0.164 HD
ENDROOT
TORSDOF 0
ENDMDL
MODEL 8
REMARK VINA RESULT:      -6.8      3.232      5.576
REMARK  0 active torsions:
REMARK  status: ('A' for Active; 'I' for Inactive)
ROOT
HETATM    1  C1  UNL     1      20.785  -0.127  51.929  1.00  0.00     0.049 C 
HETATM    2  C2  UNL     1      21.090   1.133  51.151  1.00  0.00    -0.044 C 
HETATM    3  C3  UNL     1      21.125   2.155  51.992  1.00  0.00     0.050 C 
HETATM    4 CL1  UNL     1      20.789   1.424  53.575  1.00  0.00    -0.085 Cl
HETATM    5  C4  UNL     1      21.361   3.619  52.101  1.00  0.00     0.198 C 
HETATM    6  C5  UNL     1      20.911   4.273  50.855  1.00  0.00     0.028 C 
HETATM    7  C6  UNL     1      20.048   4.168  49.826  1.00  0.00     0.086 C 
HETATM    8  N1  UNL     1      19.833   5.027  48.672  1.00  0.00    -0.374 N 
HETATM    9  C7  UNL     1      21.120   5.646  48.485  1.00  0.00     0.104 C 
HETATM   10  C8  UNL     1      22.169   4.851  48.345  1.00  0.00     0.015 C 
HETATM   11  C9  UNL     1      21.955   3.473  48.382  1.00  0.00    -0.069 C 
HETATM   12  C10 UNL     1      21.763   2.339  48.425  1.00  0.00    -0.091 C 
HETATM   13  C11 UNL     1      21.516   0.987  48.494  1.00  0.00     0.108 C 
HETATM   14  C12 UNL     1      21.306   0.985  49.730  1.00  0.00    -0.000 C 
HETATM   15  C13 UNL     1      23.532   5.407  48.170  1.00  0.00     0.083 C 
HETATM   16  C14 UNL     1      24.363   5.131  49.386  1.00  0.00    -0.072 C 
HETATM   17  C15 UNL     1      24.646   6.187  50.194  1.00  0.00    -0.017 C 
HETATM   18  C16 UNL     1      23.947   6.225  51.535  1.00  0.00     0.095 C 
HETATM   19  C17 UNL     1      23.536   4.830  51.856  1.00  0.00     0.085 C 
HETATM   20  C18 UNL     1      24.556   3.987  51.543  1.00  0.00     0.127 C 
HETATM   21  F1  UNL     1      25.329   3.063  52.158  1.00  0.00    -0.208 F 
HETATM   22  C19 UNL     1      25.037   4.022  50.109  1.00  0.00     0.107 C 
HETATM   23  O1  UNL     1      22.759   3.772  52.285  1.00  0.00    -0.338 OA
HETATM   24  H7  UNL     1      18.848   4.914  48.371  1.00  0.00     0.164 HD
ENDROOT
TORSDOF 0
ENDMDL
MODEL 9
REMARK VINA RESULT:      -6.7      7.880      9.695
REMARK  0 active torsions:
REMARK  status: ('A' for Active; 'I' for Inactive)
ROOT
HETATM    1  C1  UNL     1      31.158  12.136  45.991  1.00  0.00     0.049 C 
HETATM    2  C2  UNL     1      31.112  10.745  46.582  1.00  0.00    -0.044 C 
HETATM    3  C3  UNL     1      31.476   9.876  45.653  1.00  0.00     0.050 C 
HETATM    4 CL1  UNL     1      31.815  10.881  44.228  1.00  0.00    -0.085 Cl
HETATM    5  C4  UNL     1      31.724   8.434  45.380  1.00  0.00     0.198 C 
HETATM    6  C5  UNL     1      30.804   7.624  46.204  1.00  0.00     0.028 C 
HETATM    7  C6  UNL     1      29.599   7.629  46.807  1.00  0.00     0.086 C 
HETATM    8  N1  UNL     1      28.928   6.612  47.603  1.00  0.00    -0.374 N 
HETATM    9  C7  UNL     1      30.026   5.869  48.168  1.00  0.00     0.104 C 
HETATM   10  C8  UNL     1      30.934   6.542  48.855  1.00  0.00     0.015 C 
HETATM   11  C9  UNL     1      30.765   7.921  48.989  1.00  0.00    -0.069 C 
HETATM   12  C10 UNL     1      30.615   9.059  49.081  1.00  0.00    -0.091 C 
HETATM   13  C11 UNL     1      30.428  10.419  49.168  1.00  0.00     0.108 C 
HETATM   14  C12 UNL     1      30.736  10.641  47.972  1.00  0.00    -0.000 C 
HETATM   15  C13 UNL     1      32.105   5.857  49.452  1.00  0.00     0.083 C 
HETATM   16  C14 UNL     1      33.360   6.260  48.737  1.00  0.00    -0.072 C 
HETATM   17  C15 UNL     1      33.936   5.332  47.930  1.00  0.00    -0.017 C 
HETATM   18  C16 UNL     1      33.839   5.570  46.439  1.00  0.00     0.095 C 
HETATM   19  C17 UNL     1      33.605   7.028  46.242  1.00  0.00     0.085 C 
HETATM   20  C18 UNL     1      34.417   7.722  47.082  1.00  0.00     0.127 C 
HETATM   21  F1  UNL     1      35.381   8.669  47.004  1.00  0.00    -0.208 F 
HETATM   22  C19 UNL     1      34.277   7.415  48.556  1.00  0.00     0.107 C 
HETATM   23  O1  UNL     1      33.076   8.201  45.742  1.00  0.00    -0.338 OA
HETATM   24  H7  UNL     1      27.908   6.754  47.504  1.00  0.00     0.164 HD
ENDROOT
TORSDOF 0
ENDMDL
