MODEL 1
REMARK VINA RESULT:      -8.9      0.000      0.000
REMARK  6 active torsions:
REMARK  status: ('A' for Active; 'I' for Inactive)
REMARK    1  A    between atoms: O1_2  and  C2_3 
REMARK    2  A    between atoms: C7_9  and  N2_10 
REMARK    3  A    between atoms: N2_10  and  C8_11 
REMARK    4  A    between atoms: C16_21  and  N3_22 
REMARK       I    between atoms: N3_22  and  C17_23 
REMARK    5  A    between atoms: C17_23  and  C18_25 
REMARK    6  A    between atoms: C18_25  and  N4_26 
ROOT
HETATM    1  C2  UNL     1      20.417   2.433  52.520  1.00  0.00     0.097 A 
HETATM    2  C3  UNL     1      20.400   1.365  53.364  1.00  0.00     0.071 A 
HETATM    3  C4  UNL     1      21.528   0.605  53.593  1.00  0.00     0.071 A 
HETATM    4  N1  UNL     1      21.328  -0.408  54.454  1.00  0.00    -0.260 NA
HETATM    5  C5  UNL     1      22.373  -1.226  54.754  1.00  0.00     0.119 A 
HETATM    6  C6  UNL     1      23.573  -0.944  54.142  1.00  0.00     0.049 A 
HETATM    7  C7  UNL     1      23.816   0.079  53.259  1.00  0.00     0.046 A 
HETATM    8  C14 UNL     1      22.733   0.874  52.988  1.00  0.00     0.022 A 
HETATM    9  C15 UNL     1      22.713   1.958  52.143  1.00  0.00     0.048 A 
HETATM   10  C16 UNL     1      21.615   2.745  51.883  1.00  0.00     0.069 A 
ENDROOT
BRANCH  10  11
HETATM   11  N3  UNL     1      21.656   3.856  50.997  1.00  0.00    -0.323 N 
HETATM   12  C17 UNL     1      22.115   5.109  51.499  1.00  0.00     0.250 C 
HETATM   13  O2  UNL     1      22.420   4.979  52.734  1.00  0.00    -0.271 OA
HETATM   14  H12 UNL     1      21.355   3.767  49.982  1.00  0.00     0.169 HD
BRANCH  12  15
HETATM   15  C18 UNL     1      22.190   6.332  50.628  1.00  0.00     0.375 C 
BRANCH  15  16
HETATM   16  N4  UNL     1      23.275   6.108  49.701  1.00  0.00     0.101 N 
HETATM   17  C19 UNL     1      24.562   5.967  50.318  1.00  0.00     0.299 C 
HETATM   18  C20 UNL     1      25.328   7.213  50.448  1.00  0.00     0.198 C 
HETATM   19  O3  UNL     1      24.690   8.409  50.324  1.00  0.00    -0.388 OA
HETATM   20  C21 UNL     1      23.653   8.462  49.436  1.00  0.00     0.198 C 
HETATM   21  C22 UNL     1      23.367   7.170  48.734  1.00  0.00     0.299 C 
ENDBRANCH  15  16
ENDBRANCH  12  15
ENDBRANCH  10  11
BRANCH   1  22
HETATM   22  O1  UNL     1      19.306   3.224  52.262  1.00  0.00    -0.354 OA
HETATM   23  C1  UNL     1      18.236   2.634  51.538  1.00  0.00     0.210 C 
ENDBRANCH   1  22
BRANCH   7  24
HETATM   24  N2  UNL     1      25.047   0.382  52.643  1.00  0.00    -0.355 N 
HETATM   25  H7  UNL     1      25.115   0.924  51.775  1.00  0.00     0.166 HD
BRANCH  24  26
HETATM   26  C8  UNL     1      26.392   0.086  52.972  1.00  0.00     0.034 A 
HETATM   27  C9  UNL     1      27.036  -1.136  52.771  1.00  0.00     0.032 A 
HETATM   28  C10 UNL     1      28.349  -1.366  53.087  1.00  0.00     0.046 A 
HETATM   29  C11 UNL     1      29.119  -0.367  53.638  1.00  0.00     0.138 A 
HETATM   30  F1  UNL     1      30.385  -0.698  53.909  1.00  0.00    -0.204 F 
HETATM   31  C12 UNL     1      28.513   0.866  53.854  1.00  0.00     0.074 A 
HETATM   32 CL1  UNL     1      29.581   2.068  54.559  1.00  0.00    -0.081 Cl
HETATM   33  C13 UNL     1      27.189   1.060  53.521  1.00  0.00     0.056 A 
ENDBRANCH  24  26
ENDBRANCH   7  24
TORSDOF 6
ENDMDL
MODEL 2
REMARK VINA RESULT:      -8.8      1.109      1.594
REMARK  6 active torsions:
REMARK  status: ('A' for Active; 'I' for Inactive)
REMARK    1  A    between atoms: O1_2  and  C2_3 
REMARK    2  A    between atoms: C7_9  and  N2_10 
REMARK    3  A    between atoms: N2_10  and  C8_11 
REMARK    4  A    between atoms: C16_21  and  N3_22 
REMARK       I    between atoms: N3_22  and  C17_23 
REMARK    5  A    between atoms: C17_23  and  C18_25 
REMARK    6  A    between atoms: C18_25  and  N4_26 
ROOT
HETATM    1  C2  UNL     1      20.570   2.545  52.489  1.00  0.00     0.097 A 
HETATM    2  C3  UNL     1      20.438   1.519  53.375  1.00  0.00     0.071 A 
HETATM    3  C4  UNL     1      21.473   0.643  53.628  1.00  0.00     0.071 A 
HETATM    4  N1  UNL     1      21.166  -0.306  54.529  1.00  0.00    -0.260 NA
HETATM    5  C5  UNL     1      22.113  -1.227  54.856  1.00  0.00     0.119 A 
HETATM    6  C6  UNL     1      23.331  -1.109  54.227  1.00  0.00     0.049 A 
HETATM    7  C7  UNL     1      23.683  -0.156  53.303  1.00  0.00     0.046 A 
HETATM    8  C14 UNL     1      22.696   0.748  53.007  1.00  0.00     0.022 A 
HETATM    9  C15 UNL     1      22.792   1.793  52.119  1.00  0.00     0.048 A 
HETATM   10  C16 UNL     1      21.790   2.691  51.835  1.00  0.00     0.069 A 
ENDROOT
BRANCH  10  11
HETATM   11  N3  UNL     1      21.951   3.755  50.906  1.00  0.00    -0.323 N 
HETATM   12  C17 UNL     1      22.529   4.976  51.362  1.00  0.00     0.250 C 
HETATM   13  O2  UNL     1      22.808   4.866  52.605  1.00  0.00    -0.271 OA
HETATM   14  H12 UNL     1      21.651   3.655  49.891  1.00  0.00     0.169 HD
BRANCH  12  15
HETATM   15  C18 UNL     1      22.734   6.148  50.444  1.00  0.00     0.375 C 
BRANCH  15  16
HETATM   16  N4  UNL     1      23.990   6.752  50.827  1.00  0.00     0.101 N 
HETATM   17  C19 UNL     1      24.100   8.144  50.508  1.00  0.00     0.299 C 
HETATM   18  C20 UNL     1      24.702   8.436  49.200  1.00  0.00     0.198 C 
HETATM   19  O3  UNL     1      24.787   7.450  48.266  1.00  0.00    -0.388 OA
HETATM   20  C21 UNL     1      25.003   6.183  48.729  1.00  0.00     0.198 C 
HETATM   21  C22 UNL     1      25.104   6.073  50.219  1.00  0.00     0.299 C 
ENDBRANCH  15  16
ENDBRANCH  12  15
ENDBRANCH  10  11
BRANCH   1  22
HETATM   22  O1  UNL     1      19.555   3.448  52.206  1.00  0.00    -0.354 OA
HETATM   23  C1  UNL     1      18.409   2.953  51.529  1.00  0.00     0.210 C 
ENDBRANCH   1  22
BRANCH   7  24
HETATM   24  N2  UNL     1      24.935  -0.021  52.670  1.00  0.00    -0.355 N 
HETATM   25  H7  UNL     1      25.101  -0.315  51.701  1.00  0.00     0.166 HD
BRANCH  24  26
HETATM   26  C8  UNL     1      26.184   0.489  53.096  1.00  0.00     0.034 A 
HETATM   27  C9  UNL     1      26.446   1.806  53.478  1.00  0.00     0.032 A 
HETATM   28  C10 UNL     1      27.671   2.246  53.905  1.00  0.00     0.046 A 
HETATM   29  C11 UNL     1      28.737   1.378  53.979  1.00  0.00     0.138 A 
HETATM   30  F1  UNL     1      29.886   1.911  54.407  1.00  0.00    -0.204 F 
HETATM   31  C12 UNL     1      28.516   0.057  53.607  1.00  0.00     0.074 A 
HETATM   32 CL1  UNL     1      29.938  -0.965  53.737  1.00  0.00    -0.081 Cl
HETATM   33  C13 UNL     1      27.268  -0.349  53.183  1.00  0.00     0.056 A 
ENDBRANCH  24  26
ENDBRANCH   7  24
TORSDOF 6
ENDMDL
MODEL 3
REMARK VINA RESULT:      -8.5      3.893      7.936
REMARK  6 active torsions:
REMARK  status: ('A' for Active; 'I' for Inactive)
REMARK    1  A    between atoms: O1_2  and  C2_3 
REMARK    2  A    between atoms: C7_9  and  N2_10 
REMARK    3  A    between atoms: N2_10  and  C8_11 
REMARK    4  A    between atoms: C16_21  and  N3_22 
REMARK       I    between atoms: N3_22  and  C17_23 
REMARK    5  A    between atoms: C17_23  and  C18_25 
REMARK    6  A    between atoms: C18_25  and  N4_26 
ROOT
HETATM    1  C2  UNL     1      23.697   3.063  50.175  1.00  0.00     0.097 A 
HETATM    2  C3  UNL     1      23.044   3.608  49.111  1.00  0.00     0.071 A 
HETATM    3  C4  UNL     1      23.414   4.827  48.582  1.00  0.00     0.071 A 
HETATM    4  N1  UNL     1      22.661   5.210  47.536  1.00  0.00    -0.260 NA
HETATM    5  C5  UNL     1      22.935   6.398  46.934  1.00  0.00     0.119 A 
HETATM    6  C6  UNL     1      23.981   7.126  47.454  1.00  0.00     0.049 A 
HETATM    7  C7  UNL     1      24.772   6.770  48.518  1.00  0.00     0.046 A 
HETATM    8  C14 UNL     1      24.457   5.566  49.090  1.00  0.00     0.022 A 
HETATM    9  C15 UNL     1      25.091   4.986  50.163  1.00  0.00     0.048 A 
HETATM   10  C16 UNL     1      24.759   3.774  50.725  1.00  0.00     0.069 A 
ENDROOT
BRANCH  10  11
HETATM   11  N3  UNL     1      25.455   3.225  51.836  1.00  0.00    -0.323 N 
HETATM   12  C17 UNL     1      26.652   2.490  51.593  1.00  0.00     0.250 C 
HETATM   13  O2  UNL     1      26.880   2.467  50.335  1.00  0.00    -0.271 OA
HETATM   14  H12 UNL     1      25.102   3.353  52.830  1.00  0.00     0.169 HD
BRANCH  12  15
HETATM   15  C18 UNL     1      27.448   1.878  52.713  1.00  0.00     0.375 C 
BRANCH  15  16
HETATM   16  N4  UNL     1      27.369   0.446  52.534  1.00  0.00     0.101 N 
HETATM   17  C19 UNL     1      26.072  -0.111  52.781  1.00  0.00     0.299 C 
HETATM   18  C20 UNL     1      25.846  -0.571  54.158  1.00  0.00     0.198 C 
HETATM   19  O3  UNL     1      26.676  -0.150  55.150  1.00  0.00    -0.388 OA
HETATM   20  C21 UNL     1      27.987   0.039  54.816  1.00  0.00     0.198 C 
HETATM   21  C22 UNL     1      28.310  -0.240  53.380  1.00  0.00     0.299 C 
ENDBRANCH  15  16
ENDBRANCH  12  15
ENDBRANCH  10  11
BRANCH   1  22
HETATM   22  O1  UNL     1      23.358   1.840  50.737  1.00  0.00    -0.354 OA
HETATM   23  C1  UNL     1      22.096   1.288  50.391  1.00  0.00     0.210 C 
ENDBRANCH   1  22
BRANCH   7  24
HETATM   24  N2  UNL     1      25.856   7.503  49.041  1.00  0.00    -0.355 N 
HETATM   25  H7  UNL     1      25.739   8.241  49.745  1.00  0.00     0.166 HD
BRANCH  24  26
HETATM   26  C8  UNL     1      27.251   7.468  48.806  1.00  0.00     0.034 A 
HETATM   27  C9  UNL     1      27.956   6.425  48.202  1.00  0.00     0.032 A 
HETATM   28  C10 UNL     1      29.308   6.450  47.977  1.00  0.00     0.046 A 
HETATM   29  C11 UNL     1      30.057   7.542  48.350  1.00  0.00     0.138 A 
HETATM   30  F1  UNL     1      31.365   7.461  48.085  1.00  0.00    -0.204 F 
HETATM   31  C12 UNL     1      29.391   8.602  48.955  1.00  0.00     0.074 A 
HETATM   32 CL1  UNL     1      30.438   9.942  49.391  1.00  0.00    -0.081 Cl
HETATM   33  C13 UNL     1      28.030   8.542  49.164  1.00  0.00     0.056 A 
ENDBRANCH  24  26
ENDBRANCH   7  24
TORSDOF 6
ENDMDL
MODEL 4
REMARK VINA RESULT:      -8.5      3.327      6.455
REMARK  6 active torsions:
REMARK  status: ('A' for Active; 'I' for Inactive)
REMARK    1  A    between atoms: O1_2  and  C2_3 
REMARK    2  A    between atoms: C7_9  and  N2_10 
REMARK    3  A    between atoms: N2_10  and  C8_11 
REMARK    4  A    between atoms: C16_21  and  N3_22 
REMARK       I    between atoms: N3_22  and  C17_23 
REMARK    5  A    between atoms: C17_23  and  C18_25 
REMARK    6  A    between atoms: C18_25  and  N4_26 
ROOT
HETATM    1  C2  UNL     1      21.966   0.116  52.781  1.00  0.00     0.097 A 
HETATM    2  C3  UNL     1      20.955   0.706  52.086  1.00  0.00     0.071 A 
HETATM    3  C4  UNL     1      21.089   1.966  51.541  1.00  0.00     0.071 A 
HETATM    4  N1  UNL     1      19.992   2.390  50.890  1.00  0.00    -0.260 NA
HETATM    5  C5  UNL     1      20.011   3.621  50.312  1.00  0.00     0.119 A 
HETATM    6  C6  UNL     1      21.174   4.346  50.442  1.00  0.00     0.049 A 
HETATM    7  C7  UNL     1      22.313   3.948  51.097  1.00  0.00     0.046 A 
HETATM    8  C14 UNL     1      22.244   2.702  51.663  1.00  0.00     0.022 A 
HETATM    9  C15 UNL     1      23.243   2.076  52.371  1.00  0.00     0.048 A 
HETATM   10  C16 UNL     1      23.156   0.823  52.932  1.00  0.00     0.069 A 
ENDROOT
BRANCH  10  11
HETATM   11  N3  UNL     1      24.226   0.227  53.654  1.00  0.00    -0.323 N 
HETATM   12  C17 UNL     1      25.483   0.071  53.001  1.00  0.00     0.250 C 
HETATM   13  O2  UNL     1      25.395   0.529  51.810  1.00  0.00    -0.271 OA
HETATM   14  H12 UNL     1      24.104  -0.099  54.658  1.00  0.00     0.169 HD
BRANCH  12  15
HETATM   15  C18 UNL     1      26.665  -0.549  53.693  1.00  0.00     0.375 C 
BRANCH  15  16
HETATM   16  N4  UNL     1      27.153   0.436  54.629  1.00  0.00     0.101 N 
HETATM   17  C19 UNL     1      27.079   1.788  54.160  1.00  0.00     0.299 C 
HETATM   18  C20 UNL     1      28.285   2.276  53.479  1.00  0.00     0.198 C 
HETATM   19  O3  UNL     1      29.211   1.384  53.033  1.00  0.00    -0.388 OA
HETATM   20  C21 UNL     1      29.391   0.259  53.786  1.00  0.00     0.198 C 
HETATM   21  C22 UNL     1      28.519   0.176  55.001  1.00  0.00     0.299 C 
ENDBRANCH  15  16
ENDBRANCH  12  15
ENDBRANCH  10  11
BRANCH   1  22
HETATM   22  O1  UNL     1      21.873  -1.149  53.345  1.00  0.00    -0.354 OA
HETATM   23  C1  UNL     1      20.834  -1.370  54.287  1.00  0.00     0.210 C 
ENDBRANCH   1  22
BRANCH   7  24
HETATM   24  N2  UNL     1      23.512   4.680  51.218  1.00  0.00    -0.355 N 
HETATM   25  H7  UNL     1      23.679   5.351  51.976  1.00  0.00     0.166 HD
BRANCH  24  26
HETATM   26  C8  UNL     1      24.700   4.722  50.450  1.00  0.00     0.034 A 
HETATM   27  C9  UNL     1      25.621   3.683  50.305  1.00  0.00     0.032 A 
HETATM   28  C10 UNL     1      26.748   3.766  49.530  1.00  0.00     0.046 A 
HETATM   29  C11 UNL     1      27.033   4.921  48.836  1.00  0.00     0.138 A 
HETATM   30  F1  UNL     1      28.157   4.895  48.113  1.00  0.00    -0.204 F 
HETATM   31  C12 UNL     1      26.140   5.979  48.955  1.00  0.00     0.074 A 
HETATM   32 CL1  UNL     1      26.596   7.401  48.032  1.00  0.00    -0.081 Cl
HETATM   33  C13 UNL     1      25.015   5.857  49.743  1.00  0.00     0.056 A 
ENDBRANCH  24  26
ENDBRANCH   7  24
TORSDOF 6
ENDMDL
MODEL 5
REMARK VINA RESULT:      -8.3      2.310      2.944
REMARK  6 active torsions:
REMARK  status: ('A' for Active; 'I' for Inactive)
REMARK    1  A    between atoms: O1_2  and  C2_3 
REMARK    2  A    between atoms: C7_9  and  N2_10 
REMARK    3  A    between atoms: N2_10  and  C8_11 
REMARK    4  A    between atoms: C16_21  and  N3_22 
REMARK       I    between atoms: N3_22  and  C17_23 
REMARK    5  A    between atoms: C17_23  and  C18_25 
REMARK    6  A    between atoms: C18_25  and  N4_26 
ROOT
HETATM    1  C2  UNL     1      22.904   3.091  49.223  1.00  0.00     0.097 A 
HETATM    2  C3  UNL     1      22.008   2.147  49.620  1.00  0.00     0.071 A 
HETATM    3  C4  UNL     1      22.202   1.399  50.763  1.00  0.00     0.071 A 
HETATM    4  N1  UNL     1      21.217   0.515  51.002  1.00  0.00    -0.260 NA
HETATM    5  C5  UNL     1      21.305  -0.278  52.103  1.00  0.00     0.119 A 
HETATM    6  C6  UNL     1      22.414  -0.108  52.900  1.00  0.00     0.049 A 
HETATM    7  C7  UNL     1      23.439   0.782  52.691  1.00  0.00     0.046 A 
HETATM    8  C14 UNL     1      23.305   1.557  51.569  1.00  0.00     0.022 A 
HETATM    9  C15 UNL     1      24.189   2.518  51.137  1.00  0.00     0.048 A 
HETATM   10  C16 UNL     1      24.038   3.288  50.007  1.00  0.00     0.069 A 
ENDROOT
BRANCH  10  11
HETATM   11  N3  UNL     1      24.988   4.269  49.612  1.00  0.00    -0.323 N 
HETATM   12  C17 UNL     1      24.942   5.550  50.235  1.00  0.00     0.250 C 
HETATM   13  O2  UNL     1      23.987   5.567  51.085  1.00  0.00    -0.271 OA
HETATM   14  H12 UNL     1      25.721   4.064  48.870  1.00  0.00     0.169 HD
BRANCH  12  15
HETATM   15  C18 UNL     1      25.910   6.643  49.875  1.00  0.00     0.375 C 
BRANCH  15  16
HETATM   16  N4  UNL     1      26.351   6.370  48.527  1.00  0.00     0.101 N 
HETATM   17  C19 UNL     1      27.757   6.123  48.401  1.00  0.00     0.299 C 
HETATM   18  C20 UNL     1      28.572   7.310  48.107  1.00  0.00     0.198 C 
HETATM   19  O3  UNL     1      28.049   8.549  48.313  1.00  0.00    -0.388 OA
HETATM   20  C21 UNL     1      26.712   8.698  48.079  1.00  0.00     0.198 C 
HETATM   21  C22 UNL     1      26.014   7.449  47.636  1.00  0.00     0.299 C 
ENDBRANCH  15  16
ENDBRANCH  12  15
ENDBRANCH  10  11
BRANCH   1  22
HETATM   22  O1  UNL     1      22.747   3.866  48.082  1.00  0.00    -0.354 OA
HETATM   23  C1  UNL     1      21.758   4.884  48.115  1.00  0.00     0.210 C 
ENDBRANCH   1  22
BRANCH   7  24
HETATM   24  N2  UNL     1      24.567   0.972  53.514  1.00  0.00    -0.355 N 
HETATM   25  H7  UNL     1      24.552   1.571  54.346  1.00  0.00     0.166 HD
BRANCH  24  26
HETATM   26  C8  UNL     1      25.891   0.474  53.469  1.00  0.00     0.034 A 
HETATM   27  C9  UNL     1      26.292  -0.745  52.918  1.00  0.00     0.032 A 
HETATM   28  C10 UNL     1      27.593  -1.173  52.881  1.00  0.00     0.046 A 
HETATM   29  C11 UNL     1      28.598  -0.392  53.404  1.00  0.00     0.138 A 
HETATM   30  F1  UNL     1      29.830  -0.905  53.317  1.00  0.00    -0.204 F 
HETATM   31  C12 UNL     1      28.240   0.829  53.963  1.00  0.00     0.074 A 
HETATM   32 CL1  UNL     1      29.596   1.744  54.600  1.00  0.00    -0.081 Cl
HETATM   33  C13 UNL     1      26.920   1.226  53.981  1.00  0.00     0.056 A 
ENDBRANCH  24  26
ENDBRANCH   7  24
TORSDOF 6
ENDMDL
MODEL 6
REMARK VINA RESULT:      -8.3      3.276      7.015
REMARK  6 active torsions:
REMARK  status: ('A' for Active; 'I' for Inactive)
REMARK    1  A    between atoms: O1_2  and  C2_3 
REMARK    2  A    between atoms: C7_9  and  N2_10 
REMARK    3  A    between atoms: N2_10  and  C8_11 
REMARK    4  A    between atoms: C16_21  and  N3_22 
REMARK       I    between atoms: N3_22  and  C17_23 
REMARK    5  A    between atoms: C17_23  and  C18_25 
REMARK    6  A    between atoms: C18_25  and  N4_26 
ROOT
HETATM    1  C2  UNL     1      22.686   0.895  52.885  1.00  0.00     0.097 A 
HETATM    2  C3  UNL     1      21.390   1.310  52.926  1.00  0.00     0.071 A 
HETATM    3  C4  UNL     1      20.941   2.359  52.151  1.00  0.00     0.071 A 
HETATM    4  N1  UNL     1      19.635   2.632  52.320  1.00  0.00    -0.260 NA
HETATM    5  C5  UNL     1      19.083   3.649  51.605  1.00  0.00     0.119 A 
HETATM    6  C6  UNL     1      19.921   4.329  50.751  1.00  0.00     0.049 A 
HETATM    7  C7  UNL     1      21.257   4.081  50.551  1.00  0.00     0.046 A 
HETATM    8  C14 UNL     1      21.766   3.048  51.293  1.00  0.00     0.022 A 
HETATM    9  C15 UNL     1      23.066   2.601  51.278  1.00  0.00     0.048 A 
HETATM   10  C16 UNL     1      23.560   1.562  52.031  1.00  0.00     0.069 A 
ENDROOT
BRANCH  10  11
HETATM   11  N3  UNL     1      24.918   1.145  51.972  1.00  0.00    -0.323 N 
HETATM   12  C17 UNL     1      25.876   1.831  52.773  1.00  0.00     0.250 C 
HETATM   13  O2  UNL     1      25.285   2.752  53.434  1.00  0.00    -0.271 OA
HETATM   14  H12 UNL     1      25.224   0.341  51.348  1.00  0.00     0.169 HD
BRANCH  12  15
HETATM   15  C18 UNL     1      27.331   1.452  52.769  1.00  0.00     0.375 C 
BRANCH  15  16
HETATM   16  N4  UNL     1      27.597   0.838  54.049  1.00  0.00     0.101 N 
HETATM   17  C19 UNL     1      28.988   0.728  54.376  1.00  0.00     0.299 C 
HETATM   18  C20 UNL     1      29.622  -0.536  53.975  1.00  0.00     0.198 C 
HETATM   19  O3  UNL     1      29.007  -1.333  53.059  1.00  0.00    -0.388 OA
HETATM   20  C21 UNL     1      27.642  -1.358  53.084  1.00  0.00     0.198 C 
HETATM   21  C22 UNL     1      27.022  -0.479  54.128  1.00  0.00     0.299 C 
ENDBRANCH  15  16
ENDBRANCH  12  15
ENDBRANCH  10  11
BRANCH   1  22
HETATM   22  O1  UNL     1      23.178  -0.156  53.647  1.00  0.00    -0.354 OA
HETATM   23  C1  UNL     1      22.267  -0.821  54.509  1.00  0.00     0.210 C 
ENDBRANCH   1  22
BRANCH   7  24
HETATM   24  N2  UNL     1      22.114   4.762  49.664  1.00  0.00    -0.355 N 
HETATM   25  H7  UNL     1      22.004   4.722  48.645  1.00  0.00     0.166 HD
BRANCH  24  26
HETATM   26  C8  UNL     1      23.237   5.601  49.858  1.00  0.00     0.034 A 
HETATM   27  C9  UNL     1      23.293   6.719  50.693  1.00  0.00     0.032 A 
HETATM   28  C10 UNL     1      24.414   7.487  50.863  1.00  0.00     0.046 A 
HETATM   29  C11 UNL     1      25.577   7.182  50.193  1.00  0.00     0.138 A 
HETATM   30  F1  UNL     1      26.610   7.997  50.430  1.00  0.00    -0.204 F 
HETATM   31  C12 UNL     1      25.562   6.076  49.351  1.00  0.00     0.074 A 
HETATM   32 CL1  UNL     1      27.093   5.775  48.546  1.00  0.00    -0.081 Cl
HETATM   33  C13 UNL     1      24.414   5.325  49.207  1.00  0.00     0.056 A 
ENDBRANCH  24  26
ENDBRANCH   7  24
TORSDOF 6
ENDMDL
MODEL 7
REMARK VINA RESULT:      -8.3      3.596      6.595
REMARK  6 active torsions:
REMARK  status: ('A' for Active; 'I' for Inactive)
REMARK    1  A    between atoms: O1_2  and  C2_3 
REMARK    2  A    between atoms: C7_9  and  N2_10 
REMARK    3  A    between atoms: N2_10  and  C8_11 
REMARK    4  A    between atoms: C16_21  and  N3_22 
REMARK       I    between atoms: N3_22  and  C17_23 
REMARK    5  A    between atoms: C17_23  and  C18_25 
REMARK    6  A    between atoms: C18_25  and  N4_26 
ROOT
HETATM    1  C2  UNL     1      22.012   0.414  53.401  1.00  0.00     0.097 A 
HETATM    2  C3  UNL     1      20.935   0.364  52.569  1.00  0.00     0.071 A 
HETATM    3  C4  UNL     1      20.972   0.910  51.303  1.00  0.00     0.071 A 
HETATM    4  N1  UNL     1      19.821   0.769  50.623  1.00  0.00    -0.260 NA
HETATM    5  C5  UNL     1      19.742   1.271  49.361  1.00  0.00     0.119 A 
HETATM    6  C6  UNL     1      20.869   1.895  48.874  1.00  0.00     0.049 A 
HETATM    7  C7  UNL     1      22.060   2.059  49.536  1.00  0.00     0.046 A 
HETATM    8  C14 UNL     1      22.089   1.536  50.803  1.00  0.00     0.022 A 
HETATM    9  C15 UNL     1      23.156   1.569  51.670  1.00  0.00     0.048 A 
HETATM   10  C16 UNL     1      23.167   1.039  52.939  1.00  0.00     0.069 A 
ENDROOT
BRANCH  10  11
HETATM   11  N3  UNL     1      24.304   1.103  53.790  1.00  0.00    -0.323 N 
HETATM   12  C17 UNL     1      25.261   0.048  53.728  1.00  0.00     0.250 C 
HETATM   13  O2  UNL     1      24.881  -0.809  52.858  1.00  0.00    -0.271 OA
HETATM   14  H12 UNL     1      24.449   1.913  54.462  1.00  0.00     0.169 HD
BRANCH  12  15
HETATM   15  C18 UNL     1      26.490   0.040  54.593  1.00  0.00     0.375 C 
BRANCH  15  16
HETATM   16  N4  UNL     1      27.620  -0.050  53.697  1.00  0.00     0.101 N 
HETATM   17  C19 UNL     1      28.895  -0.080  54.351  1.00  0.00     0.299 C 
HETATM   18  C20 UNL     1      29.529   1.232  54.537  1.00  0.00     0.198 C 
HETATM   19  O3  UNL     1      28.778   2.361  54.421  1.00  0.00    -0.388 OA
HETATM   20  C21 UNL     1      27.767   2.336  53.503  1.00  0.00     0.198 C 
HETATM   21  C22 UNL     1      27.633   1.042  52.759  1.00  0.00     0.299 C 
ENDBRANCH  15  16
ENDBRANCH  12  15
ENDBRANCH  10  11
BRANCH   1  22
HETATM   22  O1  UNL     1      22.018  -0.124  54.681  1.00  0.00    -0.354 OA
HETATM   23  C1  UNL     1      21.991  -1.539  54.795  1.00  0.00     0.210 C 
ENDBRANCH   1  22
BRANCH   7  24
HETATM   24  N2  UNL     1      23.221   2.680  49.035  1.00  0.00    -0.355 N 
HETATM   25  H7  UNL     1      23.760   2.299  48.249  1.00  0.00     0.166 HD
BRANCH  24  26
HETATM   26  C8  UNL     1      23.920   3.857  49.395  1.00  0.00     0.034 A 
HETATM   27  C9  UNL     1      25.307   4.018  49.405  1.00  0.00     0.032 A 
HETATM   28  C10 UNL     1      25.936   5.188  49.741  1.00  0.00     0.046 A 
HETATM   29  C11 UNL     1      25.202   6.296  50.097  1.00  0.00     0.138 A 
HETATM   30  F1  UNL     1      25.915   7.384  50.408  1.00  0.00    -0.204 F 
HETATM   31  C12 UNL     1      23.817   6.176  50.100  1.00  0.00     0.074 A 
HETATM   32 CL1  UNL     1      22.978   7.645  50.570  1.00  0.00    -0.081 Cl
HETATM   33  C13 UNL     1      23.220   4.983  49.754  1.00  0.00     0.056 A 
ENDBRANCH  24  26
ENDBRANCH   7  24
TORSDOF 6
ENDMDL
MODEL 8
REMARK VINA RESULT:      -8.3      3.634      5.332
REMARK  6 active torsions:
REMARK  status: ('A' for Active; 'I' for Inactive)
REMARK    1  A    between atoms: O1_2  and  C2_3 
REMARK    2  A    between atoms: C7_9  and  N2_10 
REMARK    3  A    between atoms: N2_10  and  C8_11 
REMARK    4  A    between atoms: C16_21  and  N3_22 
REMARK       I    between atoms: N3_22  and  C17_23 
REMARK    5  A    between atoms: C17_23  and  C18_25 
REMARK    6  A    between atoms: C18_25  and  N4_26 
ROOT
HETATM    1  C2  UNL     1      24.325   5.456  48.702  1.00  0.00     0.097 A 
HETATM    2  C3  UNL     1      23.441   4.445  48.927  1.00  0.00     0.071 A 
HETATM    3  C4  UNL     1      23.670   3.484  49.889  1.00  0.00     0.071 A 
HETATM    4  N1  UNL     1      22.693   2.564  49.974  1.00  0.00    -0.260 NA
HETATM    5  C5  UNL     1      22.814   1.566  50.890  1.00  0.00     0.119 A 
HETATM    6  C6  UNL     1      23.947   1.579  51.671  1.00  0.00     0.049 A 
HETATM    7  C7  UNL     1      24.965   2.499  51.615  1.00  0.00     0.046 A 
HETATM    8  C14 UNL     1      24.797   3.484  50.677  1.00  0.00     0.022 A 
HETATM    9  C15 UNL     1      25.667   4.518  50.421  1.00  0.00     0.048 A 
HETATM   10  C16 UNL     1      25.482   5.498  49.475  1.00  0.00     0.069 A 
ENDROOT
BRANCH  10  11
HETATM   11  N3  UNL     1      26.418   6.545  49.257  1.00  0.00    -0.323 N 
HETATM   12  C17 UNL     1      27.641   6.236  48.592  1.00  0.00     0.250 C 
HETATM   13  O2  UNL     1      27.656   4.991  48.302  1.00  0.00    -0.271 OA
HETATM   14  H12 UNL     1      26.224   7.539  49.578  1.00  0.00     0.169 HD
BRANCH  12  15
HETATM   15  C18 UNL     1      28.684   7.285  48.322  1.00  0.00     0.375 C 
BRANCH  15  16
HETATM   16  N4  UNL     1      29.843   6.587  47.816  1.00  0.00     0.101 N 
HETATM   17  C19 UNL     1      30.699   6.047  48.831  1.00  0.00     0.299 C 
HETATM   18  C20 UNL     1      31.791   6.932  49.259  1.00  0.00     0.198 C 
HETATM   19  O3  UNL     1      31.732   8.259  48.964  1.00  0.00    -0.388 OA
HETATM   20  C21 UNL     1      31.147   8.600  47.778  1.00  0.00     0.198 C 
HETATM   21  C22 UNL     1      30.643   7.440  46.976  1.00  0.00     0.299 C 
ENDBRANCH  15  16
ENDBRANCH  12  15
ENDBRANCH  10  11
BRANCH   1  22
HETATM   22  O1  UNL     1      24.132   6.444  47.745  1.00  0.00    -0.354 OA
HETATM   23  C1  UNL     1      22.980   7.264  47.875  1.00  0.00     0.210 C 
ENDBRANCH   1  22
BRANCH   7  24
HETATM   24  N2  UNL     1      26.118   2.527  52.425  1.00  0.00    -0.355 N 
HETATM   25  H7  UNL     1      26.428   3.370  52.920  1.00  0.00     0.166 HD
BRANCH  24  26
HETATM   26  C8  UNL     1      27.080   1.548  52.772  1.00  0.00     0.034 A 
HETATM   27  C9  UNL     1      28.327   1.792  53.349  1.00  0.00     0.032 A 
HETATM   28  C10 UNL     1      29.216   0.805  53.687  1.00  0.00     0.046 A 
HETATM   29  C11 UNL     1      28.907  -0.517  53.463  1.00  0.00     0.138 A 
HETATM   30  F1  UNL     1      29.845  -1.397  53.829  1.00  0.00    -0.204 F 
HETATM   31  C12 UNL     1      27.674  -0.801  52.889  1.00  0.00     0.074 A 
HETATM   32 CL1  UNL     1      27.381  -2.515  52.647  1.00  0.00    -0.081 Cl
HETATM   33  C13 UNL     1      26.805   0.219  52.564  1.00  0.00     0.056 A 
ENDBRANCH  24  26
ENDBRANCH   7  24
TORSDOF 6
ENDMDL
MODEL 9
REMARK VINA RESULT:      -8.2      2.015      2.315
REMARK  6 active torsions:
REMARK  status: ('A' for Active; 'I' for Inactive)
REMARK    1  A    between atoms: O1_2  and  C2_3 
REMARK    2  A    between atoms: C7_9  and  N2_10 
REMARK    3  A    between atoms: N2_10  and  C8_11 
REMARK    4  A    between atoms: C16_21  and  N3_22 
REMARK       I    between atoms: N3_22  and  C17_23 
REMARK    5  A    between atoms: C17_23  and  C18_25 
REMARK    6  A    between atoms: C18_25  and  N4_26 
ROOT
HETATM    1  C2  UNL     1      21.345   1.828  49.501  1.00  0.00     0.097 A 
HETATM    2  C3  UNL     1      20.710   0.982  50.357  1.00  0.00     0.071 A 
HETATM    3  C4  UNL     1      21.294   0.572  51.538  1.00  0.00     0.071 A 
HETATM    4  N1  UNL     1      20.524  -0.262  52.258  1.00  0.00    -0.260 NA
HETATM    5  C5  UNL     1      21.001  -0.730  53.443  1.00  0.00     0.119 A 
HETATM    6  C6  UNL     1      22.255  -0.304  53.816  1.00  0.00     0.049 A 
HETATM    7  C7  UNL     1      23.071   0.545  53.109  1.00  0.00     0.046 A 
HETATM    8  C14 UNL     1      22.547   0.989  51.923  1.00  0.00     0.022 A 
HETATM    9  C15 UNL     1      23.158   1.842  51.035  1.00  0.00     0.048 A 
HETATM   10  C16 UNL     1      22.617   2.277  49.848  1.00  0.00     0.069 A 
ENDROOT
BRANCH  10  11
HETATM   11  N3  UNL     1      23.299   3.162  48.969  1.00  0.00    -0.323 N 
HETATM   12  C17 UNL     1      23.157   4.566  49.171  1.00  0.00     0.250 C 
HETATM   13  O2  UNL     1      22.388   4.768  50.173  1.00  0.00    -0.271 OA
HETATM   14  H12 UNL     1      23.905   2.797  48.175  1.00  0.00     0.169 HD
BRANCH  12  15
HETATM   15  C18 UNL     1      23.845   5.569  48.287  1.00  0.00     0.375 C 
BRANCH  15  16
HETATM   16  N4  UNL     1      24.397   6.575  49.164  1.00  0.00     0.101 N 
HETATM   17  C19 UNL     1      24.822   7.771  48.499  1.00  0.00     0.299 C 
HETATM   18  C20 UNL     1      26.232   7.785  48.087  1.00  0.00     0.198 C 
HETATM   19  O3  UNL     1      26.925   6.615  48.028  1.00  0.00    -0.388 OA
HETATM   20  C21 UNL     1      26.608   5.666  48.958  1.00  0.00     0.198 C 
HETATM   21  C22 UNL     1      25.519   6.064  49.907  1.00  0.00     0.299 C 
ENDBRANCH  15  16
ENDBRANCH  12  15
ENDBRANCH  10  11
BRANCH   1  22
HETATM   22  O1  UNL     1      20.793   2.265  48.304  1.00  0.00    -0.354 OA
HETATM   23  C1  UNL     1      19.657   3.113  48.380  1.00  0.00     0.210 C 
ENDBRANCH   1  22
BRANCH   7  24
HETATM   24  N2  UNL     1      24.348   0.998  53.495  1.00  0.00    -0.355 N 
HETATM   25  H7  UNL     1      24.503   1.912  53.935  1.00  0.00     0.166 HD
BRANCH  24  26
HETATM   26  C8  UNL     1      25.641   0.427  53.418  1.00  0.00     0.034 A 
HETATM   27  C9  UNL     1      25.968  -0.784  52.806  1.00  0.00     0.032 A 
HETATM   28  C10 UNL     1      27.242  -1.284  52.738  1.00  0.00     0.046 A 
HETATM   29  C11 UNL     1      28.293  -0.589  53.291  1.00  0.00     0.138 A 
HETATM   30  F1  UNL     1      29.493  -1.167  53.171  1.00  0.00    -0.204 F 
HETATM   31  C12 UNL     1      28.008   0.623  53.911  1.00  0.00     0.074 A 
HETATM   32 CL1  UNL     1      29.417   1.426  54.582  1.00  0.00    -0.081 Cl
HETATM   33  C13 UNL     1      26.713   1.094  53.957  1.00  0.00     0.056 A 
ENDBRANCH  24  26
ENDBRANCH   7  24
TORSDOF 6
ENDMDL
