MODEL 1
REMARK VINA RESULT:      -8.4      0.000      0.000
REMARK  0 active torsions:
REMARK  status: ('A' for Active; 'I' for Inactive)
ROOT
HETATM    1 BR1  UNL     1      24.246   4.561  50.296  1.00  0.00    -0.050 Br
HETATM    2  C1  UNL     1      23.197   3.179  49.522  1.00  0.00     0.021 A 
HETATM    3  C2  UNL     1      23.030   2.911  48.201  1.00  0.00     0.020 A 
HETATM    4  C3  UNL     1      22.212   1.901  47.738  1.00  0.00     0.004 A 
HETATM    5  C4  UNL     1      21.498   1.087  48.627  1.00  0.00     0.030 A 
HETATM    6  C5  UNL     1      21.696   1.393  49.924  1.00  0.00     0.043 A 
HETATM    7  C6  UNL     1      22.532   2.422  50.416  1.00  0.00     0.015 A 
HETATM    8  C7  UNL     1      22.748   2.723  51.886  1.00  0.00     0.179 C 
HETATM    9  N1  UNL     1      21.580   3.288  52.509  1.00  0.00    -0.268 NA
HETATM   10  C8  UNL     1      20.295   3.155  52.200  1.00  0.00     0.229 C 
HETATM   11  N2  UNL     1      19.467   1.952  51.969  1.00  0.00    -0.227 NA
HETATM   12  C9  UNL     1      19.958   0.726  51.691  1.00  0.00     0.134 C 
HETATM   13  C10 UNL     1      19.556  -0.215  52.805  1.00  0.00     0.347 C 
HETATM   14  N3  UNL     1      20.764  -0.669  53.460  1.00  0.00     0.094 N 
HETATM   15  C11 UNL     1      21.480   0.402  54.128  1.00  0.00     0.309 C 
HETATM   16  C12 UNL     1      22.812   0.578  53.448  1.00  0.00    -0.022 A 
HETATM   17  C13 UNL     1      23.689  -0.453  53.828  1.00  0.00     0.009 A 
HETATM   18  C14 UNL     1      24.992  -0.640  53.403  1.00  0.00     0.001 A 
HETATM   19  C15 UNL     1      25.454   0.295  52.514  1.00  0.00     0.001 A 
HETATM   20  C16 UNL     1      24.607   1.302  52.138  1.00  0.00     0.010 A 
HETATM   21  C17 UNL     1      23.300   1.507  52.552  1.00  0.00    -0.021 A 
HETATM   22  N4  UNL     1      20.774   0.407  50.521  1.00  0.00    -0.342 N 
HETATM   23  H8  UNL     1      20.670  -1.530  54.001  1.00  0.00     0.316 HD
HETATM   24  H15 UNL     1      20.760  -0.509  50.041  1.00  0.00     0.167 HD
ENDROOT
TORSDOF 0
ENDMDL
MODEL 2
REMARK VINA RESULT:      -7.7      1.563      2.199
REMARK  0 active torsions:
REMARK  status: ('A' for Active; 'I' for Inactive)
ROOT
HETATM    1 BR1  UNL     1      23.378   4.400  52.308  1.00  0.00    -0.050 Br
HETATM    2  C1  UNL     1      22.894   3.407  50.763  1.00  0.00     0.021 A 
HETATM    3  C2  UNL     1      23.510   3.410  49.552  1.00  0.00     0.020 A 
HETATM    4  C3  UNL     1      23.055   2.676  48.476  1.00  0.00     0.004 A 
HETATM    5  C4  UNL     1      21.910   1.876  48.582  1.00  0.00     0.030 A 
HETATM    6  C5  UNL     1      21.335   1.907  49.800  1.00  0.00     0.043 A 
HETATM    7  C6  UNL     1      21.788   2.651  50.914  1.00  0.00     0.015 A 
HETATM    8  C7  UNL     1      21.128   2.644  52.278  1.00  0.00     0.179 C 
HETATM    9  N1  UNL     1      19.852   3.310  52.274  1.00  0.00    -0.268 NA
HETATM   10  C8  UNL     1      18.980   3.487  51.287  1.00  0.00     0.229 C 
HETATM   11  N2  UNL     1      18.371   2.529  50.340  1.00  0.00    -0.227 NA
HETATM   12  C9  UNL     1      18.858   1.298  50.078  1.00  0.00     0.134 C 
HETATM   13  C10 UNL     1      17.826   0.275  50.502  1.00  0.00     0.347 C 
HETATM   14  N3  UNL     1      18.399  -0.513  51.572  1.00  0.00     0.094 N 
HETATM   15  C11 UNL     1      18.655   0.263  52.770  1.00  0.00     0.309 C 
HETATM   16  C12 UNL     1      20.142   0.290  53.008  1.00  0.00    -0.022 A 
HETATM   17  C13 UNL     1      20.570  -0.943  53.531  1.00  0.00     0.009 A 
HETATM   18  C14 UNL     1      21.863  -1.305  53.862  1.00  0.00     0.001 A 
HETATM   19  C15 UNL     1      22.811  -0.338  53.649  1.00  0.00     0.001 A 
HETATM   20  C16 UNL     1      22.403   0.865  53.140  1.00  0.00     0.010 A 
HETATM   21  C17 UNL     1      21.115   1.247  52.802  1.00  0.00    -0.021 A 
HETATM   22  N4  UNL     1      20.180   1.033  49.516  1.00  0.00    -0.342 N 
HETATM   23  H8  UNL     1      17.956  -1.420  51.730  1.00  0.00     0.316 HD
HETATM   24  H15 UNL     1      20.393   0.235  48.892  1.00  0.00     0.167 HD
ENDROOT
TORSDOF 0
ENDMDL
MODEL 3
REMARK VINA RESULT:      -7.6      9.406     11.664
REMARK  0 active torsions:
REMARK  status: ('A' for Active; 'I' for Inactive)
ROOT
HETATM    1 BR1  UNL     1      28.764  10.776  45.014  1.00  0.00    -0.050 Br
HETATM    2  C1  UNL     1      29.413  10.925  46.793  1.00  0.00     0.021 A 
HETATM    3  C2  UNL     1      29.519  12.054  47.541  1.00  0.00     0.020 A 
HETATM    4  C3  UNL     1      30.041  12.061  48.818  1.00  0.00     0.004 A 
HETATM    5  C4  UNL     1      30.498  10.880  49.417  1.00  0.00     0.030 A 
HETATM    6  C5  UNL     1      30.372   9.790  48.636  1.00  0.00     0.043 A 
HETATM    7  C6  UNL     1      29.838   9.763  47.327  1.00  0.00     0.015 A 
HETATM    8  C7  UNL     1      29.691   8.512  46.484  1.00  0.00     0.179 C 
HETATM    9  N1  UNL     1      30.959   7.993  46.045  1.00  0.00    -0.268 NA
HETATM   10  C8  UNL     1      32.166   8.100  46.591  1.00  0.00     0.229 C 
HETATM   11  N2  UNL     1      32.642   7.826  47.963  1.00  0.00    -0.227 NA
HETATM   12  C9  UNL     1      31.843   7.727  49.046  1.00  0.00     0.134 C 
HETATM   13  C10 UNL     1      31.962   6.325  49.603  1.00  0.00     0.347 C 
HETATM   14  N3  UNL     1      30.668   5.689  49.484  1.00  0.00     0.094 N 
HETATM   15  C11 UNL     1      30.257   5.499  48.105  1.00  0.00     0.309 C 
HETATM   16  C12 UNL     1      29.031   6.337  47.856  1.00  0.00    -0.022 A 
HETATM   17  C13 UNL     1      27.904   5.729  48.436  1.00  0.00     0.009 A 
HETATM   18  C14 UNL     1      26.605   6.203  48.432  1.00  0.00     0.001 A 
HETATM   19  C15 UNL     1      26.424   7.398  47.786  1.00  0.00     0.001 A 
HETATM   20  C16 UNL     1      27.515   7.997  47.219  1.00  0.00     0.010 A 
HETATM   21  C17 UNL     1      28.823   7.539  47.211  1.00  0.00    -0.021 A 
HETATM   22  N4  UNL     1      30.987   8.801  49.544  1.00  0.00    -0.342 N 
HETATM   23  H8  UNL     1      30.520   4.884  50.094  1.00  0.00     0.316 HD
HETATM   24  H15 UNL     1      30.760   8.943  50.544  1.00  0.00     0.167 HD
ENDROOT
TORSDOF 0
ENDMDL
MODEL 4
REMARK VINA RESULT:      -7.5      2.750      5.759
REMARK  0 active torsions:
REMARK  status: ('A' for Active; 'I' for Inactive)
ROOT
HETATM    1 BR1  UNL     1      22.695   0.466  52.498  1.00  0.00    -0.050 Br
HETATM    2  C1  UNL     1      24.300   1.319  51.947  1.00  0.00     0.021 A 
HETATM    3  C2  UNL     1      25.572   0.870  52.108  1.00  0.00     0.020 A 
HETATM    4  C3  UNL     1      26.678   1.587  51.703  1.00  0.00     0.004 A 
HETATM    5  C4  UNL     1      26.541   2.841  51.092  1.00  0.00     0.030 A 
HETATM    6  C5  UNL     1      25.262   3.242  50.955  1.00  0.00     0.043 A 
HETATM    7  C6  UNL     1      24.116   2.520  51.363  1.00  0.00     0.015 A 
HETATM    8  C7  UNL     1      22.690   2.994  51.172  1.00  0.00     0.179 C 
HETATM    9  N1  UNL     1      22.364   4.111  52.018  1.00  0.00    -0.268 NA
HETATM   10  C8  UNL     1      23.146   5.050  52.539  1.00  0.00     0.229 C 
HETATM   11  N2  UNL     1      24.145   5.943  51.914  1.00  0.00    -0.227 NA
HETATM   12  C9  UNL     1      24.708   5.735  50.705  1.00  0.00     0.134 C 
HETATM   13  C10 UNL     1      24.322   6.880  49.794  1.00  0.00     0.347 C 
HETATM   14  N3  UNL     1      23.525   6.337  48.715  1.00  0.00     0.094 N 
HETATM   15  C11 UNL     1      22.260   5.790  49.167  1.00  0.00     0.309 C 
HETATM   16  C12 UNL     1      22.264   4.307  48.905  1.00  0.00    -0.022 A 
HETATM   17  C13 UNL     1      22.057   4.058  47.537  1.00  0.00     0.009 A 
HETATM   18  C14 UNL     1      22.012   2.826  46.910  1.00  0.00     0.001 A 
HETATM   19  C15 UNL     1      22.191   1.747  47.736  1.00  0.00     0.001 A 
HETATM   20  C16 UNL     1      22.393   1.980  49.069  1.00  0.00     0.010 A 
HETATM   21  C17 UNL     1      22.442   3.204  49.716  1.00  0.00    -0.021 A 
HETATM   22  N4  UNL     1      25.515   4.568  50.358  1.00  0.00    -0.342 N 
HETATM   23  H8  UNL     1      23.470   6.921  47.878  1.00  0.00     0.316 HD
HETATM   24  H15 UNL     1      26.303   4.590  49.687  1.00  0.00     0.167 HD
ENDROOT
TORSDOF 0
ENDMDL
MODEL 5
REMARK VINA RESULT:      -7.0      2.071      4.503
REMARK  0 active torsions:
REMARK  status: ('A' for Active; 'I' for Inactive)
ROOT
HETATM    1 BR1  UNL     1      25.384  -0.184  52.360  1.00  0.00    -0.050 Br
HETATM    2  C1  UNL     1      23.776  -0.213  53.371  1.00  0.00     0.021 A 
HETATM    3  C2  UNL     1      23.515  -0.943  54.486  1.00  0.00     0.020 A 
HETATM    4  C3  UNL     1      22.294  -0.921  55.129  1.00  0.00     0.004 A 
HETATM    5  C4  UNL     1      21.242  -0.128  54.652  1.00  0.00     0.030 A 
HETATM    6  C5  UNL     1      21.550   0.576  53.546  1.00  0.00     0.043 A 
HETATM    7  C6  UNL     1      22.795   0.567  52.875  1.00  0.00     0.015 A 
HETATM    8  C7  UNL     1      23.113   1.391  51.644  1.00  0.00     0.179 C 
HETATM    9  N1  UNL     1      22.410   0.928  50.476  1.00  0.00    -0.268 NA
HETATM   10  C8  UNL     1      21.255   0.281  50.372  1.00  0.00     0.229 C 
HETATM   11  N2  UNL     1      19.920   0.571  50.937  1.00  0.00    -0.227 NA
HETATM   12  C9  UNL     1      19.693   1.400  51.978  1.00  0.00     0.134 C 
HETATM   13  C10 UNL     1      18.835   2.550  51.496  1.00  0.00     0.347 C 
HETATM   14  N3  UNL     1      19.609   3.765  51.627  1.00  0.00     0.094 N 
HETATM   15  C11 UNL     1      20.771   3.791  50.759  1.00  0.00     0.309 C 
HETATM   16  C12 UNL     1      22.006   3.804  51.622  1.00  0.00    -0.022 A 
HETATM   17  C13 UNL     1      22.198   5.083  52.171  1.00  0.00     0.009 A 
HETATM   18  C14 UNL     1      23.212   5.482  53.023  1.00  0.00     0.001 A 
HETATM   19  C15 UNL     1      24.114   4.504  53.352  1.00  0.00     0.001 A 
HETATM   20  C16 UNL     1      23.934   3.255  52.822  1.00  0.00     0.010 A 
HETATM   21  C17 UNL     1      22.927   2.836  51.968  1.00  0.00    -0.021 A 
HETATM   22  N4  UNL     1      20.236   1.210  53.321  1.00  0.00    -0.342 N 
HETATM   23  H8  UNL     1      19.064   4.629  51.646  1.00  0.00     0.316 HD
HETATM   24  H15 UNL     1      19.748   1.497  54.187  1.00  0.00     0.167 HD
ENDROOT
TORSDOF 0
ENDMDL
MODEL 6
REMARK VINA RESULT:      -7.0      3.552      5.903
REMARK  0 active torsions:
REMARK  status: ('A' for Active; 'I' for Inactive)
ROOT
HETATM    1 BR1  UNL     1      21.590   1.443  48.655  1.00  0.00    -0.050 Br
HETATM    2  C1  UNL     1      21.507   2.538  50.206  1.00  0.00     0.021 A 
HETATM    3  C2  UNL     1      20.956   2.227  51.408  1.00  0.00     0.020 A 
HETATM    4  C3  UNL     1      20.914   3.111  52.466  1.00  0.00     0.004 A 
HETATM    5  C4  UNL     1      21.447   4.402  52.348  1.00  0.00     0.030 A 
HETATM    6  C5  UNL     1      21.980   4.662  51.138  1.00  0.00     0.043 A 
HETATM    7  C6  UNL     1      22.034   3.768  50.044  1.00  0.00     0.015 A 
HETATM    8  C7  UNL     1      22.663   4.088  48.703  1.00  0.00     0.179 C 
HETATM    9  N1  UNL     1      21.902   5.054  47.956  1.00  0.00    -0.268 NA
HETATM   10  C8  UNL     1      21.084   6.013  48.377  1.00  0.00     0.229 C 
HETATM   11  N2  UNL     1      21.272   7.084  49.378  1.00  0.00    -0.227 NA
HETATM   12  C9  UNL     1      22.231   7.084  50.329  1.00  0.00     0.134 C 
HETATM   13  C10 UNL     1      23.138   8.273  50.093  1.00  0.00     0.347 C 
HETATM   14  N3  UNL     1      24.457   7.767  49.781  1.00  0.00     0.094 N 
HETATM   15  C11 UNL     1      24.498   7.026  48.534  1.00  0.00     0.309 C 
HETATM   16  C12 UNL     1      24.844   5.593  48.846  1.00  0.00    -0.022 A 
HETATM   17  C13 UNL     1      26.215   5.480  49.134  1.00  0.00     0.009 A 
HETATM   18  C14 UNL     1      26.904   4.331  49.480  1.00  0.00     0.001 A 
HETATM   19  C15 UNL     1      26.142   3.193  49.540  1.00  0.00     0.001 A 
HETATM   20  C16 UNL     1      24.807   3.294  49.261  1.00  0.00     0.010 A 
HETATM   21  C17 UNL     1      24.099   4.434  48.913  1.00  0.00    -0.021 A 
HETATM   22  N4  UNL     1      22.364   6.069  51.370  1.00  0.00    -0.342 N 
HETATM   23  H8  UNL     1      25.221   8.432  49.913  1.00  0.00     0.316 HD
HETATM   24  H15 UNL     1      22.726   6.260  52.320  1.00  0.00     0.167 HD
ENDROOT
TORSDOF 0
ENDMDL
MODEL 7
REMARK VINA RESULT:      -6.8      8.353     10.694
REMARK  0 active torsions:
REMARK  status: ('A' for Active; 'I' for Inactive)
ROOT
HETATM    1 BR1  UNL     1      25.911  10.023  45.300  1.00  0.00    -0.050 Br
HETATM    2  C1  UNL     1      26.949  10.513  46.814  1.00  0.00     0.021 A 
HETATM    3  C2  UNL     1      26.947  11.705  47.465  1.00  0.00     0.020 A 
HETATM    4  C3  UNL     1      27.771  11.975  48.538  1.00  0.00     0.004 A 
HETATM    5  C4  UNL     1      28.669  11.012  49.018  1.00  0.00     0.030 A 
HETATM    6  C5  UNL     1      28.633   9.848  48.339  1.00  0.00     0.043 A 
HETATM    7  C6  UNL     1      27.795   9.554  47.239  1.00  0.00     0.015 A 
HETATM    8  C7  UNL     1      27.765   8.224  46.513  1.00  0.00     0.179 C 
HETATM    9  N1  UNL     1      28.960   7.991  45.746  1.00  0.00    -0.268 NA
HETATM   10  C8  UNL     1      30.195   8.449  45.921  1.00  0.00     0.229 C 
HETATM   11  N2  UNL     1      31.077   8.445  47.107  1.00  0.00    -0.227 NA
HETATM   12  C9  UNL     1      30.653   8.267  48.376  1.00  0.00     0.134 C 
HETATM   13  C10 UNL     1      31.286   7.004  48.919  1.00  0.00     0.347 C 
HETATM   14  N3  UNL     1      30.224   6.060  49.194  1.00  0.00     0.094 N 
HETATM   15  C11 UNL     1      29.526   5.630  47.997  1.00  0.00     0.309 C 
HETATM   16  C12 UNL     1      28.100   6.110  48.083  1.00  0.00    -0.022 A 
HETATM   17  C13 UNL     1      27.374   5.307  48.979  1.00  0.00     0.009 A 
HETATM   18  C14 UNL     1      26.044   5.443  49.333  1.00  0.00     0.001 A 
HETATM   19  C15 UNL     1      25.385   6.482  48.728  1.00  0.00     0.001 A 
HETATM   20  C16 UNL     1      26.084   7.269  47.855  1.00  0.00     0.010 A 
HETATM   21  C17 UNL     1      27.415   7.150  47.488  1.00  0.00    -0.021 A 
HETATM   22  N4  UNL     1      29.709   9.143  49.064  1.00  0.00    -0.342 N 
HETATM   23  H8  UNL     1      30.465   5.311  49.846  1.00  0.00     0.316 HD
HETATM   24  H15 UNL     1      29.729   9.328  50.082  1.00  0.00     0.167 HD
ENDROOT
TORSDOF 0
ENDMDL
MODEL 8
REMARK VINA RESULT:      -6.6      2.479      4.981
REMARK  0 active torsions:
REMARK  status: ('A' for Active; 'I' for Inactive)
ROOT
HETATM    1 BR1  UNL     1      26.395   3.260  49.703  1.00  0.00    -0.050 Br
HETATM    2  C1  UNL     1      25.110   2.547  50.907  1.00  0.00     0.021 A 
HETATM    3  C2  UNL     1      25.345   1.818  52.029  1.00  0.00     0.020 A 
HETATM    4  C3  UNL     1      24.334   1.312  52.820  1.00  0.00     0.004 A 
HETATM    5  C4  UNL     1      22.988   1.528  52.496  1.00  0.00     0.030 A 
HETATM    6  C5  UNL     1      22.808   2.254  51.376  1.00  0.00     0.043 A 
HETATM    7  C6  UNL     1      23.830   2.783  50.555  1.00  0.00     0.015 A 
HETATM    8  C7  UNL     1      23.590   3.616  49.312  1.00  0.00     0.179 C 
HETATM    9  N1  UNL     1      23.035   2.843  48.232  1.00  0.00    -0.268 NA
HETATM   10  C8  UNL     1      22.293   1.742  48.258  1.00  0.00     0.229 C 
HETATM   11  N2  UNL     1      21.051   1.420  48.992  1.00  0.00    -0.227 NA
HETATM   12  C9  UNL     1      20.603   2.095  50.072  1.00  0.00     0.134 C 
HETATM   13  C10 UNL     1      19.267   2.716  49.727  1.00  0.00     0.347 C 
HETATM   14  N3  UNL     1      19.418   4.154  49.788  1.00  0.00     0.094 N 
HETATM   15  C11 UNL     1      20.329   4.669  48.781  1.00  0.00     0.309 C 
HETATM   16  C12 UNL     1      21.519   5.268  49.483  1.00  0.00    -0.022 A 
HETATM   17  C13 UNL     1      21.179   6.516  50.032  1.00  0.00     0.009 A 
HETATM   18  C14 UNL     1      21.998   7.360  50.760  1.00  0.00     0.001 A 
HETATM   19  C15 UNL     1      23.277   6.906  50.951  1.00  0.00     0.001 A 
HETATM   20  C16 UNL     1      23.617   5.691  50.420  1.00  0.00     0.010 A 
HETATM   21  C17 UNL     1      22.813   4.832  49.689  1.00  0.00    -0.021 A 
HETATM   22  N4  UNL     1      21.332   2.219  51.331  1.00  0.00    -0.342 N 
HETATM   23  H8  UNL     1      18.549   4.679  49.894  1.00  0.00     0.316 HD
HETATM   24  H15 UNL     1      20.877   2.287  52.258  1.00  0.00     0.167 HD
ENDROOT
TORSDOF 0
ENDMDL
MODEL 9
REMARK VINA RESULT:      -6.6      2.559      4.482
REMARK  0 active torsions:
REMARK  status: ('A' for Active; 'I' for Inactive)
ROOT
HETATM    1 BR1  UNL     1      21.038   4.053  46.830  1.00  0.00    -0.050 Br
HETATM    2  C1  UNL     1      21.125   4.980  48.487  1.00  0.00     0.021 A 
HETATM    3  C2  UNL     1      20.633   6.214  48.769  1.00  0.00     0.020 A 
HETATM    4  C3  UNL     1      20.782   6.817  50.001  1.00  0.00     0.004 A 
HETATM    5  C4  UNL     1      21.463   6.172  51.042  1.00  0.00     0.030 A 
HETATM    6  C5  UNL     1      21.931   4.952  50.713  1.00  0.00     0.043 A 
HETATM    7  C6  UNL     1      21.786   4.318  49.457  1.00  0.00     0.015 A 
HETATM    8  C7  UNL     1      22.308   2.934  49.128  1.00  0.00     0.179 C 
HETATM    9  N1  UNL     1      23.744   2.891  49.055  1.00  0.00    -0.268 NA
HETATM   10  C8  UNL     1      24.657   3.651  49.651  1.00  0.00     0.229 C 
HETATM   11  N2  UNL     1      24.841   4.021  51.070  1.00  0.00    -0.227 NA
HETATM   12  C9  UNL     1      23.885   3.920  52.018  1.00  0.00     0.134 C 
HETATM   13  C10 UNL     1      24.350   2.932  53.065  1.00  0.00     0.347 C 
HETATM   14  N3  UNL     1      23.439   1.808  53.049  1.00  0.00     0.094 N 
HETATM   15  C11 UNL     1      23.481   1.065  51.803  1.00  0.00     0.309 C 
HETATM   16  C12 UNL     1      22.141   1.196  51.128  1.00  0.00    -0.022 A 
HETATM   17  C13 UNL     1      21.197   0.372  51.765  1.00  0.00     0.009 A 
HETATM   18  C14 UNL     1      19.859   0.233  51.443  1.00  0.00     0.001 A 
HETATM   19  C15 UNL     1      19.434   0.991  50.383  1.00  0.00     0.001 A 
HETATM   20  C16 UNL     1      20.346   1.796  49.758  1.00  0.00     0.010 A 
HETATM   21  C17 UNL     1      21.689   1.950  50.064  1.00  0.00    -0.021 A 
HETATM   22  N4  UNL     1      22.609   4.631  51.984  1.00  0.00    -0.342 N 
HETATM   23  H8  UNL     1      23.439   1.235  53.895  1.00  0.00     0.316 HD
HETATM   24  H15 UNL     1      22.104   4.952  52.829  1.00  0.00     0.167 HD
ENDROOT
TORSDOF 0
ENDMDL
