MODEL 1
REMARK VINA RESULT:      -7.5      0.000      0.000
REMARK  5 active torsions:
REMARK  status: ('A' for Active; 'I' for Inactive)
REMARK    1  A    between atoms: C5_5  and  C6_6 
REMARK    2  A    between atoms: C7_7  and  N1_8 
REMARK    3  A    between atoms: N1_8  and  C9_10 
REMARK    4  A    between atoms: C13_16  and  O1_17 
REMARK    5  A    between atoms: C15_19  and  O2_20 
ROOT
HETATM    1  C1  UNL     1      27.280   4.294  49.000  1.00  0.00     0.017 C 
HETATM    2  C2  UNL     1      26.095   4.216  49.142  1.00  0.00    -0.083 C 
HETATM    3  C3  UNL     1      24.667   4.127  49.306  1.00  0.00    -0.009 C 
HETATM    4  C4  UNL     1      23.796   5.263  48.925  1.00  0.00     0.058 C 
HETATM    5  C5  UNL     1      24.088   3.030  49.799  1.00  0.00     0.017 C 
ENDROOT
BRANCH   5   6
HETATM    6  C6  UNL     1      22.643   2.870  49.993  1.00  0.00     0.018 C 
HETATM    7  C7  UNL     1      22.098   2.857  51.203  1.00  0.00     0.092 C 
BRANCH   7   8
HETATM    8  N1  UNL     1      22.971   3.005  52.320  1.00  0.00    -0.345 N 
HETATM    9  C8  UNL     1      23.405   4.355  52.630  1.00  0.00     0.157 C 
BRANCH   8  10
HETATM   10  C9  UNL     1      23.186   1.700  52.853  1.00  0.00     0.143 A 
HETATM   11  N2  UNL     1      22.122   0.930  53.215  1.00  0.00    -0.223 NA
HETATM   12  C10 UNL     1      22.220  -0.293  53.720  1.00  0.00     0.236 A 
HETATM   13  N3  UNL     1      23.430  -0.829  53.896  1.00  0.00    -0.241 NA
HETATM   14  C11 UNL     1      24.544  -0.156  53.572  1.00  0.00     0.075 A 
HETATM   15  C12 UNL     1      25.818  -0.665  53.734  1.00  0.00     0.072 A 
HETATM   16  C18 UNL     1      24.416   1.113  53.049  1.00  0.00     0.042 A 
HETATM   17  C13 UNL     1      26.948   0.049  53.392  1.00  0.00     0.103 A 
HETATM   18  C15 UNL     1      26.819   1.329  52.864  1.00  0.00     0.102 A 
HETATM   19  C17 UNL     1      25.528   1.821  52.710  1.00  0.00     0.057 A 
BRANCH  17  20
HETATM   20  O1  UNL     1      28.239  -0.438  53.543  1.00  0.00    -0.353 OA
HETATM   21  C14 UNL     1      28.676  -1.713  53.190  1.00  0.00     0.210 C 
ENDBRANCH  17  20
BRANCH  18  22
HETATM   22  O2  UNL     1      27.967   2.053  52.517  1.00  0.00    -0.353 OA
HETATM   23  C16 UNL     1      28.756   2.557  53.595  1.00  0.00     0.210 C 
ENDBRANCH  18  22
ENDBRANCH   8  10
ENDBRANCH   7   8
ENDBRANCH   5   6
TORSDOF 5
ENDMDL
MODEL 2
REMARK VINA RESULT:      -7.1      3.008      6.095
REMARK  5 active torsions:
REMARK  status: ('A' for Active; 'I' for Inactive)
REMARK    1  A    between atoms: C5_5  and  C6_6 
REMARK    2  A    between atoms: C7_7  and  N1_8 
REMARK    3  A    between atoms: N1_8  and  C9_10 
REMARK    4  A    between atoms: C13_16  and  O1_17 
REMARK    5  A    between atoms: C15_19  and  O2_20 
ROOT
HETATM    1  C1  UNL     1      29.266  -2.480  53.102  1.00  0.00     0.017 C 
HETATM    2  C2  UNL     1      28.885  -1.392  53.421  1.00  0.00    -0.083 C 
HETATM    3  C3  UNL     1      28.432  -0.078  53.799  1.00  0.00    -0.009 C 
HETATM    4  C4  UNL     1      29.385   1.054  53.865  1.00  0.00     0.058 C 
HETATM    5  C5  UNL     1      27.152   0.160  54.097  1.00  0.00     0.017 C 
ENDROOT
BRANCH   5   6
HETATM    6  C6  UNL     1      26.622   1.470  54.489  1.00  0.00     0.018 C 
HETATM    7  C7  UNL     1      25.730   2.113  53.747  1.00  0.00     0.092 C 
BRANCH   7   8
HETATM    8  N1  UNL     1      25.297   1.482  52.544  1.00  0.00    -0.345 N 
HETATM    9  C8  UNL     1      26.195   1.568  51.407  1.00  0.00     0.157 C 
BRANCH   8  10
HETATM   10  C9  UNL     1      24.021   0.906  52.813  1.00  0.00     0.143 A 
HETATM   11  N2  UNL     1      23.935  -0.385  53.239  1.00  0.00    -0.223 NA
HETATM   12  C10 UNL     1      22.797  -1.009  53.514  1.00  0.00     0.236 A 
HETATM   13  N3  UNL     1      21.644  -0.350  53.373  1.00  0.00    -0.241 NA
HETATM   14  C11 UNL     1      21.616   0.926  52.960  1.00  0.00     0.075 A 
HETATM   15  C12 UNL     1      20.451   1.651  52.799  1.00  0.00     0.072 A 
HETATM   16  C18 UNL     1      22.812   1.551  52.681  1.00  0.00     0.042 A 
HETATM   17  C13 UNL     1      20.452   2.964  52.373  1.00  0.00     0.103 A 
HETATM   18  C15 UNL     1      21.658   3.595  52.091  1.00  0.00     0.102 A 
HETATM   19  C17 UNL     1      22.817   2.846  52.260  1.00  0.00     0.057 A 
BRANCH  17  20
HETATM   20  O1  UNL     1      19.298   3.716  52.203  1.00  0.00    -0.353 OA
HETATM   21  C14 UNL     1      18.210   3.371  51.404  1.00  0.00     0.210 C 
ENDBRANCH  17  20
BRANCH  18  22
HETATM   22  O2  UNL     1      21.657   4.927  51.659  1.00  0.00    -0.353 OA
HETATM   23  C16 UNL     1      22.931   5.518  51.402  1.00  0.00     0.210 C 
ENDBRANCH  18  22
ENDBRANCH   8  10
ENDBRANCH   7   8
ENDBRANCH   5   6
TORSDOF 5
ENDMDL
MODEL 3
REMARK VINA RESULT:      -7.1      2.101      3.244
REMARK  5 active torsions:
REMARK  status: ('A' for Active; 'I' for Inactive)
REMARK    1  A    between atoms: C5_5  and  C6_6 
REMARK    2  A    between atoms: C7_7  and  N1_8 
REMARK    3  A    between atoms: N1_8  and  C9_10 
REMARK    4  A    between atoms: C13_16  and  O1_17 
REMARK    5  A    between atoms: C15_19  and  O2_20 
ROOT
HETATM    1  C1  UNL     1      22.664   2.152  47.500  1.00  0.00     0.017 C 
HETATM    2  C2  UNL     1      21.703   1.979  48.191  1.00  0.00    -0.083 C 
HETATM    3  C3  UNL     1      20.542   1.771  49.017  1.00  0.00    -0.009 C 
HETATM    4  C4  UNL     1      19.297   2.535  48.766  1.00  0.00     0.058 C 
HETATM    5  C5  UNL     1      20.548   0.893  50.023  1.00  0.00     0.017 C 
ENDROOT
BRANCH   5   6
HETATM    6  C6  UNL     1      19.403   0.632  50.902  1.00  0.00     0.018 C 
HETATM    7  C7  UNL     1      19.384   1.042  52.164  1.00  0.00     0.092 C 
BRANCH   7   8
HETATM    8  N1  UNL     1      20.523   1.754  52.642  1.00  0.00    -0.345 N 
HETATM    9  C8  UNL     1      20.545   3.184  52.396  1.00  0.00     0.157 C 
BRANCH   8  10
HETATM   10  C9  UNL     1      21.375   0.798  53.269  1.00  0.00     0.143 A 
HETATM   11  N2  UNL     1      20.861  -0.081  54.174  1.00  0.00    -0.223 NA
HETATM   12  C10 UNL     1      21.571  -1.003  54.809  1.00  0.00     0.236 A 
HETATM   13  N3  UNL     1      22.880  -1.099  54.564  1.00  0.00    -0.241 NA
HETATM   14  C11 UNL     1      23.487  -0.284  53.690  1.00  0.00     0.075 A 
HETATM   15  C12 UNL     1      24.837  -0.342  53.400  1.00  0.00     0.072 A 
HETATM   16  C18 UNL     1      22.727   0.667  53.043  1.00  0.00     0.042 A 
HETATM   17  C13 UNL     1      25.435   0.511  52.496  1.00  0.00     0.103 A 
HETATM   18  C15 UNL     1      24.669   1.470  51.843  1.00  0.00     0.102 A 
HETATM   19  C17 UNL     1      23.313   1.510  52.150  1.00  0.00     0.057 A 
BRANCH  17  20
HETATM   20  O1  UNL     1      26.788   0.473  52.186  1.00  0.00    -0.353 OA
HETATM   21  C14 UNL     1      27.833   0.380  53.102  1.00  0.00     0.210 C 
ENDBRANCH  17  20
BRANCH  18  22
HETATM   22  O2  UNL     1      25.278   2.334  50.925  1.00  0.00    -0.353 OA
HETATM   23  C16 UNL     1      24.672   3.615  50.752  1.00  0.00     0.210 C 
ENDBRANCH  18  22
ENDBRANCH   8  10
ENDBRANCH   7   8
ENDBRANCH   5   6
TORSDOF 5
ENDMDL
MODEL 4
REMARK VINA RESULT:      -6.9      1.595      2.411
REMARK  5 active torsions:
REMARK  status: ('A' for Active; 'I' for Inactive)
REMARK    1  A    between atoms: C5_5  and  C6_6 
REMARK    2  A    between atoms: C7_7  and  N1_8 
REMARK    3  A    between atoms: N1_8  and  C9_10 
REMARK    4  A    between atoms: C13_16  and  O1_17 
REMARK    5  A    between atoms: C15_19  and  O2_20 
ROOT
HETATM    1  C1  UNL     1      25.110   4.625  49.908  1.00  0.00     0.017 C 
HETATM    2  C2  UNL     1      24.239   4.435  50.705  1.00  0.00    -0.083 C 
HETATM    3  C3  UNL     1      23.191   4.214  51.669  1.00  0.00    -0.009 C 
HETATM    4  C4  UNL     1      23.309   4.756  53.042  1.00  0.00     0.058 C 
HETATM    5  C5  UNL     1      22.092   3.524  51.359  1.00  0.00     0.017 C 
ENDROOT
BRANCH   5   6
HETATM    6  C6  UNL     1      20.988   3.261  52.288  1.00  0.00     0.018 C 
HETATM    7  C7  UNL     1      20.587   2.028  52.566  1.00  0.00     0.092 C 
BRANCH   7   8
HETATM    8  N1  UNL     1      21.273   0.953  51.927  1.00  0.00    -0.345 N 
HETATM    9  C8  UNL     1      21.299   0.972  50.476  1.00  0.00     0.157 C 
BRANCH   8  10
HETATM   10  C9  UNL     1      21.774   0.107  52.960  1.00  0.00     0.143 A 
HETATM   11  N2  UNL     1      20.940  -0.774  53.580  1.00  0.00    -0.223 NA
HETATM   12  C10 UNL     1      21.310  -1.599  54.550  1.00  0.00     0.236 A 
HETATM   13  N3  UNL     1      22.579  -1.586  54.966  1.00  0.00    -0.241 NA
HETATM   14  C11 UNL     1      23.482  -0.757  54.423  1.00  0.00     0.075 A 
HETATM   15  C12 UNL     1      24.805  -0.705  54.816  1.00  0.00     0.072 A 
HETATM   16  C18 UNL     1      23.072   0.091  53.416  1.00  0.00     0.042 A 
HETATM   17  C13 UNL     1      25.714   0.158  54.238  1.00  0.00     0.103 A 
HETATM   18  C15 UNL     1      25.301   1.014  53.223  1.00  0.00     0.102 A 
HETATM   19  C17 UNL     1      23.965   0.944  52.844  1.00  0.00     0.057 A 
BRANCH  17  20
HETATM   20  O1  UNL     1      27.048   0.231  54.614  1.00  0.00    -0.353 OA
HETATM   21  C14 UNL     1      28.106  -0.437  54.000  1.00  0.00     0.210 C 
ENDBRANCH  17  20
BRANCH  18  22
HETATM   22  O2  UNL     1      26.224   1.890  52.638  1.00  0.00    -0.353 OA
HETATM   23  C16 UNL     1      26.625   1.597  51.300  1.00  0.00     0.210 C 
ENDBRANCH  18  22
ENDBRANCH   8  10
ENDBRANCH   7   8
ENDBRANCH   5   6
TORSDOF 5
ENDMDL
MODEL 5
REMARK VINA RESULT:      -6.6      1.978      3.585
REMARK  5 active torsions:
REMARK  status: ('A' for Active; 'I' for Inactive)
REMARK    1  A    between atoms: C5_5  and  C6_6 
REMARK    2  A    between atoms: C7_7  and  N1_8 
REMARK    3  A    between atoms: N1_8  and  C9_10 
REMARK    4  A    between atoms: C13_16  and  O1_17 
REMARK    5  A    between atoms: C15_19  and  O2_20 
ROOT
HETATM    1  C1  UNL     1      20.966   5.229  47.467  1.00  0.00     0.017 C 
HETATM    2  C2  UNL     1      21.289   4.143  47.853  1.00  0.00    -0.083 C 
HETATM    3  C3  UNL     1      21.687   2.838  48.314  1.00  0.00    -0.009 C 
HETATM    4  C4  UNL     1      22.586   1.994  47.493  1.00  0.00     0.058 C 
HETATM    5  C5  UNL     1      21.265   2.353  49.484  1.00  0.00     0.017 C 
ENDROOT
BRANCH   5   6
HETATM    6  C6  UNL     1      21.629   1.035  50.015  1.00  0.00     0.018 C 
HETATM    7  C7  UNL     1      22.364   0.902  51.112  1.00  0.00     0.092 C 
BRANCH   7   8
HETATM    8  N1  UNL     1      22.792   2.095  51.765  1.00  0.00    -0.345 N 
HETATM    9  C8  UNL     1      21.780   2.833  52.497  1.00  0.00     0.157 C 
BRANCH   8  10
HETATM   10  C9  UNL     1      24.186   2.236  51.498  1.00  0.00     0.143 A 
HETATM   11  N2  UNL     1      24.606   3.077  50.512  1.00  0.00    -0.223 NA
HETATM   12  C10 UNL     1      25.878   3.275  50.189  1.00  0.00     0.236 A 
HETATM   13  N3  UNL     1      26.829   2.619  50.859  1.00  0.00    -0.241 NA
HETATM   14  C11 UNL     1      26.523   1.767  51.848  1.00  0.00     0.075 A 
HETATM   15  C12 UNL     1      27.468   1.065  52.571  1.00  0.00     0.072 A 
HETATM   16  C18 UNL     1      25.195   1.579  52.165  1.00  0.00     0.042 A 
HETATM   17  C13 UNL     1      27.125   0.194  53.585  1.00  0.00     0.103 A 
HETATM   18  C15 UNL     1      25.785   0.004  53.905  1.00  0.00     0.102 A 
HETATM   19  C17 UNL     1      24.852   0.721  53.165  1.00  0.00     0.057 A 
BRANCH  17  20
HETATM   20  O1  UNL     1      28.053  -0.523  54.328  1.00  0.00    -0.353 OA
HETATM   21  C14 UNL     1      29.337  -0.870  53.912  1.00  0.00     0.210 C 
ENDBRANCH  17  20
BRANCH  18  22
HETATM   22  O2  UNL     1      25.438  -0.880  54.935  1.00  0.00    -0.353 OA
HETATM   23  C16 UNL     1      24.051  -1.180  55.080  1.00  0.00     0.210 C 
ENDBRANCH  18  22
ENDBRANCH   8  10
ENDBRANCH   7   8
ENDBRANCH   5   6
TORSDOF 5
ENDMDL
MODEL 6
REMARK VINA RESULT:      -6.5      2.171      4.447
REMARK  5 active torsions:
REMARK  status: ('A' for Active; 'I' for Inactive)
REMARK    1  A    between atoms: C5_5  and  C6_6 
REMARK    2  A    between atoms: C7_7  and  N1_8 
REMARK    3  A    between atoms: N1_8  and  C9_10 
REMARK    4  A    between atoms: C13_16  and  O1_17 
REMARK    5  A    between atoms: C15_19  and  O2_20 
ROOT
HETATM    1  C1  UNL     1      20.226  -0.020  52.966  1.00  0.00     0.017 C 
HETATM    2  C2  UNL     1      20.562   0.665  52.044  1.00  0.00    -0.083 C 
HETATM    3  C3  UNL     1      20.963   1.483  50.929  1.00  0.00    -0.009 C 
HETATM    4  C4  UNL     1      21.433   0.859  49.671  1.00  0.00     0.058 C 
HETATM    5  C5  UNL     1      20.923   2.817  50.991  1.00  0.00     0.017 C 
ENDROOT
BRANCH   5   6
HETATM    6  C6  UNL     1      21.316   3.710  49.897  1.00  0.00     0.018 C 
HETATM    7  C7  UNL     1      22.375   4.504  49.989  1.00  0.00     0.092 C 
BRANCH   7   8
HETATM    8  N1  UNL     1      23.127   4.459  51.199  1.00  0.00    -0.345 N 
HETATM    9  C8  UNL     1      22.444   4.891  52.404  1.00  0.00     0.157 C 
BRANCH   8  10
HETATM   10  C9  UNL     1      24.424   3.970  50.863  1.00  0.00     0.143 A 
HETATM   11  N2  UNL     1      25.175   4.621  49.932  1.00  0.00    -0.223 NA
HETATM   12  C10 UNL     1      26.389   4.244  49.552  1.00  0.00     0.236 A 
HETATM   13  N3  UNL     1      26.935   3.156  50.103  1.00  0.00    -0.241 NA
HETATM   14  C11 UNL     1      26.281   2.442  51.031  1.00  0.00     0.075 A 
HETATM   15  C12 UNL     1      26.800   1.312  51.632  1.00  0.00     0.072 A 
HETATM   16  C18 UNL     1      25.020   2.855  51.408  1.00  0.00     0.042 A 
HETATM   17  C13 UNL     1      26.104   0.596  52.584  1.00  0.00     0.103 A 
HETATM   18  C15 UNL     1      24.833   1.012  52.965  1.00  0.00     0.102 A 
HETATM   19  C17 UNL     1      24.331   2.152  52.347  1.00  0.00     0.057 A 
BRANCH  17  20
HETATM   20  O1  UNL     1      26.601  -0.542  53.203  1.00  0.00    -0.353 OA
HETATM   21  C14 UNL     1      26.903  -1.748  52.574  1.00  0.00     0.210 C 
ENDBRANCH  17  20
BRANCH  18  22
HETATM   22  O2  UNL     1      24.128   0.284  53.932  1.00  0.00    -0.353 OA
HETATM   23  C16 UNL     1      23.473  -0.904  53.487  1.00  0.00     0.210 C 
ENDBRANCH  18  22
ENDBRANCH   8  10
ENDBRANCH   7   8
ENDBRANCH   5   6
TORSDOF 5
ENDMDL
MODEL 7
REMARK VINA RESULT:      -6.4      3.170      5.812
REMARK  5 active torsions:
REMARK  status: ('A' for Active; 'I' for Inactive)
REMARK    1  A    between atoms: C5_5  and  C6_6 
REMARK    2  A    between atoms: C7_7  and  N1_8 
REMARK    3  A    between atoms: N1_8  and  C9_10 
REMARK    4  A    between atoms: C13_16  and  O1_17 
REMARK    5  A    between atoms: C15_19  and  O2_20 
ROOT
HETATM    1  C1  UNL     1      25.792  -0.326  54.917  1.00  0.00     0.017 C 
HETATM    2  C2  UNL     1      25.955   0.428  54.002  1.00  0.00    -0.083 C 
HETATM    3  C3  UNL     1      26.159   1.332  52.900  1.00  0.00    -0.009 C 
HETATM    4  C4  UNL     1      27.430   2.082  52.772  1.00  0.00     0.058 C 
HETATM    5  C5  UNL     1      25.222   1.520  51.968  1.00  0.00     0.017 C 
ENDROOT
BRANCH   5   6
HETATM    6  C6  UNL     1      25.362   2.423  50.822  1.00  0.00     0.018 C 
HETATM    7  C7  UNL     1      24.456   3.354  50.550  1.00  0.00     0.092 C 
BRANCH   7   8
HETATM    8  N1  UNL     1      23.330   3.448  51.419  1.00  0.00    -0.345 N 
HETATM    9  C8  UNL     1      23.530   4.162  52.666  1.00  0.00     0.157 C 
BRANCH   8  10
HETATM   10  C9  UNL     1      22.252   2.770  50.776  1.00  0.00     0.143 A 
HETATM   11  N2  UNL     1      21.958   3.043  49.474  1.00  0.00    -0.223 NA
HETATM   12  C10 UNL     1      20.978   2.467  48.791  1.00  0.00     0.236 A 
HETATM   13  N3  UNL     1      20.212   1.555  49.396  1.00  0.00    -0.241 NA
HETATM   14  C11 UNL     1      20.417   1.212  50.676  1.00  0.00     0.075 A 
HETATM   15  C12 UNL     1      19.655   0.275  51.347  1.00  0.00     0.072 A 
HETATM   16  C18 UNL     1      21.442   1.825  51.364  1.00  0.00     0.042 A 
HETATM   17  C13 UNL     1      19.888  -0.060  52.665  1.00  0.00     0.103 A 
HETATM   18  C15 UNL     1      20.922   0.558  53.359  1.00  0.00     0.102 A 
HETATM   19  C17 UNL     1      21.675   1.498  52.664  1.00  0.00     0.057 A 
BRANCH  17  20
HETATM   20  O1  UNL     1      19.139  -0.997  53.362  1.00  0.00    -0.353 OA
HETATM   21  C14 UNL     1      17.759  -1.170  53.273  1.00  0.00     0.210 C 
ENDBRANCH  17  20
BRANCH  18  22
HETATM   22  O2  UNL     1      21.157   0.218  54.698  1.00  0.00    -0.353 OA
HETATM   23  C16 UNL     1      22.050  -0.870  54.934  1.00  0.00     0.210 C 
ENDBRANCH  18  22
ENDBRANCH   8  10
ENDBRANCH   7   8
ENDBRANCH   5   6
TORSDOF 5
ENDMDL
MODEL 8
REMARK VINA RESULT:      -6.3      3.288      5.146
REMARK  5 active torsions:
REMARK  status: ('A' for Active; 'I' for Inactive)
REMARK    1  A    between atoms: C5_5  and  C6_6 
REMARK    2  A    between atoms: C7_7  and  N1_8 
REMARK    3  A    between atoms: N1_8  and  C9_10 
REMARK    4  A    between atoms: C13_16  and  O1_17 
REMARK    5  A    between atoms: C15_19  and  O2_20 
ROOT
HETATM    1  C1  UNL     1      14.900   1.131  52.698  1.00  0.00     0.017 C 
HETATM    2  C2  UNL     1      15.826   0.852  51.994  1.00  0.00    -0.083 C 
HETATM    3  C3  UNL     1      16.936   0.517  51.140  1.00  0.00    -0.009 C 
HETATM    4  C4  UNL     1      16.739  -0.365  49.966  1.00  0.00     0.058 C 
HETATM    5  C5  UNL     1      18.164   0.985  51.374  1.00  0.00     0.017 C 
ENDROOT
BRANCH   5   6
HETATM    6  C6  UNL     1      19.338   0.685  50.548  1.00  0.00     0.018 C 
HETATM    7  C7  UNL     1      20.572   0.911  50.979  1.00  0.00     0.092 C 
BRANCH   7   8
HETATM    8  N1  UNL     1      20.722   1.461  52.286  1.00  0.00    -0.345 N 
HETATM    9  C8  UNL     1      20.323   2.846  52.457  1.00  0.00     0.157 C 
BRANCH   8  10
HETATM   10  C9  UNL     1      21.256   0.428  53.111  1.00  0.00     0.143 A 
HETATM   11  N2  UNL     1      20.423  -0.496  53.667  1.00  0.00    -0.223 NA
HETATM   12  C10 UNL     1      20.824  -1.491  54.447  1.00  0.00     0.236 A 
HETATM   13  N3  UNL     1      22.124  -1.619  54.723  1.00  0.00    -0.241 NA
HETATM   14  C11 UNL     1      23.029  -0.763  54.227  1.00  0.00     0.075 A 
HETATM   15  C12 UNL     1      24.384  -0.851  54.481  1.00  0.00     0.072 A 
HETATM   16  C18 UNL     1      22.588   0.263  53.418  1.00  0.00     0.042 A 
HETATM   17  C13 UNL     1      25.294   0.044  53.957  1.00  0.00     0.103 A 
HETATM   18  C15 UNL     1      24.849   1.079  53.142  1.00  0.00     0.102 A 
HETATM   19  C17 UNL     1      23.482   1.148  52.899  1.00  0.00     0.057 A 
BRANCH  17  20
HETATM   20  O1  UNL     1      26.659  -0.021  54.196  1.00  0.00    -0.353 OA
HETATM   21  C14 UNL     1      27.608  -0.599  53.354  1.00  0.00     0.210 C 
ENDBRANCH  17  20
BRANCH  18  22
HETATM   22  O2  UNL     1      25.774   1.987  52.610  1.00  0.00    -0.353 OA
HETATM   23  C16 UNL     1      25.504   2.482  51.299  1.00  0.00     0.210 C 
ENDBRANCH  18  22
ENDBRANCH   8  10
ENDBRANCH   7   8
ENDBRANCH   5   6
TORSDOF 5
ENDMDL
MODEL 9
REMARK VINA RESULT:      -6.2      2.924      4.245
REMARK  5 active torsions:
REMARK  status: ('A' for Active; 'I' for Inactive)
REMARK    1  A    between atoms: C5_5  and  C6_6 
REMARK    2  A    between atoms: C7_7  and  N1_8 
REMARK    3  A    between atoms: N1_8  and  C9_10 
REMARK    4  A    between atoms: C13_16  and  O1_17 
REMARK    5  A    between atoms: C15_19  and  O2_20 
ROOT
HETATM    1  C1  UNL     1      27.071   8.967  50.170  1.00  0.00     0.017 C 
HETATM    2  C2  UNL     1      26.408   8.122  49.643  1.00  0.00    -0.083 C 
HETATM    3  C3  UNL     1      25.612   7.108  49.001  1.00  0.00    -0.009 C 
HETATM    4  C4  UNL     1      24.806   7.435  47.802  1.00  0.00     0.058 C 
HETATM    5  C5  UNL     1      25.576   5.855  49.459  1.00  0.00     0.017 C 
ENDROOT
BRANCH   5   6
HETATM    6  C6  UNL     1      24.789   4.774  48.856  1.00  0.00     0.018 C 
HETATM    7  C7  UNL     1      24.108   3.909  49.597  1.00  0.00     0.092 C 
BRANCH   7   8
HETATM    8  N1  UNL     1      24.165   4.067  51.013  1.00  0.00    -0.345 N 
HETATM    9  C8  UNL     1      23.536   5.255  51.559  1.00  0.00     0.157 C 
BRANCH   8  10
HETATM   10  C9  UNL     1      24.870   2.939  51.527  1.00  0.00     0.143 A 
HETATM   11  N2  UNL     1      26.211   2.824  51.320  1.00  0.00    -0.223 NA
HETATM   12  C10 UNL     1      26.952   1.815  51.757  1.00  0.00     0.236 A 
HETATM   13  N3  UNL     1      26.370   0.832  52.449  1.00  0.00    -0.241 NA
HETATM   14  C11 UNL     1      25.054   0.847  52.708  1.00  0.00     0.075 A 
HETATM   15  C12 UNL     1      24.404  -0.144  53.418  1.00  0.00     0.072 A 
HETATM   16  C18 UNL     1      24.306   1.907  52.243  1.00  0.00     0.042 A 
HETATM   17  C13 UNL     1      23.048  -0.102  53.671  1.00  0.00     0.103 A 
HETATM   18  C15 UNL     1      22.293   0.967  53.203  1.00  0.00     0.102 A 
HETATM   19  C17 UNL     1      22.969   1.952  52.491  1.00  0.00     0.057 A 
BRANCH  17  20
HETATM   20  O1  UNL     1      22.370  -1.083  54.382  1.00  0.00    -0.353 OA
HETATM   21  C14 UNL     1      22.828  -1.720  55.533  1.00  0.00     0.210 C 
ENDBRANCH  17  20
BRANCH  18  22
HETATM   22  O2  UNL     1      20.917   1.008  53.460  1.00  0.00    -0.353 OA
HETATM   23  C16 UNL     1      20.142   1.899  52.659  1.00  0.00     0.210 C 
ENDBRANCH  18  22
ENDBRANCH   8  10
ENDBRANCH   7   8
ENDBRANCH   5   6
TORSDOF 5
ENDMDL
