MODEL 1
REMARK VINA RESULT:      -8.3      0.000      0.000
REMARK  4 active torsions:
REMARK  status: ('A' for Active; 'I' for Inactive)
REMARK    1  A    between atoms: C7_7  and  C8_8 
REMARK    2  A    between atoms: C12_15  and  C13_16 
REMARK    3  A    between atoms: C13_16  and  N4_17 
REMARK    4  A    between atoms: C16_20  and  N5_21 
ROOT
HETATM    1  C1  UNL     1      29.142  -2.294  53.080  1.00  0.00     0.018 C 
HETATM    2  C2  UNL     1      28.414  -1.344  53.219  1.00  0.00    -0.078 C 
HETATM    3  C3  UNL     1      27.545  -0.205  53.363  1.00  0.00     0.017 A 
HETATM    4  C4  UNL     1      28.191   1.002  53.490  1.00  0.00     0.020 A 
HETATM    5  C5  UNL     1      27.386   2.108  53.626  1.00  0.00     0.002 A 
HETATM    6  C6  UNL     1      26.023   2.005  53.632  1.00  0.00     0.014 A 
HETATM    7  C7  UNL     1      25.308   0.849  53.510  1.00  0.00    -0.004 A 
HETATM    8  C20 UNL     1      26.168  -0.272  53.374  1.00  0.00     0.034 A 
ENDROOT
BRANCH   7   9
HETATM    9  C8  UNL     1      23.942   0.365  53.402  1.00  0.00     0.098 A 
HETATM   10  N1  UNL     1      23.643  -0.495  54.424  1.00  0.00    -0.237 NA
HETATM   11  C9  UNL     1      22.465  -1.139  54.495  1.00  0.00     0.256 A 
HETATM   12  N2  UNL     1      21.578  -0.912  53.517  1.00  0.00    -0.161 NA
HETATM   13  N3  UNL     1      21.825  -0.095  52.513  1.00  0.00    -0.241 N 
HETATM   14  C10 UNL     1      21.138   0.237  51.406  1.00  0.00     0.119 A 
HETATM   15  C19 UNL     1      22.976   0.545  52.434  1.00  0.00     0.095 A 
HETATM   16  C11 UNL     1      21.909   1.097  50.657  1.00  0.00     0.030 A 
HETATM   17  C12 UNL     1      23.130   1.323  51.313  1.00  0.00    -0.008 A 
BRANCH  17  18
HETATM   18  C13 UNL     1      24.083   2.289  50.797  1.00  0.00     0.158 C 
BRANCH  18  19
HETATM   19  N4  UNL     1      23.488   3.581  50.687  1.00  0.00    -0.408 N 
HETATM   20  C14 UNL     1      23.593   4.342  51.920  1.00  0.00     0.119 C 
HETATM   21  C15 UNL     1      22.517   5.425  51.903  1.00  0.00     0.055 C 
HETATM   22  C16 UNL     1      22.769   6.336  50.703  1.00  0.00     0.221 C 
HETATM   23  C17 UNL     1      23.883   5.801  49.858  1.00  0.00     0.055 C 
HETATM   24  C18 UNL     1      23.652   4.345  49.527  1.00  0.00     0.119 C 
BRANCH  22  25
HETATM   25  N5  UNL     1      23.067   7.664  51.207  1.00  0.00     0.083 N 
HETATM   26  H15 UNL     1      24.069   7.930  51.073  1.00  0.00     0.313 HD
HETATM   27  H16 UNL     1      22.398   8.395  50.917  1.00  0.00     0.313 HD
ENDBRANCH  22  25
ENDBRANCH  18  19
ENDBRANCH  17  18
ENDBRANCH   7   9
TORSDOF 4
ENDMDL
MODEL 2
REMARK VINA RESULT:      -8.2      2.255      6.425
REMARK  4 active torsions:
REMARK  status: ('A' for Active; 'I' for Inactive)
REMARK    1  A    between atoms: C7_7  and  C8_8 
REMARK    2  A    between atoms: C12_15  and  C13_16 
REMARK    3  A    between atoms: C13_16  and  N4_17 
REMARK    4  A    between atoms: C16_20  and  N5_21 
ROOT
HETATM    1  C1  UNL     1      24.263   8.161  48.316  1.00  0.00     0.018 C 
HETATM    2  C2  UNL     1      24.654   7.047  48.557  1.00  0.00    -0.078 C 
HETATM    3  C3  UNL     1      25.122   5.721  48.865  1.00  0.00     0.017 A 
HETATM    4  C4  UNL     1      26.489   5.592  48.936  1.00  0.00     0.020 A 
HETATM    5  C5  UNL     1      26.965   4.338  49.232  1.00  0.00     0.002 A 
HETATM    6  C6  UNL     1      26.121   3.284  49.446  1.00  0.00     0.014 A 
HETATM    7  C7  UNL     1      24.758   3.329  49.396  1.00  0.00    -0.004 A 
HETATM    8  C20 UNL     1      24.300   4.636  49.086  1.00  0.00     0.034 A 
ENDROOT
BRANCH   7   9
HETATM    9  C8  UNL     1      23.586   2.500  49.622  1.00  0.00     0.098 A 
HETATM   10  N1  UNL     1      22.814   2.422  48.494  1.00  0.00    -0.237 NA
HETATM   11  C9  UNL     1      21.633   1.780  48.478  1.00  0.00     0.256 A 
HETATM   12  N2  UNL     1      21.226   1.210  49.620  1.00  0.00    -0.161 NA
HETATM   13  N3  UNL     1      21.935   1.262  50.729  1.00  0.00    -0.241 N 
HETATM   14  C10 UNL     1      21.713   0.835  51.985  1.00  0.00     0.119 A 
HETATM   15  C19 UNL     1      23.097   1.887  50.756  1.00  0.00     0.095 A 
HETATM   16  C11 UNL     1      22.775   1.221  52.770  1.00  0.00     0.030 A 
HETATM   17  C12 UNL     1      23.710   1.916  51.985  1.00  0.00    -0.008 A 
BRANCH  17  18
HETATM   18  C13 UNL     1      24.985   2.331  52.541  1.00  0.00     0.158 C 
BRANCH  18  19
HETATM   19  N4  UNL     1      25.717   1.208  53.028  1.00  0.00    -0.408 N 
HETATM   20  C14 UNL     1      26.456   0.534  51.975  1.00  0.00     0.119 C 
HETATM   21  C15 UNL     1      26.749  -0.891  52.438  1.00  0.00     0.055 C 
HETATM   22  C16 UNL     1      27.596  -0.821  53.708  1.00  0.00     0.221 C 
HETATM   23  C17 UNL     1      27.742   0.597  54.168  1.00  0.00     0.055 C 
HETATM   24  C18 UNL     1      26.394   1.274  54.251  1.00  0.00     0.119 C 
BRANCH  22  25
HETATM   25  N5  UNL     1      28.882  -1.428  53.420  1.00  0.00     0.083 N 
HETATM   26  H15 UNL     1      28.848  -2.472  53.441  1.00  0.00     0.313 HD
HETATM   27  H16 UNL     1      29.365  -1.042  52.593  1.00  0.00     0.313 HD
ENDBRANCH  22  25
ENDBRANCH  18  19
ENDBRANCH  17  18
ENDBRANCH   7   9
TORSDOF 4
ENDMDL
MODEL 3
REMARK VINA RESULT:      -8.1      1.990      5.708
REMARK  4 active torsions:
REMARK  status: ('A' for Active; 'I' for Inactive)
REMARK    1  A    between atoms: C7_7  and  C8_8 
REMARK    2  A    between atoms: C12_15  and  C13_16 
REMARK    3  A    between atoms: C13_16  and  N4_17 
REMARK    4  A    between atoms: C16_20  and  N5_21 
ROOT
HETATM    1  C1  UNL     1      27.544   4.564  48.626  1.00  0.00     0.018 C 
HETATM    2  C2  UNL     1      26.529   4.659  49.267  1.00  0.00    -0.078 C 
HETATM    3  C3  UNL     1      25.305   4.778  50.016  1.00  0.00     0.017 A 
HETATM    4  C4  UNL     1      25.025   6.046  50.468  1.00  0.00     0.020 A 
HETATM    5  C5  UNL     1      23.861   6.191  51.183  1.00  0.00     0.002 A 
HETATM    6  C6  UNL     1      23.032   5.131  51.425  1.00  0.00     0.014 A 
HETATM    7  C7  UNL     1      23.237   3.847  51.012  1.00  0.00    -0.004 A 
HETATM    8  C20 UNL     1      24.447   3.731  50.279  1.00  0.00     0.034 A 
ENDROOT
BRANCH   7   9
HETATM    9  C8  UNL     1      22.597   2.541  51.004  1.00  0.00     0.098 A 
HETATM   10  N1  UNL     1      21.642   2.468  50.026  1.00  0.00    -0.237 NA
HETATM   11  C9  UNL     1      20.855   1.389  49.874  1.00  0.00     0.256 A 
HETATM   12  N2  UNL     1      21.036   0.370  50.724  1.00  0.00    -0.161 NA
HETATM   13  N3  UNL     1      21.940   0.398  51.682  1.00  0.00    -0.241 N 
HETATM   14  C10 UNL     1      22.258  -0.452  52.674  1.00  0.00     0.119 A 
HETATM   15  C19 UNL     1      22.720   1.450  51.838  1.00  0.00     0.095 A 
HETATM   16  C11 UNL     1      23.253   0.120  53.435  1.00  0.00     0.030 A 
HETATM   17  C12 UNL     1      23.583   1.378  52.905  1.00  0.00    -0.008 A 
BRANCH  17  18
HETATM   18  C13 UNL     1      24.690   2.145  53.447  1.00  0.00     0.158 C 
BRANCH  18  19
HETATM   19  N4  UNL     1      25.924   1.450  53.271  1.00  0.00    -0.408 N 
HETATM   20  C14 UNL     1      26.317   0.718  54.462  1.00  0.00     0.119 C 
HETATM   21  C15 UNL     1      27.822   0.469  54.391  1.00  0.00     0.055 C 
HETATM   22  C16 UNL     1      28.114  -0.365  53.145  1.00  0.00     0.221 C 
HETATM   23  C17 UNL     1      26.873  -0.545  52.327  1.00  0.00     0.055 C 
HETATM   24  C18 UNL     1      26.202   0.785  52.072  1.00  0.00     0.119 C 
BRANCH  22  25
HETATM   25  N5  UNL     1      28.661  -1.637  53.578  1.00  0.00     0.083 N 
HETATM   26  H15 UNL     1      29.481  -1.526  54.216  1.00  0.00     0.313 HD
HETATM   27  H16 UNL     1      27.959  -2.316  53.915  1.00  0.00     0.313 HD
ENDBRANCH  22  25
ENDBRANCH  18  19
ENDBRANCH  17  18
ENDBRANCH   7   9
TORSDOF 4
ENDMDL
MODEL 4
REMARK VINA RESULT:      -7.9      2.112      5.899
REMARK  4 active torsions:
REMARK  status: ('A' for Active; 'I' for Inactive)
REMARK    1  A    between atoms: C7_7  and  C8_8 
REMARK    2  A    between atoms: C12_15  and  C13_16 
REMARK    3  A    between atoms: C13_16  and  N4_17 
REMARK    4  A    between atoms: C16_20  and  N5_21 
ROOT
HETATM    1  C1  UNL     1      23.360   6.097  51.225  1.00  0.00     0.018 C 
HETATM    2  C2  UNL     1      23.028   5.022  50.797  1.00  0.00    -0.078 C 
HETATM    3  C3  UNL     1      22.652   3.729  50.287  1.00  0.00     0.017 A 
HETATM    4  C4  UNL     1      22.816   3.572  48.931  1.00  0.00     0.020 A 
HETATM    5  C5  UNL     1      22.468   2.346  48.417  1.00  0.00     0.002 A 
HETATM    6  C6  UNL     1      21.989   1.345  49.214  1.00  0.00     0.014 A 
HETATM    7  C7  UNL     1      21.799   1.419  50.563  1.00  0.00    -0.004 A 
HETATM    8  C20 UNL     1      22.165   2.697  51.062  1.00  0.00     0.034 A 
ENDROOT
BRANCH   7   9
HETATM    9  C8  UNL     1      21.407   0.605  51.702  1.00  0.00     0.098 A 
HETATM   10  N1  UNL     1      20.047   0.458  51.756  1.00  0.00    -0.237 NA
HETATM   11  C9  UNL     1      19.436  -0.184  52.766  1.00  0.00     0.256 A 
HETATM   12  N2  UNL     1      20.213  -0.684  53.737  1.00  0.00    -0.161 NA
HETATM   13  N3  UNL     1      21.525  -0.564  53.727  1.00  0.00    -0.241 N 
HETATM   14  C10 UNL     1      22.488  -0.914  54.598  1.00  0.00     0.119 A 
HETATM   15  C19 UNL     1      22.135   0.062  52.739  1.00  0.00     0.095 A 
HETATM   16  C11 UNL     1      23.698  -0.480  54.106  1.00  0.00     0.030 A 
HETATM   17  C12 UNL     1      23.498   0.166  52.875  1.00  0.00    -0.008 A 
BRANCH  17  18
HETATM   18  C13 UNL     1      24.626   0.616  52.079  1.00  0.00     0.158 C 
BRANCH  18  19
HETATM   19  N4  UNL     1      25.814   0.670  52.868  1.00  0.00    -0.408 N 
HETATM   20  C14 UNL     1      26.886  -0.131  52.304  1.00  0.00     0.119 C 
HETATM   21  C15 UNL     1      27.879  -0.449  53.419  1.00  0.00     0.055 C 
HETATM   22  C16 UNL     1      28.437   0.867  53.958  1.00  0.00     0.221 C 
HETATM   23  C17 UNL     1      27.737   2.033  53.332  1.00  0.00     0.055 C 
HETATM   24  C18 UNL     1      26.238   1.876  53.436  1.00  0.00     0.119 C 
BRANCH  22  25
HETATM   25  N5  UNL     1      29.863   0.889  53.690  1.00  0.00     0.083 N 
HETATM   26  H15 UNL     1      30.080   1.021  52.676  1.00  0.00     0.313 HD
HETATM   27  H16 UNL     1      30.410   1.500  54.317  1.00  0.00     0.313 HD
ENDBRANCH  22  25
ENDBRANCH  18  19
ENDBRANCH  17  18
ENDBRANCH   7   9
TORSDOF 4
ENDMDL
MODEL 5
REMARK VINA RESULT:      -7.8      2.211      6.083
REMARK  4 active torsions:
REMARK  status: ('A' for Active; 'I' for Inactive)
REMARK    1  A    between atoms: C7_7  and  C8_8 
REMARK    2  A    between atoms: C12_15  and  C13_16 
REMARK    3  A    between atoms: C13_16  and  N4_17 
REMARK    4  A    between atoms: C16_20  and  N5_21 
ROOT
HETATM    1  C1  UNL     1      22.662   2.195  47.151  1.00  0.00     0.018 C 
HETATM    2  C2  UNL     1      22.582   2.460  48.323  1.00  0.00    -0.078 C 
HETATM    3  C3  UNL     1      22.464   2.783  49.721  1.00  0.00     0.017 A 
HETATM    4  C4  UNL     1      22.671   4.107  50.028  1.00  0.00     0.020 A 
HETATM    5  C5  UNL     1      22.561   4.445  51.355  1.00  0.00     0.002 A 
HETATM    6  C6  UNL     1      22.262   3.514  52.309  1.00  0.00     0.014 A 
HETATM    7  C7  UNL     1      22.042   2.186  52.088  1.00  0.00    -0.004 A 
HETATM    8  C20 UNL     1      22.164   1.869  50.710  1.00  0.00     0.034 A 
ENDROOT
BRANCH   7   9
HETATM    9  C8  UNL     1      21.651   0.969  52.780  1.00  0.00     0.098 A 
HETATM   10  N1  UNL     1      20.294   0.792  52.735  1.00  0.00    -0.237 NA
HETATM   11  C9  UNL     1      19.682  -0.219  53.376  1.00  0.00     0.256 A 
HETATM   12  N2  UNL     1      20.454  -1.062  54.075  1.00  0.00    -0.161 NA
HETATM   13  N3  UNL     1      21.763  -0.929  54.148  1.00  0.00    -0.241 N 
HETATM   14  C10 UNL     1      22.720  -1.591  54.821  1.00  0.00     0.119 A 
HETATM   15  C19 UNL     1      22.374   0.058  53.521  1.00  0.00     0.095 A 
HETATM   16  C11 UNL     1      23.927  -0.975  54.582  1.00  0.00     0.030 A 
HETATM   17  C12 UNL     1      23.732   0.118  53.721  1.00  0.00    -0.008 A 
BRANCH  17  18
HETATM   18  C13 UNL     1      24.862   0.872  53.210  1.00  0.00     0.158 C 
BRANCH  18  19
HETATM   19  N4  UNL     1      26.094   0.279  53.617  1.00  0.00    -0.408 N 
HETATM   20  C14 UNL     1      26.836  -0.273  52.498  1.00  0.00     0.119 C 
HETATM   21  C15 UNL     1      27.813  -1.313  53.042  1.00  0.00     0.055 C 
HETATM   22  C16 UNL     1      28.769  -0.617  54.009  1.00  0.00     0.221 C 
HETATM   23  C17 UNL     1      28.358   0.808  54.224  1.00  0.00     0.055 C 
HETATM   24  C18 UNL     1      26.894   0.894  54.587  1.00  0.00     0.119 C 
BRANCH  22  25
HETATM   25  N5  UNL     1      30.107  -0.713  53.459  1.00  0.00     0.083 N 
HETATM   26  H15 UNL     1      30.834  -0.314  54.096  1.00  0.00     0.313 HD
HETATM   27  H16 UNL     1      30.351  -1.641  53.077  1.00  0.00     0.313 HD
ENDBRANCH  22  25
ENDBRANCH  18  19
ENDBRANCH  17  18
ENDBRANCH   7   9
TORSDOF 4
ENDMDL
MODEL 6
REMARK VINA RESULT:      -7.8      2.399      5.159
REMARK  4 active torsions:
REMARK  status: ('A' for Active; 'I' for Inactive)
REMARK    1  A    between atoms: C7_7  and  C8_8 
REMARK    2  A    between atoms: C12_15  and  C13_16 
REMARK    3  A    between atoms: C13_16  and  N4_17 
REMARK    4  A    between atoms: C16_20  and  N5_21 
ROOT
HETATM    1  C1  UNL     1      28.341   5.154  48.462  1.00  0.00     0.018 C 
HETATM    2  C2  UNL     1      27.331   4.724  48.958  1.00  0.00    -0.078 C 
HETATM    3  C3  UNL     1      26.121   4.197  49.534  1.00  0.00     0.017 A 
HETATM    4  C4  UNL     1      24.963   4.793  49.094  1.00  0.00     0.020 A 
HETATM    5  C5  UNL     1      23.793   4.308  49.624  1.00  0.00     0.002 A 
HETATM    6  C6  UNL     1      23.787   3.289  50.535  1.00  0.00     0.014 A 
HETATM    7  C7  UNL     1      24.888   2.645  51.020  1.00  0.00    -0.004 A 
HETATM    8  C20 UNL     1      26.079   3.171  50.455  1.00  0.00     0.034 A 
ENDROOT
BRANCH   7   9
HETATM    9  C8  UNL     1      25.268   1.538  51.882  1.00  0.00     0.098 A 
HETATM   10  N1  UNL     1      26.584   1.206  51.705  1.00  0.00    -0.237 NA
HETATM   11  C9  UNL     1      27.149   0.159  52.330  1.00  0.00     0.256 A 
HETATM   12  N2  UNL     1      26.370  -0.565  53.145  1.00  0.00    -0.161 NA
HETATM   13  N3  UNL     1      25.098  -0.284  53.343  1.00  0.00    -0.241 N 
HETATM   14  C10 UNL     1      24.121  -0.885  54.044  1.00  0.00     0.119 A 
HETATM   15  C19 UNL     1      24.534   0.744  52.738  1.00  0.00     0.095 A 
HETATM   16  C11 UNL     1      22.950  -0.190  53.843  1.00  0.00     0.030 A 
HETATM   17  C12 UNL     1      23.192   0.896  52.986  1.00  0.00    -0.008 A 
BRANCH  17  18
HETATM   18  C13 UNL     1      22.150   1.867  52.703  1.00  0.00     0.158 C 
BRANCH  18  19
HETATM   19  N4  UNL     1      21.101   1.276  51.937  1.00  0.00    -0.408 N 
HETATM   20  C14 UNL     1      19.891   2.079  51.951  1.00  0.00     0.119 C 
HETATM   21  C15 UNL     1      18.715   1.172  51.594  1.00  0.00     0.055 C 
HETATM   22  C16 UNL     1      18.950   0.605  50.195  1.00  0.00     0.221 C 
HETATM   23  C17 UNL     1      20.304   0.997  49.688  1.00  0.00     0.055 C 
HETATM   24  C18 UNL     1      21.372   0.670  50.706  1.00  0.00     0.119 C 
BRANCH  22  25
HETATM   25  N5  UNL     1      17.892   1.095  49.333  1.00  0.00     0.083 N 
HETATM   26  H15 UNL     1      17.277   1.795  49.807  1.00  0.00     0.313 HD
HETATM   27  H16 UNL     1      18.201   1.382  48.390  1.00  0.00     0.313 HD
ENDBRANCH  22  25
ENDBRANCH  18  19
ENDBRANCH  17  18
ENDBRANCH   7   9
TORSDOF 4
ENDMDL
MODEL 7
REMARK VINA RESULT:      -7.8      2.741      5.485
REMARK  4 active torsions:
REMARK  status: ('A' for Active; 'I' for Inactive)
REMARK    1  A    between atoms: C7_7  and  C8_8 
REMARK    2  A    between atoms: C12_15  and  C13_16 
REMARK    3  A    between atoms: C13_16  and  N4_17 
REMARK    4  A    between atoms: C16_20  and  N5_21 
ROOT
HETATM    1  C1  UNL     1      20.108   6.219  49.702  1.00  0.00     0.018 C 
HETATM    2  C2  UNL     1      20.401   5.066  49.516  1.00  0.00    -0.078 C 
HETATM    3  C3  UNL     1      20.771   3.692  49.301  1.00  0.00     0.017 A 
HETATM    4  C4  UNL     1      21.383   3.440  48.096  1.00  0.00     0.020 A 
HETATM    5  C5  UNL     1      21.751   2.137  47.864  1.00  0.00     0.002 A 
HETATM    6  C6  UNL     1      21.522   1.153  48.785  1.00  0.00     0.014 A 
HETATM    7  C7  UNL     1      20.924   1.320  50.000  1.00  0.00    -0.004 A 
HETATM    8  C20 UNL     1      20.554   2.675  50.207  1.00  0.00     0.034 A 
ENDROOT
BRANCH   7   9
HETATM    9  C8  UNL     1      20.589   0.588  51.210  1.00  0.00     0.098 A 
HETATM   10  N1  UNL     1      19.261   0.254  51.231  1.00  0.00    -0.237 NA
HETATM   11  C9  UNL     1      18.692  -0.354  52.286  1.00  0.00     0.256 A 
HETATM   12  N2  UNL     1      19.477  -0.626  53.337  1.00  0.00    -0.161 NA
HETATM   13  N3  UNL     1      20.758  -0.319  53.363  1.00  0.00    -0.241 N 
HETATM   14  C10 UNL     1      21.713  -0.427  54.304  1.00  0.00     0.119 A 
HETATM   15  C19 UNL     1      21.328   0.275  52.332  1.00  0.00     0.095 A 
HETATM   16  C11 UNL     1      22.875   0.120  53.810  1.00  0.00     0.030 A 
HETATM   17  C12 UNL     1      22.654   0.590  52.505  1.00  0.00    -0.008 A 
BRANCH  17  18
HETATM   18  C13 UNL     1      23.750   1.107  51.705  1.00  0.00     0.158 C 
BRANCH  18  19
HETATM   19  N4  UNL     1      23.603   2.509  51.490  1.00  0.00    -0.408 N 
HETATM   20  C14 UNL     1      23.657   3.265  52.729  1.00  0.00     0.119 C 
HETATM   21  C15 UNL     1      22.982   4.614  52.493  1.00  0.00     0.055 C 
HETATM   22  C16 UNL     1      23.748   5.352  51.398  1.00  0.00     0.221 C 
HETATM   23  C17 UNL     1      24.810   4.473  50.812  1.00  0.00     0.055 C 
HETATM   24  C18 UNL     1      24.236   3.135  50.410  1.00  0.00     0.119 C 
BRANCH  22  25
HETATM   25  N5  UNL     1      24.308   6.557  51.980  1.00  0.00     0.083 N 
HETATM   26  H15 UNL     1      23.580   7.271  52.208  1.00  0.00     0.313 HD
HETATM   27  H16 UNL     1      24.985   6.392  52.744  1.00  0.00     0.313 HD
ENDBRANCH  22  25
ENDBRANCH  18  19
ENDBRANCH  17  18
ENDBRANCH   7   9
TORSDOF 4
ENDMDL
MODEL 8
REMARK VINA RESULT:      -7.6      1.908      4.871
REMARK  4 active torsions:
REMARK  status: ('A' for Active; 'I' for Inactive)
REMARK    1  A    between atoms: C7_7  and  C8_8 
REMARK    2  A    between atoms: C12_15  and  C13_16 
REMARK    3  A    between atoms: C13_16  and  N4_17 
REMARK    4  A    between atoms: C16_20  and  N5_21 
ROOT
HETATM    1  C1  UNL     1      20.411   0.610  50.608  1.00  0.00     0.018 C 
HETATM    2  C2  UNL     1      21.070   0.271  51.557  1.00  0.00    -0.078 C 
HETATM    3  C3  UNL     1      21.857  -0.156  52.685  1.00  0.00     0.017 A 
HETATM    4  C4  UNL     1      21.129  -0.585  53.769  1.00  0.00     0.020 A 
HETATM    5  C5  UNL     1      21.854  -1.002  54.859  1.00  0.00     0.002 A 
HETATM    6  C6  UNL     1      23.221  -0.989  54.857  1.00  0.00     0.014 A 
HETATM    7  C7  UNL     1      24.015  -0.581  53.826  1.00  0.00    -0.004 A 
HETATM    8  C20 UNL     1      23.236  -0.155  52.718  1.00  0.00     0.034 A 
ENDROOT
BRANCH   7   9
HETATM    9  C8  UNL     1      25.412  -0.492  53.434  1.00  0.00     0.098 A 
HETATM   10  N1  UNL     1      25.965  -1.737  53.298  1.00  0.00    -0.237 NA
HETATM   11  C9  UNL     1      27.268  -1.916  53.024  1.00  0.00     0.256 A 
HETATM   12  N2  UNL     1      28.025  -0.818  52.886  1.00  0.00    -0.161 NA
HETATM   13  N3  UNL     1      27.536   0.399  53.012  1.00  0.00    -0.241 N 
HETATM   14  C10 UNL     1      28.094   1.622  52.984  1.00  0.00     0.119 A 
HETATM   15  C19 UNL     1      26.258   0.586  53.278  1.00  0.00     0.095 A 
HETATM   16  C11 UNL     1      27.113   2.553  53.243  1.00  0.00     0.030 A 
HETATM   17  C12 UNL     1      25.886   1.899  53.438  1.00  0.00    -0.008 A 
BRANCH  17  18
HETATM   18  C13 UNL     1      24.659   2.656  53.608  1.00  0.00     0.158 C 
BRANCH  18  19
HETATM   19  N4  UNL     1      24.373   3.429  52.444  1.00  0.00    -0.408 N 
HETATM   20  C14 UNL     1      24.100   2.597  51.285  1.00  0.00     0.119 C 
HETATM   21  C15 UNL     1      24.336   3.437  50.031  1.00  0.00     0.055 C 
HETATM   22  C16 UNL     1      23.376   4.625  50.060  1.00  0.00     0.221 C 
HETATM   23  C17 UNL     1      22.626   4.667  51.356  1.00  0.00     0.055 C 
HETATM   24  C18 UNL     1      23.575   4.575  52.527  1.00  0.00     0.119 C 
BRANCH  22  25
HETATM   25  N5  UNL     1      22.481   4.502  48.925  1.00  0.00     0.083 N 
HETATM   26  H15 UNL     1      21.896   3.636  48.965  1.00  0.00     0.313 HD
HETATM   27  H16 UNL     1      21.946   5.357  48.702  1.00  0.00     0.313 HD
ENDBRANCH  22  25
ENDBRANCH  18  19
ENDBRANCH  17  18
ENDBRANCH   7   9
TORSDOF 4
ENDMDL
MODEL 9
REMARK VINA RESULT:      -7.5      9.776     12.028
REMARK  4 active torsions:
REMARK  status: ('A' for Active; 'I' for Inactive)
REMARK    1  A    between atoms: C7_7  and  C8_8 
REMARK    2  A    between atoms: C12_15  and  C13_16 
REMARK    3  A    between atoms: C13_16  and  N4_17 
REMARK    4  A    between atoms: C16_20  and  N5_21 
ROOT
HETATM    1  C1  UNL     1      31.844   0.514  46.620  1.00  0.00     0.018 C 
HETATM    2  C2  UNL     1      32.488   1.528  46.709  1.00  0.00    -0.078 C 
HETATM    3  C3  UNL     1      33.274   2.730  46.806  1.00  0.00     0.017 A 
HETATM    4  C4  UNL     1      34.007   2.849  47.963  1.00  0.00     0.020 A 
HETATM    5  C5  UNL     1      34.770   3.985  48.082  1.00  0.00     0.002 A 
HETATM    6  C6  UNL     1      34.797   4.936  47.101  1.00  0.00     0.014 A 
HETATM    7  C7  UNL     1      34.103   4.893  45.927  1.00  0.00    -0.004 A 
HETATM    8  C20 UNL     1      33.324   3.710  45.836  1.00  0.00     0.034 A 
ENDROOT
BRANCH   7   9
HETATM    9  C8  UNL     1      33.934   5.620  44.680  1.00  0.00     0.098 A 
HETATM   10  N1  UNL     1      34.414   4.898  43.620  1.00  0.00    -0.237 NA
HETATM   11  C9  UNL     1      34.445   5.395  42.372  1.00  0.00     0.256 A 
HETATM   12  N2  UNL     1      33.987   6.641  42.192  1.00  0.00    -0.161 NA
HETATM   13  N3  UNL     1      33.520   7.373  43.183  1.00  0.00    -0.241 N 
HETATM   14  C10 UNL     1      33.077   8.640  43.263  1.00  0.00     0.119 A 
HETATM   15  C19 UNL     1      33.481   6.895  44.412  1.00  0.00     0.095 A 
HETATM   16  C11 UNL     1      32.771   8.913  44.577  1.00  0.00     0.030 A 
HETATM   17  C12 UNL     1      33.024   7.776  45.362  1.00  0.00    -0.008 A 
BRANCH  17  18
HETATM   18  C13 UNL     1      32.672   7.752  46.770  1.00  0.00     0.158 C 
BRANCH  18  19
HETATM   19  N4  UNL     1      31.429   7.081  46.971  1.00  0.00    -0.408 N 
HETATM   20  C14 UNL     1      31.454   6.212  48.134  1.00  0.00     0.119 C 
HETATM   21  C15 UNL     1      30.347   5.172  47.975  1.00  0.00     0.055 C 
HETATM   22  C16 UNL     1      29.008   5.902  47.898  1.00  0.00     0.221 C 
HETATM   23  C17 UNL     1      29.216   7.385  47.856  1.00  0.00     0.055 C 
HETATM   24  C18 UNL     1      30.217   7.755  46.787  1.00  0.00     0.119 C 
BRANCH  22  25
HETATM   25  N5  UNL     1      28.216   5.504  49.046  1.00  0.00     0.083 N 
HETATM   26  H15 UNL     1      27.494   4.786  48.808  1.00  0.00     0.313 HD
HETATM   27  H16 UNL     1      28.765   5.279  49.892  1.00  0.00     0.313 HD
ENDBRANCH  22  25
ENDBRANCH  18  19
ENDBRANCH  17  18
ENDBRANCH   7   9
TORSDOF 4
ENDMDL
