MODEL 1
REMARK VINA RESULT:      -8.0      0.000      0.000
REMARK  0 active torsions:
REMARK  status: ('A' for Active; 'I' for Inactive)
ROOT
HETATM    1  C1  UNL     1      20.621   2.709  49.962  1.00  0.00    -0.006 C 
HETATM    2  C2  UNL     1      21.691   2.907  50.792  1.00  0.00    -0.010 C 
HETATM    3  C3  UNL     1      21.519   3.071  52.306  1.00  0.00     0.161 C 
HETATM    4  N1  UNL     1      22.426   2.080  52.936  1.00  0.00    -0.379 N 
HETATM    5  C4  UNL     1      23.661   1.384  52.555  1.00  0.00     0.129 A 
HETATM    6  C5  UNL     1      23.979   0.225  53.234  1.00  0.00     0.160 A 
HETATM    7  N2  UNL     1      25.158  -0.406  53.136  1.00  0.00    -0.222 NA
HETATM    8  C6  UNL     1      26.103   0.145  52.285  1.00  0.00     0.238 A 
HETATM    9  N3  UNL     1      25.877   1.278  51.553  1.00  0.00    -0.215 NA
HETATM   10  C7  UNL     1      24.682   1.871  51.683  1.00  0.00     0.202 A 
HETATM   11  O1  UNL     1      24.261   3.053  50.913  1.00  0.00    -0.290 OA
HETATM   12  C8  UNL     1      23.026   2.826  50.084  1.00  0.00     0.082 C 
HETATM   13  C9  UNL     1      22.812   2.544  48.757  1.00  0.00     0.012 C 
HETATM   14  C10 UNL     1      21.872   1.327  48.534  1.00  0.00     0.043 C 
HETATM   15  C11 UNL     1      20.811   1.211  49.533  1.00  0.00     0.045 C 
HETATM   16  C12 UNL     1      20.940   0.483  50.787  1.00  0.00    -0.048 A 
HETATM   17  C13 UNL     1      19.687   0.361  51.416  1.00  0.00     0.008 A 
HETATM   18  C14 UNL     1      19.482  -0.095  52.690  1.00  0.00     0.003 A 
HETATM   19  C15 UNL     1      20.531  -0.496  53.527  1.00  0.00     0.029 A 
HETATM   20  C16 UNL     1      21.762  -0.385  52.932  1.00  0.00     0.034 A 
HETATM   21  C17 UNL     1      21.905   0.072  51.639  1.00  0.00     0.037 A 
HETATM   22  N4  UNL     1      22.900  -0.554  53.809  1.00  0.00    -0.339 N 
HETATM   23  H4  UNL     1      22.073   1.862  53.891  1.00  0.00     0.160 HD
HETATM   24  H14 UNL     1      22.975  -1.101  54.654  1.00  0.00     0.167 HD
ENDROOT
TORSDOF 0
ENDMDL
MODEL 2
REMARK VINA RESULT:      -7.7      2.104      5.286
REMARK  0 active torsions:
REMARK  status: ('A' for Active; 'I' for Inactive)
ROOT
HETATM    1  C1  UNL     1      26.573   2.027  53.123  1.00  0.00    -0.006 C 
HETATM    2  C2  UNL     1      25.217   2.102  53.291  1.00  0.00    -0.010 C 
HETATM    3  C3  UNL     1      24.473   3.440  53.258  1.00  0.00     0.161 C 
HETATM    4  N1  UNL     1      23.384   3.286  52.261  1.00  0.00    -0.379 N 
HETATM    5  C4  UNL     1      22.614   2.170  51.699  1.00  0.00     0.129 A 
HETATM    6  C5  UNL     1      21.979   2.373  50.491  1.00  0.00     0.160 A 
HETATM    7  N2  UNL     1      21.088   1.525  49.956  1.00  0.00    -0.222 NA
HETATM    8  C6  UNL     1      20.808   0.370  50.667  1.00  0.00     0.238 A 
HETATM    9  N3  UNL     1      21.399   0.066  51.863  1.00  0.00    -0.215 NA
HETATM   10  C7  UNL     1      22.284   0.944  52.356  1.00  0.00     0.202 A 
HETATM   11  O1  UNL     1      23.056   0.731  53.591  1.00  0.00    -0.290 OA
HETATM   12  C8  UNL     1      24.546   0.748  53.384  1.00  0.00     0.082 C 
HETATM   13  C9  UNL     1      25.498  -0.233  53.251  1.00  0.00     0.012 C 
HETATM   14  C10 UNL     1      26.411  -0.034  52.011  1.00  0.00     0.043 C 
HETATM   15  C11 UNL     1      26.693   1.368  51.704  1.00  0.00     0.045 C 
HETATM   16  C12 UNL     1      25.870   2.201  50.841  1.00  0.00    -0.048 A 
HETATM   17  C13 UNL     1      26.524   3.415  50.560  1.00  0.00     0.008 A 
HETATM   18  C14 UNL     1      25.956   4.495  49.941  1.00  0.00     0.003 A 
HETATM   19  C15 UNL     1      24.623   4.506  49.512  1.00  0.00     0.029 A 
HETATM   20  C16 UNL     1      23.967   3.330  49.775  1.00  0.00     0.034 A 
HETATM   21  C17 UNL     1      24.597   2.270  50.394  1.00  0.00     0.037 A 
HETATM   22  N4  UNL     1      22.534   3.353  49.578  1.00  0.00    -0.339 N 
HETATM   23  H4  UNL     1      23.118   4.228  51.906  1.00  0.00     0.160 HD
HETATM   24  H14 UNL     1      21.990   3.914  48.940  1.00  0.00     0.167 HD
ENDROOT
TORSDOF 0
ENDMDL
MODEL 3
REMARK VINA RESULT:      -7.6      1.361      1.824
REMARK  0 active torsions:
REMARK  status: ('A' for Active; 'I' for Inactive)
ROOT
HETATM    1  C1  UNL     1      20.199   2.422  49.863  1.00  0.00    -0.006 C 
HETATM    2  C2  UNL     1      21.199   3.226  50.340  1.00  0.00    -0.010 C 
HETATM    3  C3  UNL     1      21.273   3.634  51.814  1.00  0.00     0.161 C 
HETATM    4  N1  UNL     1      22.637   3.277  52.276  1.00  0.00    -0.379 N 
HETATM    5  C4  UNL     1      23.952   3.091  51.650  1.00  0.00     0.129 A 
HETATM    6  C5  UNL     1      24.892   2.352  52.339  1.00  0.00     0.160 A 
HETATM    7  N2  UNL     1      26.184   2.263  51.991  1.00  0.00    -0.222 NA
HETATM    8  C6  UNL     1      26.583   2.952  50.857  1.00  0.00     0.238 A 
HETATM    9  N3  UNL     1      25.724   3.695  50.094  1.00  0.00    -0.215 NA
HETATM   10  C7  UNL     1      24.443   3.752  50.481  1.00  0.00     0.202 A 
HETATM   11  O1  UNL     1      23.385   4.448  49.731  1.00  0.00    -0.290 OA
HETATM   12  C8  UNL     1      22.255   3.551  49.304  1.00  0.00     0.082 C 
HETATM   13  C9  UNL     1      21.937   2.919  48.128  1.00  0.00     0.012 C 
HETATM   14  C10 UNL     1      21.635   1.406  48.308  1.00  0.00     0.043 C 
HETATM   15  C11 UNL     1      20.965   1.085  49.567  1.00  0.00     0.045 C 
HETATM   16  C12 UNL     1      21.657   0.775  50.810  1.00  0.00    -0.048 A 
HETATM   17  C13 UNL     1      20.750   0.286  51.769  1.00  0.00     0.008 A 
HETATM   18  C14 UNL     1      21.032   0.081  53.092  1.00  0.00     0.003 A 
HETATM   19  C15 UNL     1      22.290   0.348  53.647  1.00  0.00     0.029 A 
HETATM   20  C16 UNL     1      23.189   0.826  52.728  1.00  0.00     0.034 A 
HETATM   21  C17 UNL     1      22.849   1.001  51.403  1.00  0.00     0.037 A 
HETATM   22  N4  UNL     1      24.426   1.344  53.272  1.00  0.00    -0.339 N 
HETATM   23  H4  UNL     1      22.619   3.150  53.309  1.00  0.00     0.160 HD
HETATM   24  H14 UNL     1      24.907   1.080  54.118  1.00  0.00     0.167 HD
ENDROOT
TORSDOF 0
ENDMDL
MODEL 4
REMARK VINA RESULT:      -7.5      2.951      5.036
REMARK  0 active torsions:
REMARK  status: ('A' for Active; 'I' for Inactive)
ROOT
HETATM    1  C1  UNL     1      21.932   2.426  52.320  1.00  0.00    -0.006 C 
HETATM    2  C2  UNL     1      22.336   3.721  52.144  1.00  0.00    -0.010 C 
HETATM    3  C3  UNL     1      23.511   4.313  52.928  1.00  0.00     0.161 C 
HETATM    4  N1  UNL     1      24.435   4.890  51.920  1.00  0.00    -0.379 N 
HETATM    5  C4  UNL     1      24.317   5.410  50.553  1.00  0.00     0.129 A 
HETATM    6  C5  UNL     1      25.464   5.470  49.788  1.00  0.00     0.160 A 
HETATM    7  N2  UNL     1      25.551   6.097  48.606  1.00  0.00    -0.222 NA
HETATM    8  C6  UNL     1      24.403   6.709  48.128  1.00  0.00     0.238 A 
HETATM    9  N3  UNL     1      23.212   6.689  48.800  1.00  0.00    -0.215 NA
HETATM   10  C7  UNL     1      23.175   6.048  49.977  1.00  0.00     0.202 A 
HETATM   11  O1  UNL     1      21.956   5.877  50.784  1.00  0.00    -0.290 OA
HETATM   12  C8  UNL     1      21.594   4.439  51.036  1.00  0.00     0.082 C 
HETATM   13  C9  UNL     1      20.698   3.570  50.464  1.00  0.00     0.012 C 
HETATM   14  C10 UNL     1      21.333   2.213  50.059  1.00  0.00     0.043 C 
HETATM   15  C11 UNL     1      22.380   1.756  50.973  1.00  0.00     0.045 C 
HETATM   16  C12 UNL     1      23.789   2.097  50.844  1.00  0.00    -0.048 A 
HETATM   17  C13 UNL     1      24.565   1.325  51.727  1.00  0.00     0.008 A 
HETATM   18  C14 UNL     1      25.892   1.525  51.996  1.00  0.00     0.003 A 
HETATM   19  C15 UNL     1      26.637   2.552  51.405  1.00  0.00     0.029 A 
HETATM   20  C16 UNL     1      25.898   3.318  50.540  1.00  0.00     0.034 A 
HETATM   21  C17 UNL     1      24.564   3.061  50.300  1.00  0.00     0.037 A 
HETATM   22  N4  UNL     1      26.533   4.533  50.078  1.00  0.00    -0.339 N 
HETATM   23  H4  UNL     1      25.392   4.934  52.328  1.00  0.00     0.160 HD
HETATM   24  H14 UNL     1      27.516   4.730  49.958  1.00  0.00     0.167 HD
ENDROOT
TORSDOF 0
ENDMDL
MODEL 5
REMARK VINA RESULT:      -7.4      2.674      4.526
REMARK  0 active torsions:
REMARK  status: ('A' for Active; 'I' for Inactive)
ROOT
HETATM    1  C1  UNL     1      20.530   0.945  50.784  1.00  0.00    -0.006 C 
HETATM    2  C2  UNL     1      20.289   2.263  51.061  1.00  0.00    -0.010 C 
HETATM    3  C3  UNL     1      20.439   2.832  52.475  1.00  0.00     0.161 C 
HETATM    4  N1  UNL     1      21.339   4.006  52.356  1.00  0.00    -0.379 N 
HETATM    5  C4  UNL     1      21.709   4.953  51.298  1.00  0.00     0.129 A 
HETATM    6  C5  UNL     1      22.891   5.651  51.445  1.00  0.00     0.160 A 
HETATM    7  N2  UNL     1      23.260   6.681  50.670  1.00  0.00    -0.222 NA
HETATM    8  C6  UNL     1      22.396   7.049  49.652  1.00  0.00     0.238 A 
HETATM    9  N3  UNL     1      21.211   6.408  49.410  1.00  0.00    -0.215 NA
HETATM   10  C7  UNL     1      20.887   5.383  50.211  1.00  0.00     0.202 A 
HETATM   11  O1  UNL     1      19.686   4.550  50.038  1.00  0.00    -0.290 OA
HETATM   12  C8  UNL     1      19.987   3.091  49.829  1.00  0.00     0.082 C 
HETATM   13  C9  UNL     1      20.057   2.285  48.720  1.00  0.00     0.012 C 
HETATM   14  C10 UNL     1      21.367   1.454  48.650  1.00  0.00     0.043 C 
HETATM   15  C11 UNL     1      21.862   1.021  49.957  1.00  0.00     0.045 C 
HETATM   16  C12 UNL     1      22.768   1.797  50.790  1.00  0.00    -0.048 A 
HETATM   17  C13 UNL     1      23.237   1.019  51.864  1.00  0.00     0.008 A 
HETATM   18  C14 UNL     1      23.948   1.492  52.933  1.00  0.00     0.003 A 
HETATM   19  C15 UNL     1      24.291   2.843  53.075  1.00  0.00     0.029 A 
HETATM   20  C16 UNL     1      23.843   3.619  52.037  1.00  0.00     0.034 A 
HETATM   21  C17 UNL     1      23.139   3.082  50.979  1.00  0.00     0.037 A 
HETATM   22  N4  UNL     1      23.952   5.049  52.231  1.00  0.00    -0.339 N 
HETATM   23  H4  UNL     1      21.791   4.177  53.279  1.00  0.00     0.160 HD
HETATM   24  H14 UNL     1      24.619   5.566  52.784  1.00  0.00     0.167 HD
ENDROOT
TORSDOF 0
ENDMDL
MODEL 6
REMARK VINA RESULT:      -7.4      8.966     10.851
REMARK  0 active torsions:
REMARK  status: ('A' for Active; 'I' for Inactive)
ROOT
HETATM    1  C1  UNL     1      28.949  10.569  46.813  1.00  0.00    -0.006 C 
HETATM    2  C2  UNL     1      29.791  10.038  47.751  1.00  0.00    -0.010 C 
HETATM    3  C3  UNL     1      29.292   9.609  49.134  1.00  0.00     0.161 C 
HETATM    4  N1  UNL     1      29.739   8.206  49.321  1.00  0.00    -0.379 N 
HETATM    5  C4  UNL     1      30.818   7.361  48.796  1.00  0.00     0.129 A 
HETATM    6  C5  UNL     1      30.661   5.993  48.882  1.00  0.00     0.160 A 
HETATM    7  N2  UNL     1      31.634   5.105  48.629  1.00  0.00    -0.222 NA
HETATM    8  C6  UNL     1      32.867   5.608  48.247  1.00  0.00     0.238 A 
HETATM    9  N3  UNL     1      33.118   6.946  48.114  1.00  0.00    -0.215 NA
HETATM   10  C7  UNL     1      32.114   7.794  48.374  1.00  0.00     0.202 A 
HETATM   11  O1  UNL     1      32.203   9.254  48.209  1.00  0.00    -0.290 OA
HETATM   12  C8  UNL     1      31.199   9.815  47.240  1.00  0.00     0.082 C 
HETATM   13  C9  UNL     1      31.261  10.196  45.922  1.00  0.00     0.012 C 
HETATM   14  C10 UNL     1      30.138   9.571  45.051  1.00  0.00     0.043 C 
HETATM   15  C11 UNL     1      28.865   9.414  45.754  1.00  0.00     0.045 C 
HETATM   16  C12 UNL     1      28.492   8.236  46.524  1.00  0.00    -0.048 A 
HETATM   17  C13 UNL     1      27.132   8.291  46.879  1.00  0.00     0.008 A 
HETATM   18  C14 UNL     1      26.508   7.446  47.757  1.00  0.00     0.003 A 
HETATM   19  C15 UNL     1      27.181   6.411  48.417  1.00  0.00     0.029 A 
HETATM   20  C16 UNL     1      28.510   6.340  48.085  1.00  0.00     0.034 A 
HETATM   21  C17 UNL     1      29.081   7.214  47.183  1.00  0.00     0.037 A 
HETATM   22  N4  UNL     1      29.314   5.455  48.899  1.00  0.00    -0.339 N 
HETATM   23  H4  UNL     1      29.115   7.745  50.015  1.00  0.00     0.160 HD
HETATM   24  H14 UNL     1      29.038   4.618  49.390  1.00  0.00     0.167 HD
ENDROOT
TORSDOF 0
ENDMDL
MODEL 7
REMARK VINA RESULT:      -7.2     11.095     13.428
REMARK  0 active torsions:
REMARK  status: ('A' for Active; 'I' for Inactive)
ROOT
HETATM    1  C1  UNL     1      32.221   5.858  49.078  1.00  0.00    -0.006 C 
HETATM    2  C2  UNL     1      32.766   6.808  48.258  1.00  0.00    -0.010 C 
HETATM    3  C3  UNL     1      34.276   6.896  48.016  1.00  0.00     0.161 C 
HETATM    4  N1  UNL     1      34.463   6.884  46.544  1.00  0.00    -0.379 N 
HETATM    5  C4  UNL     1      33.657   7.246  45.372  1.00  0.00     0.129 A 
HETATM    6  C5  UNL     1      34.014   6.702  44.155  1.00  0.00     0.160 A 
HETATM    7  N2  UNL     1      33.502   7.089  42.978  1.00  0.00    -0.222 NA
HETATM    8  C6  UNL     1      32.547   8.092  43.001  1.00  0.00     0.238 A 
HETATM    9  N3  UNL     1      32.111   8.681  44.156  1.00  0.00    -0.215 NA
HETATM   10  C7  UNL     1      32.650   8.259  45.308  1.00  0.00     0.202 A 
HETATM   11  O1  UNL     1      32.238   8.741  46.637  1.00  0.00    -0.290 OA
HETATM   12  C8  UNL     1      31.732   7.654  47.544  1.00  0.00     0.082 C 
HETATM   13  C9  UNL     1      30.478   7.220  47.899  1.00  0.00     0.012 C 
HETATM   14  C10 UNL     1      30.295   5.686  47.745  1.00  0.00     0.043 C 
HETATM   15  C11 UNL     1      31.498   4.914  48.053  1.00  0.00     0.045 C 
HETATM   16  C12 UNL     1      32.526   4.574  47.080  1.00  0.00    -0.048 A 
HETATM   17  C13 UNL     1      33.427   3.639  47.623  1.00  0.00     0.008 A 
HETATM   18  C14 UNL     1      34.608   3.253  47.049  1.00  0.00     0.003 A 
HETATM   19  C15 UNL     1      35.059   3.767  45.828  1.00  0.00     0.029 A 
HETATM   20  C16 UNL     1      34.194   4.681  45.281  1.00  0.00     0.034 A 
HETATM   21  C17 UNL     1      33.011   5.022  45.901  1.00  0.00     0.037 A 
HETATM   22  N4  UNL     1      34.701   5.425  44.148  1.00  0.00    -0.339 N 
HETATM   23  H4  UNL     1      35.422   6.540  46.331  1.00  0.00     0.160 HD
HETATM   24  H14 UNL     1      35.387   5.147  43.462  1.00  0.00     0.167 HD
ENDROOT
TORSDOF 0
ENDMDL
MODEL 8
REMARK VINA RESULT:      -7.1      2.092      3.388
REMARK  0 active torsions:
REMARK  status: ('A' for Active; 'I' for Inactive)
ROOT
HETATM    1  C1  UNL     1      22.509   5.782  49.236  1.00  0.00    -0.006 C 
HETATM    2  C2  UNL     1      22.436   5.275  50.505  1.00  0.00    -0.010 C 
HETATM    3  C3  UNL     1      21.158   4.620  51.040  1.00  0.00     0.161 C 
HETATM    4  N1  UNL     1      21.558   3.286  51.552  1.00  0.00    -0.379 N 
HETATM    5  C4  UNL     1      22.791   2.674  52.061  1.00  0.00     0.129 A 
HETATM    6  C5  UNL     1      22.878   1.297  52.047  1.00  0.00     0.160 A 
HETATM    7  N2  UNL     1      23.847   0.596  52.654  1.00  0.00    -0.222 NA
HETATM    8  C6  UNL     1      24.824   1.315  53.323  1.00  0.00     0.238 A 
HETATM    9  N3  UNL     1      24.839   2.682  53.378  1.00  0.00    -0.215 NA
HETATM   10  C7  UNL     1      23.851   3.337  52.755  1.00  0.00     0.202 A 
HETATM   11  O1  UNL     1      23.765   4.804  52.662  1.00  0.00    -0.290 OA
HETATM   12  C8  UNL     1      23.753   5.321  51.249  1.00  0.00     0.082 C 
HETATM   13  C9  UNL     1      24.713   5.856  50.426  1.00  0.00     0.012 C 
HETATM   14  C10 UNL     1      24.769   5.179  49.030  1.00  0.00     0.043 C 
HETATM   15  C11 UNL     1      23.462   4.757  48.527  1.00  0.00     0.045 C 
HETATM   16  C12 UNL     1      22.862   3.457  48.787  1.00  0.00    -0.048 A 
HETATM   17  C13 UNL     1      21.723   3.271  47.983  1.00  0.00     0.008 A 
HETATM   18  C14 UNL     1      20.822   2.248  48.111  1.00  0.00     0.003 A 
HETATM   19  C15 UNL     1      20.942   1.253  49.089  1.00  0.00     0.029 A 
HETATM   20  C16 UNL     1      22.048   1.416  49.884  1.00  0.00     0.034 A 
HETATM   21  C17 UNL     1      22.928   2.462  49.699  1.00  0.00     0.037 A 
HETATM   22  N4  UNL     1      22.108   0.570  51.056  1.00  0.00    -0.339 N 
HETATM   23  H4  UNL     1      20.725   2.661  51.547  1.00  0.00     0.160 HD
HETATM   24  H14 UNL     1      21.717  -0.350  51.196  1.00  0.00     0.167 HD
ENDROOT
TORSDOF 0
ENDMDL
MODEL 9
REMARK VINA RESULT:      -6.8     10.152     12.753
REMARK  0 active torsions:
REMARK  status: ('A' for Active; 'I' for Inactive)
ROOT
HETATM    1  C1  UNL     1      34.584   5.422  46.419  1.00  0.00    -0.006 C 
HETATM    2  C2  UNL     1      33.706   5.415  47.469  1.00  0.00    -0.010 C 
HETATM    3  C3  UNL     1      33.862   6.367  48.659  1.00  0.00     0.161 C 
HETATM    4  N1  UNL     1      32.560   7.062  48.809  1.00  0.00    -0.379 N 
HETATM    5  C4  UNL     1      31.162   6.776  48.464  1.00  0.00     0.129 A 
HETATM    6  C5  UNL     1      30.290   7.842  48.384  1.00  0.00     0.160 A 
HETATM    7  N2  UNL     1      28.959   7.721  48.275  1.00  0.00    -0.222 NA
HETATM    8  C6  UNL     1      28.442   6.437  48.227  1.00  0.00     0.238 A 
HETATM    9  N3  UNL     1      29.223   5.315  48.278  1.00  0.00    -0.215 NA
HETATM   10  C7  UNL     1      30.548   5.488  48.385  1.00  0.00     0.202 A 
HETATM   11  O1  UNL     1      31.526   4.387  48.380  1.00  0.00    -0.290 OA
HETATM   12  C8  UNL     1      32.533   4.478  47.267  1.00  0.00     0.082 C 
HETATM   13  C9  UNL     1      32.648   3.878  46.038  1.00  0.00     0.012 C 
HETATM   14  C10 UNL     1      32.890   4.887  44.883  1.00  0.00     0.043 C 
HETATM   15  C11 UNL     1      33.713   6.034  45.266  1.00  0.00     0.045 C 
HETATM   16  C12 UNL     1      33.187   7.273  45.820  1.00  0.00    -0.048 A 
HETATM   17  C13 UNL     1      34.192   8.257  45.865  1.00  0.00     0.008 A 
HETATM   18  C14 UNL     1      34.089   9.466  46.499  1.00  0.00     0.003 A 
HETATM   19  C15 UNL     1      32.939   9.859  47.193  1.00  0.00     0.029 A 
HETATM   20  C16 UNL     1      31.946   8.913  47.162  1.00  0.00     0.034 A 
HETATM   21  C17 UNL     1      32.104   7.716  46.496  1.00  0.00     0.037 A 
HETATM   22  N4  UNL     1      30.828   9.147  48.050  1.00  0.00    -0.339 N 
HETATM   23  H4  UNL     1      32.716   7.966  49.301  1.00  0.00     0.160 HD
HETATM   24  H14 UNL     1      30.457  10.023  48.387  1.00  0.00     0.167 HD
ENDROOT
TORSDOF 0
ENDMDL
