MODEL 1
REMARK VINA RESULT:      -7.4      0.000      0.000
REMARK  6 active torsions:
REMARK  status: ('A' for Active; 'I' for Inactive)
REMARK    1  A    between atoms: C2_2  and  O1_3 
REMARK    2  A    between atoms: O1_3  and  C3_4 
REMARK    3  A    between atoms: C9_12  and  N3_13 
REMARK    4  A    between atoms: N3_13  and  C10_14 
REMARK    5  A    between atoms: C10_14  and  C11_15 
REMARK    6  A    between atoms: C16_21  and  C17_22 
ROOT
HETATM    1  C3  UNL     1      26.903   0.161  53.348  1.00  0.00     0.084 A 
HETATM    2  C4  UNL     1      25.672  -0.494  53.310  1.00  0.00     0.070 A 
HETATM    3  C5  UNL     1      24.482   0.186  53.139  1.00  0.00     0.071 A 
HETATM    4  N1  UNL     1      23.352  -0.543  53.118  1.00  0.00    -0.259 NA
HETATM    5  C6  UNL     1      22.186   0.080  52.954  1.00  0.00     0.142 A 
HETATM    6  C7  UNL     1      22.201   1.448  52.816  1.00  0.00     0.089 A 
HETATM    7  C8  UNL     1      20.937   2.102  52.636  1.00  0.00     0.103 C 
HETATM    8  N2  UNL     1      19.921   2.612  52.477  1.00  0.00    -0.191 NA
HETATM    9  C9  UNL     1      23.342   2.223  52.834  1.00  0.00     0.063 A 
HETATM   10  C14 UNL     1      24.533   1.551  53.004  1.00  0.00     0.022 A 
HETATM   11  C15 UNL     1      25.710   2.281  53.029  1.00  0.00     0.033 A 
HETATM   12  C16 UNL     1      26.883   1.541  53.205  1.00  0.00     0.036 A 
ENDROOT
BRANCH   9  13
HETATM   13  N3  UNL     1      23.383   3.632  52.698  1.00  0.00    -0.384 N 
HETATM   14  H8  UNL     1      23.647   4.004  53.655  1.00  0.00     0.160 HD
BRANCH  13  15
HETATM   15  C10 UNL     1      23.149   4.502  51.589  1.00  0.00     0.148 C 
BRANCH  15  16
HETATM   16  C11 UNL     1      24.449   4.857  50.966  1.00  0.00     0.011 C 
HETATM   17  C12 UNL     1      24.846   4.221  49.860  1.00  0.00     0.005 C 
HETATM   18  C13 UNL     1      23.956   3.157  49.275  1.00  0.00     0.061 C 
HETATM   19 CL1  UNL     1      26.371   4.612  49.098  1.00  0.00    -0.090 Cl
ENDBRANCH  15  16
ENDBRANCH  13  15
ENDBRANCH   9  13
BRANCH  12  20
HETATM   20  C17 UNL     1      28.111   2.301  53.232  1.00  0.00     0.272 C 
HETATM   21  O2  UNL     1      28.852   2.633  54.190  1.00  0.00    -0.301 OA
ENDBRANCH  12  20
BRANCH   1  22
HETATM   22  O1  UNL     1      28.006  -0.435  53.503  1.00  0.00    -0.350 OA
BRANCH  22  23
HETATM   23  C2  UNL     1      29.094  -1.102  53.656  1.00  0.00     0.171 C 
HETATM   24  C1  UNL     1      28.982  -2.565  53.157  1.00  0.00     0.034 C 
ENDBRANCH  22  23
ENDBRANCH   1  22
TORSDOF 6
ENDMDL
MODEL 2
REMARK VINA RESULT:      -7.4      1.722      2.225
REMARK  6 active torsions:
REMARK  status: ('A' for Active; 'I' for Inactive)
REMARK    1  A    between atoms: C2_2  and  O1_3 
REMARK    2  A    between atoms: O1_3  and  C3_4 
REMARK    3  A    between atoms: C9_12  and  N3_13 
REMARK    4  A    between atoms: N3_13  and  C10_14 
REMARK    5  A    between atoms: C10_14  and  C11_15 
REMARK    6  A    between atoms: C16_21  and  C17_22 
ROOT
HETATM    1  C3  UNL     1      26.477  -0.021  53.972  1.00  0.00     0.084 A 
HETATM    2  C4  UNL     1      25.493  -0.654  54.731  1.00  0.00     0.070 A 
HETATM    3  C5  UNL     1      24.155  -0.605  54.388  1.00  0.00     0.071 A 
HETATM    4  N1  UNL     1      23.289  -1.249  55.191  1.00  0.00    -0.259 NA
HETATM    5  C6  UNL     1      21.991  -1.223  54.891  1.00  0.00     0.142 A 
HETATM    6  C7  UNL     1      21.604  -0.531  53.767  1.00  0.00     0.089 A 
HETATM    7  C8  UNL     1      20.204  -0.518  53.457  1.00  0.00     0.103 C 
HETATM    8  N2  UNL     1      19.083  -0.528  53.210  1.00  0.00    -0.191 NA
HETATM    9  C9  UNL     1      22.468   0.139  52.926  1.00  0.00     0.063 A 
HETATM   10  C14 UNL     1      23.804   0.094  53.261  1.00  0.00     0.022 A 
HETATM   11  C15 UNL     1      24.715   0.751  52.450  1.00  0.00     0.033 A 
HETATM   12  C16 UNL     1      26.054   0.667  52.844  1.00  0.00     0.036 A 
ENDROOT
BRANCH   9  13
HETATM   13  N3  UNL     1      22.094   0.862  51.766  1.00  0.00    -0.384 N 
HETATM   14  H8  UNL     1      22.245   0.196  50.955  1.00  0.00     0.160 HD
BRANCH  13  15
HETATM   15  C10 UNL     1      21.605   2.190  51.573  1.00  0.00     0.148 C 
BRANCH  15  16
HETATM   16  C11 UNL     1      22.411   2.855  50.517  1.00  0.00     0.011 C 
HETATM   17  C12 UNL     1      23.276   3.815  50.855  1.00  0.00     0.005 C 
HETATM   18  C13 UNL     1      23.410   4.195  52.306  1.00  0.00     0.061 C 
HETATM   19 CL1  UNL     1      24.242   4.620  49.639  1.00  0.00    -0.090 Cl
ENDBRANCH  15  16
ENDBRANCH  13  15
ENDBRANCH   9  13
BRANCH  12  20
HETATM   20  C17 UNL     1      27.004   1.351  52.000  1.00  0.00     0.272 C 
HETATM   21  O2  UNL     1      27.542   2.481  52.114  1.00  0.00    -0.301 OA
ENDBRANCH  12  20
BRANCH   1  22
HETATM   22  O1  UNL     1      27.707  -0.050  54.260  1.00  0.00    -0.350 OA
BRANCH  22  23
HETATM   23  C2  UNL     1      28.949  -0.142  54.580  1.00  0.00     0.171 C 
HETATM   24  C1  UNL     1      29.792  -0.892  53.518  1.00  0.00     0.034 C 
ENDBRANCH  22  23
ENDBRANCH   1  22
TORSDOF 6
ENDMDL
MODEL 3
REMARK VINA RESULT:      -7.4      3.451      6.322
REMARK  6 active torsions:
REMARK  status: ('A' for Active; 'I' for Inactive)
REMARK    1  A    between atoms: C2_2  and  O1_3 
REMARK    2  A    between atoms: O1_3  and  C3_4 
REMARK    3  A    between atoms: C9_12  and  N3_13 
REMARK    4  A    between atoms: N3_13  and  C10_14 
REMARK    5  A    between atoms: C10_14  and  C11_15 
REMARK    6  A    between atoms: C16_21  and  C17_22 
ROOT
HETATM    1  C3  UNL     1      20.485  -0.017  52.711  1.00  0.00     0.084 A 
HETATM    2  C4  UNL     1      20.749   1.054  51.858  1.00  0.00     0.070 A 
HETATM    3  C5  UNL     1      22.034   1.490  51.601  1.00  0.00     0.071 A 
HETATM    4  N1  UNL     1      22.176   2.533  50.762  1.00  0.00    -0.259 NA
HETATM    5  C6  UNL     1      23.401   2.980  50.492  1.00  0.00     0.142 A 
HETATM    6  C7  UNL     1      24.465   2.346  51.091  1.00  0.00     0.089 A 
HETATM    7  C8  UNL     1      25.776   2.837  50.784  1.00  0.00     0.103 C 
HETATM    8  N2  UNL     1      26.823   3.230  50.518  1.00  0.00    -0.191 NA
HETATM    9  C9  UNL     1      24.351   1.277  51.954  1.00  0.00     0.063 A 
HETATM   10  C14 UNL     1      23.072   0.835  52.215  1.00  0.00     0.022 A 
HETATM   11  C15 UNL     1      22.901  -0.236  53.076  1.00  0.00     0.033 A 
HETATM   12  C16 UNL     1      21.580  -0.635  53.299  1.00  0.00     0.036 A 
ENDROOT
BRANCH   9  13
HETATM   13  N3  UNL     1      25.430   0.610  52.586  1.00  0.00    -0.384 N 
HETATM   14  H8  UNL     1      25.609  -0.258  52.005  1.00  0.00     0.160 HD
BRANCH  13  15
HETATM   15  C10 UNL     1      26.203   0.914  53.748  1.00  0.00     0.148 C 
BRANCH  15  16
HETATM   16  C11 UNL     1      27.475   0.148  53.699  1.00  0.00     0.011 C 
HETATM   17  C12 UNL     1      28.636   0.804  53.616  1.00  0.00     0.005 C 
HETATM   18  C13 UNL     1      28.620   2.308  53.574  1.00  0.00     0.061 C 
HETATM   19 CL1  UNL     1      30.153  -0.064  53.557  1.00  0.00    -0.090 Cl
ENDBRANCH  15  16
ENDBRANCH  13  15
ENDBRANCH   9  13
BRANCH  12  20
HETATM   20  C17 UNL     1      21.401  -1.752  54.196  1.00  0.00     0.272 C 
HETATM   21  O2  UNL     1      21.954  -2.025  55.290  1.00  0.00    -0.301 OA
ENDBRANCH  12  20
BRANCH   1  22
HETATM   22  O1  UNL     1      19.321  -0.438  52.964  1.00  0.00    -0.350 OA
BRANCH  22  23
HETATM   23  C2  UNL     1      18.118  -0.849  53.157  1.00  0.00     0.171 C 
HETATM   24  C1  UNL     1      18.047  -2.346  53.552  1.00  0.00     0.034 C 
ENDBRANCH  22  23
ENDBRANCH   1  22
TORSDOF 6
ENDMDL
MODEL 4
REMARK VINA RESULT:      -7.3      3.561      6.040
REMARK  6 active torsions:
REMARK  status: ('A' for Active; 'I' for Inactive)
REMARK    1  A    between atoms: C2_2  and  O1_3 
REMARK    2  A    between atoms: O1_3  and  C3_4 
REMARK    3  A    between atoms: C9_12  and  N3_13 
REMARK    4  A    between atoms: N3_13  and  C10_14 
REMARK    5  A    between atoms: C10_14  and  C11_15 
REMARK    6  A    between atoms: C16_21  and  C17_22 
ROOT
HETATM    1  C3  UNL     1      20.244  -0.831  53.483  1.00  0.00     0.084 A 
HETATM    2  C4  UNL     1      21.076  -1.310  54.495  1.00  0.00     0.070 A 
HETATM    3  C5  UNL     1      22.427  -1.022  54.533  1.00  0.00     0.071 A 
HETATM    4  N1  UNL     1      23.138  -1.536  55.553  1.00  0.00    -0.259 NA
HETATM    5  C6  UNL     1      24.443  -1.279  55.622  1.00  0.00     0.142 A 
HETATM    6  C7  UNL     1      24.998  -0.496  54.636  1.00  0.00     0.089 A 
HETATM    7  C8  UNL     1      26.403  -0.226  54.729  1.00  0.00     0.103 C 
HETATM    8  N2  UNL     1      27.526  -0.003  54.823  1.00  0.00    -0.191 NA
HETATM    9  C9  UNL     1      24.295   0.044  53.580  1.00  0.00     0.063 A 
HETATM   10  C14 UNL     1      22.947  -0.239  53.535  1.00  0.00     0.022 A 
HETATM   11  C15 UNL     1      22.194   0.279  52.494  1.00  0.00     0.033 A 
HETATM   12  C16 UNL     1      20.834  -0.044  52.505  1.00  0.00     0.036 A 
ENDROOT
BRANCH   9  13
HETATM   13  N3  UNL     1      24.844   0.849  52.551  1.00  0.00    -0.384 N 
HETATM   14  H8  UNL     1      25.022   0.191  51.738  1.00  0.00     0.160 HD
BRANCH  13  15
HETATM   15  C10 UNL     1      25.148   2.242  52.475  1.00  0.00     0.148 C 
BRANCH  15  16
HETATM   16  C11 UNL     1      26.095   2.473  51.354  1.00  0.00     0.011 C 
HETATM   17  C12 UNL     1      25.873   3.476  50.500  1.00  0.00     0.005 C 
HETATM   18  C13 UNL     1      24.662   4.347  50.700  1.00  0.00     0.061 C 
HETATM   19 CL1  UNL     1      26.966   3.778  49.169  1.00  0.00    -0.090 Cl
ENDBRANCH  15  16
ENDBRANCH  13  15
ENDBRANCH   9  13
BRANCH  12  20
HETATM   20  C17 UNL     1      20.048   0.495  51.421  1.00  0.00     0.272 C 
HETATM   21  O2  UNL     1      19.348   1.536  51.350  1.00  0.00    -0.301 OA
ENDBRANCH  12  20
BRANCH   1  22
HETATM   22  O1  UNL     1      19.006  -1.077  53.423  1.00  0.00    -0.350 OA
BRANCH  22  23
HETATM   23  C2  UNL     1      17.761  -1.387  53.328  1.00  0.00     0.171 C 
HETATM   24  C1  UNL     1      17.496  -2.898  53.546  1.00  0.00     0.034 C 
ENDBRANCH  22  23
ENDBRANCH   1  22
TORSDOF 6
ENDMDL
MODEL 5
REMARK VINA RESULT:      -7.1      2.861      4.400
REMARK  6 active torsions:
REMARK  status: ('A' for Active; 'I' for Inactive)
REMARK    1  A    between atoms: C2_2  and  O1_3 
REMARK    2  A    between atoms: O1_3  and  C3_4 
REMARK    3  A    between atoms: C9_12  and  N3_13 
REMARK    4  A    between atoms: N3_13  and  C10_14 
REMARK    5  A    between atoms: C10_14  and  C11_15 
REMARK    6  A    between atoms: C16_21  and  C17_22 
ROOT
HETATM    1  C3  UNL     1      26.852   0.670  53.179  1.00  0.00     0.084 A 
HETATM    2  C4  UNL     1      26.953   1.627  52.170  1.00  0.00     0.070 A 
HETATM    3  C5  UNL     1      25.853   2.061  51.455  1.00  0.00     0.071 A 
HETATM    4  N1  UNL     1      26.063   2.987  50.502  1.00  0.00    -0.259 NA
HETATM    5  C6  UNL     1      25.025   3.429  49.794  1.00  0.00     0.142 A 
HETATM    6  C7  UNL     1      23.784   2.908  50.076  1.00  0.00     0.089 A 
HETATM    7  C8  UNL     1      22.678   3.398  49.307  1.00  0.00     0.103 C 
HETATM    8  N2  UNL     1      21.797   3.810  48.695  1.00  0.00    -0.191 NA
HETATM    9  C9  UNL     1      23.538   1.958  51.046  1.00  0.00     0.063 A 
HETATM   10  C14 UNL     1      24.630   1.521  51.763  1.00  0.00     0.022 A 
HETATM   11  C15 UNL     1      24.439   0.567  52.750  1.00  0.00     0.033 A 
HETATM   12  C16 UNL     1      25.586   0.165  53.441  1.00  0.00     0.036 A 
ENDROOT
BRANCH   9  13
HETATM   13  N3  UNL     1      22.271   1.403  51.353  1.00  0.00    -0.384 N 
HETATM   14  H8  UNL     1      22.197   0.521  50.769  1.00  0.00     0.160 HD
BRANCH  13  15
HETATM   15  C10 UNL     1      21.222   1.820  52.228  1.00  0.00     0.148 C 
BRANCH  15  16
HETATM   16  C11 UNL     1      20.164   0.778  52.249  1.00  0.00     0.011 C 
HETATM   17  C12 UNL     1      20.050  -0.023  53.312  1.00  0.00     0.005 C 
HETATM   18  C13 UNL     1      21.004   0.155  54.463  1.00  0.00     0.061 C 
HETATM   19 CL1  UNL     1      18.816  -1.261  53.373  1.00  0.00    -0.090 Cl
ENDBRANCH  15  16
ENDBRANCH  13  15
ENDBRANCH   9  13
BRANCH  12  20
HETATM   20  C17 UNL     1      25.388  -0.829  54.469  1.00  0.00     0.272 C 
HETATM   21  O2  UNL     1      25.549  -0.769  55.713  1.00  0.00    -0.301 OA
ENDBRANCH  12  20
BRANCH   1  22
HETATM   22  O1  UNL     1      27.839   0.255  53.849  1.00  0.00    -0.350 OA
BRANCH  22  23
HETATM   23  C2  UNL     1      28.886  -0.137  54.485  1.00  0.00     0.171 C 
HETATM   24  C1  UNL     1      29.891  -0.897  53.582  1.00  0.00     0.034 C 
ENDBRANCH  22  23
ENDBRANCH   1  22
TORSDOF 6
ENDMDL
MODEL 6
REMARK VINA RESULT:      -6.8      3.635      5.748
REMARK  6 active torsions:
REMARK  status: ('A' for Active; 'I' for Inactive)
REMARK    1  A    between atoms: C2_2  and  O1_3 
REMARK    2  A    between atoms: O1_3  and  C3_4 
REMARK    3  A    between atoms: C9_12  and  N3_13 
REMARK    4  A    between atoms: N3_13  and  C10_14 
REMARK    5  A    between atoms: C10_14  and  C11_15 
REMARK    6  A    between atoms: C16_21  and  C17_22 
ROOT
HETATM    1  C3  UNL     1      25.749   2.946  50.419  1.00  0.00     0.084 A 
HETATM    2  C4  UNL     1      26.280   2.242  51.500  1.00  0.00     0.070 A 
HETATM    3  C5  UNL     1      25.504   1.419  52.293  1.00  0.00     0.071 A 
HETATM    4  N1  UNL     1      26.117   0.787  53.311  1.00  0.00    -0.259 NA
HETATM    5  C6  UNL     1      25.400  -0.014  54.097  1.00  0.00     0.142 A 
HETATM    6  C7  UNL     1      24.059  -0.151  53.824  1.00  0.00     0.089 A 
HETATM    7  C8  UNL     1      23.304  -1.022  54.677  1.00  0.00     0.103 C 
HETATM    8  N2  UNL     1      22.712  -1.734  55.358  1.00  0.00    -0.191 NA
HETATM    9  C9  UNL     1      23.403   0.483  52.790  1.00  0.00     0.063 A 
HETATM   10  C14 UNL     1      24.171   1.305  51.993  1.00  0.00     0.022 A 
HETATM   11  C15 UNL     1      23.561   1.967  50.939  1.00  0.00     0.033 A 
HETATM   12  C16 UNL     1      24.394   2.784  50.170  1.00  0.00     0.036 A 
ENDROOT
BRANCH   9  13
HETATM   13  N3  UNL     1      22.024   0.361  52.491  1.00  0.00    -0.384 N 
HETATM   14  H8  UNL     1      21.969  -0.299  51.662  1.00  0.00     0.160 HD
BRANCH  13  15
HETATM   15  C10 UNL     1      20.855   0.933  53.079  1.00  0.00     0.148 C 
BRANCH  15  16
HETATM   16  C11 UNL     1      19.986  -0.157  53.593  1.00  0.00     0.011 C 
HETATM   17  C12 UNL     1      18.917  -0.536  52.887  1.00  0.00     0.005 C 
HETATM   18  C13 UNL     1      18.624   0.157  51.583  1.00  0.00     0.061 C 
HETATM   19 CL1  UNL     1      17.872  -1.816  53.460  1.00  0.00    -0.090 Cl
ENDBRANCH  15  16
ENDBRANCH  13  15
ENDBRANCH   9  13
BRANCH  12  20
HETATM   20  C17 UNL     1      23.760   3.475  49.072  1.00  0.00     0.272 C 
HETATM   21  O2  UNL     1      23.232   4.613  49.010  1.00  0.00    -0.301 OA
ENDBRANCH  12  20
BRANCH   1  22
HETATM   22  O1  UNL     1      26.434   3.704  49.676  1.00  0.00    -0.350 OA
BRANCH  22  23
HETATM   23  C2  UNL     1      27.150   4.512  48.976  1.00  0.00     0.171 C 
HETATM   24  C1  UNL     1      26.545   5.936  48.891  1.00  0.00     0.034 C 
ENDBRANCH  22  23
ENDBRANCH   1  22
TORSDOF 6
ENDMDL
MODEL 7
REMARK VINA RESULT:      -6.4      3.757      6.672
REMARK  6 active torsions:
REMARK  status: ('A' for Active; 'I' for Inactive)
REMARK    1  A    between atoms: C2_2  and  O1_3 
REMARK    2  A    between atoms: O1_3  and  C3_4 
REMARK    3  A    between atoms: C9_12  and  N3_13 
REMARK    4  A    between atoms: N3_13  and  C10_14 
REMARK    5  A    between atoms: C10_14  and  C11_15 
REMARK    6  A    between atoms: C16_21  and  C17_22 
ROOT
HETATM    1  C3  UNL     1      24.513   4.606  49.531  1.00  0.00     0.084 A 
HETATM    2  C4  UNL     1      25.719   4.134  50.049  1.00  0.00     0.070 A 
HETATM    3  C5  UNL     1      25.783   3.025  50.870  1.00  0.00     0.071 A 
HETATM    4  N1  UNL     1      26.998   2.657  51.315  1.00  0.00    -0.259 NA
HETATM    5  C6  UNL     1      27.098   1.591  52.108  1.00  0.00     0.142 A 
HETATM    6  C7  UNL     1      25.942   0.921  52.433  1.00  0.00     0.089 A 
HETATM    7  C8  UNL     1      26.069  -0.226  53.284  1.00  0.00     0.103 C 
HETATM    8  N2  UNL     1      26.185  -1.153  53.953  1.00  0.00    -0.191 NA
HETATM    9  C9  UNL     1      24.684   1.274  51.994  1.00  0.00     0.063 A 
HETATM   10  C14 UNL     1      24.612   2.380  51.174  1.00  0.00     0.022 A 
HETATM   11  C15 UNL     1      23.371   2.779  50.704  1.00  0.00     0.033 A 
HETATM   12  C16 UNL     1      23.365   3.906  49.878  1.00  0.00     0.036 A 
ENDROOT
BRANCH   9  13
HETATM   13  N3  UNL     1      23.479   0.603  52.318  1.00  0.00    -0.384 N 
HETATM   14  H8  UNL     1      23.267  -0.020  51.487  1.00  0.00     0.160 HD
BRANCH  13  15
HETATM   15  C10 UNL     1      22.627   0.649  53.463  1.00  0.00     0.148 C 
BRANCH  15  16
HETATM   16  C11 UNL     1      21.213   0.534  53.023  1.00  0.00     0.011 C 
HETATM   17  C12 UNL     1      20.475  -0.499  53.438  1.00  0.00     0.005 C 
HETATM   18  C13 UNL     1      21.103  -1.522  54.347  1.00  0.00     0.061 C 
HETATM   19 CL1  UNL     1      18.807  -0.667  52.940  1.00  0.00    -0.090 Cl
ENDBRANCH  15  16
ENDBRANCH  13  15
ENDBRANCH   9  13
BRANCH  12  20
HETATM   20  C17 UNL     1      22.073   4.324  49.388  1.00  0.00     0.272 C 
HETATM   21  O2  UNL     1      21.210   5.086  49.889  1.00  0.00    -0.301 OA
ENDBRANCH  12  20
BRANCH   1  22
HETATM   22  O1  UNL     1      24.424   5.617  48.779  1.00  0.00    -0.350 OA
BRANCH  22  23
HETATM   23  C2  UNL     1      24.341   6.685  48.069  1.00  0.00     0.171 C 
HETATM   24  C1  UNL     1      25.716   7.362  47.832  1.00  0.00     0.034 C 
ENDBRANCH  22  23
ENDBRANCH   1  22
TORSDOF 6
ENDMDL
MODEL 8
REMARK VINA RESULT:      -6.4      2.318      3.673
REMARK  6 active torsions:
REMARK  status: ('A' for Active; 'I' for Inactive)
REMARK    1  A    between atoms: C2_2  and  O1_3 
REMARK    2  A    between atoms: O1_3  and  C3_4 
REMARK    3  A    between atoms: C9_12  and  N3_13 
REMARK    4  A    between atoms: N3_13  and  C10_14 
REMARK    5  A    between atoms: C10_14  and  C11_15 
REMARK    6  A    between atoms: C16_21  and  C17_22 
ROOT
HETATM    1  C3  UNL     1      26.668   0.212  52.544  1.00  0.00     0.084 A 
HETATM    2  C4  UNL     1      27.034   1.167  51.596  1.00  0.00     0.070 A 
HETATM    3  C5  UNL     1      26.243   2.263  51.311  1.00  0.00     0.071 A 
HETATM    4  N1  UNL     1      26.691   3.122  50.378  1.00  0.00    -0.259 NA
HETATM    5  C6  UNL     1      25.953   4.189  50.078  1.00  0.00     0.142 A 
HETATM    6  C7  UNL     1      24.761   4.356  50.743  1.00  0.00     0.089 A 
HETATM    7  C8  UNL     1      23.983   5.513  50.411  1.00  0.00     0.103 C 
HETATM    8  N2  UNL     1      23.376   6.452  50.148  1.00  0.00    -0.191 NA
HETATM    9  C9  UNL     1      24.276   3.493  51.703  1.00  0.00     0.063 A 
HETATM   10  C14 UNL     1      25.060   2.398  51.993  1.00  0.00     0.022 A 
HETATM   11  C15 UNL     1      24.619   1.499  52.950  1.00  0.00     0.033 A 
HETATM   12  C16 UNL     1      25.460   0.410  53.198  1.00  0.00     0.036 A 
ENDROOT
BRANCH   9  13
HETATM   13  N3  UNL     1      23.050   3.640  52.399  1.00  0.00    -0.384 N 
HETATM   14  H8  UNL     1      23.313   3.965  53.374  1.00  0.00     0.160 HD
BRANCH  13  15
HETATM   15  C10 UNL     1      21.691   3.436  52.013  1.00  0.00     0.148 C 
BRANCH  15  16
HETATM   16  C11 UNL     1      21.608   2.234  51.144  1.00  0.00     0.011 C 
HETATM   17  C12 UNL     1      21.291   2.375  49.854  1.00  0.00     0.005 C 
HETATM   18  C13 UNL     1      21.026   3.755  49.316  1.00  0.00     0.061 C 
HETATM   19 CL1  UNL     1      21.184   0.982  48.801  1.00  0.00    -0.090 Cl
ENDBRANCH  15  16
ENDBRANCH  13  15
ENDBRANCH   9  13
BRANCH  12  20
HETATM   20  C17 UNL     1      25.001  -0.528  54.195  1.00  0.00     0.272 C 
HETATM   21  O2  UNL     1      25.500  -0.866  55.298  1.00  0.00    -0.301 OA
ENDBRANCH  12  20
BRANCH   1  22
HETATM   22  O1  UNL     1      27.372  -0.799  52.825  1.00  0.00    -0.350 OA
BRANCH  22  23
HETATM   23  C2  UNL     1      28.135  -1.804  53.066  1.00  0.00     0.171 C 
HETATM   24  C1  UNL     1      29.576  -1.389  53.458  1.00  0.00     0.034 C 
ENDBRANCH  22  23
ENDBRANCH   1  22
TORSDOF 6
ENDMDL
MODEL 9
REMARK VINA RESULT:      -6.1      8.112     10.480
REMARK  6 active torsions:
REMARK  status: ('A' for Active; 'I' for Inactive)
REMARK    1  A    between atoms: C2_2  and  O1_3 
REMARK    2  A    between atoms: O1_3  and  C3_4 
REMARK    3  A    between atoms: C9_12  and  N3_13 
REMARK    4  A    between atoms: N3_13  and  C10_14 
REMARK    5  A    between atoms: C10_14  and  C11_15 
REMARK    6  A    between atoms: C16_21  and  C17_22 
ROOT
HETATM    1  C3  UNL     1      32.576   7.876  48.053  1.00  0.00     0.084 A 
HETATM    2  C4  UNL     1      32.581   9.217  47.672  1.00  0.00     0.070 A 
HETATM    3  C5  UNL     1      31.553  10.080  48.000  1.00  0.00     0.071 A 
HETATM    4  N1  UNL     1      31.659  11.353  47.580  1.00  0.00    -0.259 NA
HETATM    5  C6  UNL     1      30.686  12.212  47.879  1.00  0.00     0.142 A 
HETATM    6  C7  UNL     1      29.615  11.746  48.606  1.00  0.00     0.089 A 
HETATM    7  C8  UNL     1      28.580  12.686  48.922  1.00  0.00     0.103 C 
HETATM    8  N2  UNL     1      27.765  13.452  49.183  1.00  0.00    -0.191 NA
HETATM    9  C9  UNL     1      29.479  10.447  49.049  1.00  0.00     0.063 A 
HETATM   10  C14 UNL     1      30.501   9.581  48.725  1.00  0.00     0.022 A 
HETATM   11  C15 UNL     1      30.414   8.264  49.146  1.00  0.00     0.033 A 
HETATM   12  C16 UNL     1      31.482   7.437  48.786  1.00  0.00     0.036 A 
ENDROOT
BRANCH   9  13
HETATM   13  N3  UNL     1      28.385   9.941  49.795  1.00  0.00    -0.384 N 
HETATM   14  H8  UNL     1      28.739   9.843  50.789  1.00  0.00     0.160 HD
BRANCH  13  15
HETATM   15  C10 UNL     1      27.049   9.593  49.431  1.00  0.00     0.148 C 
BRANCH  15  16
HETATM   16  C11 UNL     1      26.862   8.130  49.608  1.00  0.00     0.011 C 
HETATM   17  C12 UNL     1      26.929   7.324  48.545  1.00  0.00     0.005 C 
HETATM   18  C13 UNL     1      27.194   7.926  47.191  1.00  0.00     0.061 C 
HETATM   19 CL1  UNL     1      26.715   5.596  48.715  1.00  0.00    -0.090 Cl
ENDBRANCH  15  16
ENDBRANCH  13  15
ENDBRANCH   9  13
BRANCH  12  20
HETATM   20  C17 UNL     1      31.393   6.064  49.224  1.00  0.00     0.272 C 
HETATM   21  O2  UNL     1      31.731   5.521  50.305  1.00  0.00    -0.301 OA
ENDBRANCH  12  20
BRANCH   1  22
HETATM   22  O1  UNL     1      33.502   7.065  47.768  1.00  0.00    -0.350 OA
BRANCH  22  23
HETATM   23  C2  UNL     1      34.477   6.259  47.536  1.00  0.00     0.171 C 
HETATM   24  C1  UNL     1      35.222   5.825  48.823  1.00  0.00     0.034 C 
ENDBRANCH  22  23
ENDBRANCH   1  22
TORSDOF 6
ENDMDL
