MODEL 1
REMARK VINA RESULT:      -7.9      0.000      0.000
REMARK  4 active torsions:
REMARK  status: ('A' for Active; 'I' for Inactive)
REMARK    1  A    between atoms: O1_2  and  C2_3 
REMARK    2  A    between atoms: C4_5  and  N1_6 
REMARK    3  A    between atoms: N1_6  and  C5_7 
REMARK    4  A    between atoms: C17_22  and  O3_23 
ROOT
HETATM    1  C2  UNL     1      26.767   0.128  53.867  1.00  0.00     0.106 A 
HETATM    2  C3  UNL     1      26.906   0.998  52.814  1.00  0.00     0.069 A 
HETATM    3  C4  UNL     1      25.880   1.366  51.935  1.00  0.00     0.039 A 
HETATM    4  C14 UNL     1      24.678   0.760  52.227  1.00  0.00     0.069 A 
HETATM    5  C15 UNL     1      24.427  -0.125  53.255  1.00  0.00     0.106 A 
HETATM    6  O2  UNL     1      23.313  -0.665  53.502  1.00  0.00    -0.353 OA
HETATM    7  C16 UNL     1      22.106  -1.164  53.658  1.00  0.00     0.210 C 
HETATM    8  C17 UNL     1      25.524  -0.427  54.078  1.00  0.00     0.135 A 
ENDROOT
BRANCH   8   9
HETATM    9  O3  UNL     1      25.366  -1.305  55.134  1.00  0.00    -0.351 OA
HETATM   10  C18 UNL     1      24.961  -0.985  56.428  1.00  0.00     0.210 C 
ENDBRANCH   8   9
BRANCH   3  11
HETATM   11  N1  UNL     1      26.142   2.273  50.881  1.00  0.00    -0.340 N 
HETATM   12  H5  UNL     1      26.819   1.939  50.159  1.00  0.00     0.167 HD
BRANCH  11  13
HETATM   13  C5  UNL     1      25.595   3.558  50.710  1.00  0.00     0.141 A 
HETATM   14  N2  UNL     1      24.523   4.069  51.331  1.00  0.00    -0.224 NA
HETATM   15  C6  UNL     1      24.019   5.294  51.151  1.00  0.00     0.236 A 
HETATM   16  N3  UNL     1      24.596   6.140  50.280  1.00  0.00    -0.241 NA
HETATM   17  C7  UNL     1      25.677   5.707  49.614  1.00  0.00     0.074 A 
HETATM   18  C8  UNL     1      26.176   4.439  49.818  1.00  0.00     0.036 A 
HETATM   19  C12 UNL     1      26.390   6.367  48.719  1.00  0.00    -0.047 A 
HETATM   20  C9  UNL     1      27.250   4.283  49.023  1.00  0.00    -0.000 A 
HETATM   21  C10 UNL     1      27.512   5.515  48.222  1.00  0.00     0.036 A 
HETATM   22  C11 UNL     1      28.848   6.126  48.462  1.00  0.00     0.019 C 
HETATM   23  C13 UNL     1      26.175   7.759  48.217  1.00  0.00     0.046 C 
ENDBRANCH  11  13
ENDBRANCH   3  11
BRANCH   1  24
HETATM   24  O1  UNL     1      27.838  -0.180  54.687  1.00  0.00    -0.353 OA
HETATM   25  C1  UNL     1      29.122  -0.452  54.182  1.00  0.00     0.210 C 
ENDBRANCH   1  24
TORSDOF 4
ENDMDL
MODEL 2
REMARK VINA RESULT:      -7.8      0.899      2.763
REMARK  4 active torsions:
REMARK  status: ('A' for Active; 'I' for Inactive)
REMARK    1  A    between atoms: O1_2  and  C2_3 
REMARK    2  A    between atoms: C4_5  and  N1_6 
REMARK    3  A    between atoms: N1_6  and  C5_7 
REMARK    4  A    between atoms: C17_22  and  O3_23 
ROOT
HETATM    1  C2  UNL     1      23.843  -0.178  53.514  1.00  0.00     0.106 A 
HETATM    2  C3  UNL     1      23.699   0.722  52.488  1.00  0.00     0.069 A 
HETATM    3  C4  UNL     1      24.719   1.538  51.984  1.00  0.00     0.039 A 
HETATM    4  C14 UNL     1      25.922   1.354  52.629  1.00  0.00     0.069 A 
HETATM    5  C15 UNL     1      26.178   0.482  53.667  1.00  0.00     0.106 A 
HETATM    6  O2  UNL     1      27.294   0.331  54.240  1.00  0.00    -0.353 OA
HETATM    7  C16 UNL     1      28.501   0.264  54.758  1.00  0.00     0.210 C 
HETATM    8  C17 UNL     1      25.087  -0.290  54.096  1.00  0.00     0.135 A 
ENDROOT
BRANCH   8   9
HETATM    9  O3  UNL     1      25.250  -1.191  55.131  1.00  0.00    -0.351 OA
HETATM   10  C18 UNL     1      24.991  -0.964  56.481  1.00  0.00     0.210 C 
ENDBRANCH   8   9
BRANCH   3  11
HETATM   11  N1  UNL     1      24.452   2.432  50.920  1.00  0.00    -0.340 N 
HETATM   12  H5  UNL     1      24.215   1.983  50.007  1.00  0.00     0.167 HD
BRANCH  11  13
HETATM   13  C5  UNL     1      24.475   3.837  50.965  1.00  0.00     0.141 A 
HETATM   14  N2  UNL     1      23.747   4.632  51.760  1.00  0.00    -0.224 NA
HETATM   15  C6  UNL     1      23.784   5.969  51.784  1.00  0.00     0.236 A 
HETATM   16  N3  UNL     1      24.607   6.636  50.958  1.00  0.00    -0.241 NA
HETATM   17  C7  UNL     1      25.374   5.914  50.126  1.00  0.00     0.074 A 
HETATM   18  C8  UNL     1      25.316   4.537  50.122  1.00  0.00     0.036 A 
HETATM   19  C12 UNL     1      26.243   6.363  49.238  1.00  0.00    -0.047 A 
HETATM   20  C9  UNL     1      26.183   4.089  49.196  1.00  0.00    -0.000 A 
HETATM   21  C10 UNL     1      26.884   5.221  48.519  1.00  0.00     0.036 A 
HETATM   22  C11 UNL     1      28.364   5.201  48.674  1.00  0.00     0.019 C 
HETATM   23  C13 UNL     1      26.594   7.784  48.931  1.00  0.00     0.046 C 
ENDBRANCH  11  13
ENDBRANCH   3  11
BRANCH   1  24
HETATM   24  O1  UNL     1      22.777  -0.945  53.949  1.00  0.00    -0.353 OA
HETATM   25  C1  UNL     1      21.632  -0.382  54.539  1.00  0.00     0.210 C 
ENDBRANCH   1  24
TORSDOF 4
ENDMDL
MODEL 3
REMARK VINA RESULT:      -7.8      1.785      3.558
REMARK  4 active torsions:
REMARK  status: ('A' for Active; 'I' for Inactive)
REMARK    1  A    between atoms: O1_2  and  C2_3 
REMARK    2  A    between atoms: C4_5  and  N1_6 
REMARK    3  A    between atoms: N1_6  and  C5_7 
REMARK    4  A    between atoms: C17_22  and  O3_23 
ROOT
HETATM    1  C2  UNL     1      24.487   0.187  53.211  1.00  0.00     0.106 A 
HETATM    2  C3  UNL     1      24.052   1.484  53.109  1.00  0.00     0.069 A 
HETATM    3  C4  UNL     1      24.849   2.618  53.311  1.00  0.00     0.039 A 
HETATM    4  C14 UNL     1      26.152   2.308  53.633  1.00  0.00     0.069 A 
HETATM    5  C15 UNL     1      26.694   1.047  53.762  1.00  0.00     0.106 A 
HETATM    6  O2  UNL     1      27.895   0.791  54.058  1.00  0.00    -0.353 OA
HETATM    7  C16 UNL     1      29.165   0.652  54.371  1.00  0.00     0.210 C 
HETATM    8  C17 UNL     1      25.810  -0.021  53.538  1.00  0.00     0.135 A 
ENDROOT
BRANCH   8   9
HETATM    9  O3  UNL     1      26.265  -1.321  53.646  1.00  0.00    -0.351 OA
HETATM   10  C18 UNL     1      26.904  -2.064  52.655  1.00  0.00     0.210 C 
ENDBRANCH   8   9
BRANCH   3  11
HETATM   11  N1  UNL     1      24.289   3.910  53.178  1.00  0.00    -0.340 N 
HETATM   12  H5  UNL     1      24.598   4.608  53.892  1.00  0.00     0.167 HD
BRANCH  11  13
HETATM   13  C5  UNL     1      23.373   4.344  52.203  1.00  0.00     0.141 A 
HETATM   14  N2  UNL     1      22.049   4.491  52.347  1.00  0.00    -0.224 NA
HETATM   15  C6  UNL     1      21.196   4.903  51.403  1.00  0.00     0.236 A 
HETATM   16  N3  UNL     1      21.646   5.215  50.176  1.00  0.00    -0.241 NA
HETATM   17  C7  UNL     1      22.962   5.094  49.946  1.00  0.00     0.074 A 
HETATM   18  C8  UNL     1      23.820   4.667  50.936  1.00  0.00     0.036 A 
HETATM   19  C12 UNL     1      23.610   5.343  48.822  1.00  0.00    -0.047 A 
HETATM   20  C9  UNL     1      25.064   4.642  50.425  1.00  0.00    -0.000 A 
HETATM   21  C10 UNL     1      25.069   5.079  48.997  1.00  0.00     0.036 A 
HETATM   22  C11 UNL     1      25.908   6.280  48.731  1.00  0.00     0.019 C 
HETATM   23  C13 UNL     1      23.046   5.817  47.520  1.00  0.00     0.046 C 
ENDBRANCH  11  13
ENDBRANCH   3  11
BRANCH   1  24
HETATM   24  O1  UNL     1      23.628  -0.876  52.994  1.00  0.00    -0.353 OA
HETATM   25  C1  UNL     1      22.331  -0.921  53.533  1.00  0.00     0.210 C 
ENDBRANCH   1  24
TORSDOF 4
ENDMDL
MODEL 4
REMARK VINA RESULT:      -7.7      3.515      7.625
REMARK  4 active torsions:
REMARK  status: ('A' for Active; 'I' for Inactive)
REMARK    1  A    between atoms: O1_2  and  C2_3 
REMARK    2  A    between atoms: C4_5  and  N1_6 
REMARK    3  A    between atoms: N1_6  and  C5_7 
REMARK    4  A    between atoms: C17_22  and  O3_23 
ROOT
HETATM    1  C2  UNL     1      27.102   5.705  48.665  1.00  0.00     0.106 A 
HETATM    2  C3  UNL     1      27.201   4.428  49.158  1.00  0.00     0.069 A 
HETATM    3  C4  UNL     1      26.270   3.820  50.010  1.00  0.00     0.039 A 
HETATM    4  C14 UNL     1      25.209   4.643  50.321  1.00  0.00     0.069 A 
HETATM    5  C15 UNL     1      25.011   5.936  49.883  1.00  0.00     0.106 A 
HETATM    6  O2  UNL     1      24.026   6.668  50.184  1.00  0.00    -0.353 OA
HETATM    7  C16 UNL     1      22.958   7.333  50.566  1.00  0.00     0.210 C 
HETATM    8  C17 UNL     1      26.003   6.450  49.034  1.00  0.00     0.135 A 
ENDROOT
BRANCH   8   9
HETATM    9  O3  UNL     1      25.887   7.738  48.546  1.00  0.00    -0.351 OA
HETATM   10  C18 UNL     1      25.256   8.128  47.367  1.00  0.00     0.210 C 
ENDBRANCH   8   9
BRANCH   3  11
HETATM   11  N1  UNL     1      26.478   2.494  50.457  1.00  0.00    -0.340 N 
HETATM   12  H5  UNL     1      26.343   1.752  49.734  1.00  0.00     0.167 HD
BRANCH  11  13
HETATM   13  C5  UNL     1      26.839   2.081  51.751  1.00  0.00     0.141 A 
HETATM   14  N2  UNL     1      27.930   2.441  52.440  1.00  0.00    -0.224 NA
HETATM   15  C6  UNL     1      28.254   2.033  53.672  1.00  0.00     0.236 A 
HETATM   16  N3  UNL     1      27.452   1.181  54.334  1.00  0.00    -0.241 NA
HETATM   17  C7  UNL     1      26.336   0.769  53.714  1.00  0.00     0.074 A 
HETATM   18  C8  UNL     1      26.025   1.205  52.444  1.00  0.00     0.036 A 
HETATM   19  C12 UNL     1      25.418  -0.061  54.177  1.00  0.00    -0.047 A 
HETATM   20  C9  UNL     1      24.863   0.632  52.082  1.00  0.00    -0.000 A 
HETATM   21  C10 UNL     1      24.337  -0.252  53.164  1.00  0.00     0.036 A 
HETATM   22  C11 UNL     1      22.994   0.142  53.674  1.00  0.00     0.019 C 
HETATM   23  C13 UNL     1      25.387  -0.754  55.502  1.00  0.00     0.046 C 
ENDBRANCH  11  13
ENDBRANCH   3  11
BRANCH   1  24
HETATM   24  O1  UNL     1      28.072   6.226  47.827  1.00  0.00    -0.353 OA
HETATM   25  C1  UNL     1      29.444   5.989  48.020  1.00  0.00     0.210 C 
ENDBRANCH   1  24
TORSDOF 4
ENDMDL
MODEL 5
REMARK VINA RESULT:      -7.6      3.883      8.078
REMARK  4 active torsions:
REMARK  status: ('A' for Active; 'I' for Inactive)
REMARK    1  A    between atoms: O1_2  and  C2_3 
REMARK    2  A    between atoms: C4_5  and  N1_6 
REMARK    3  A    between atoms: N1_6  and  C5_7 
REMARK    4  A    between atoms: C17_22  and  O3_23 
ROOT
HETATM    1  C2  UNL     1      25.767   7.137  49.837  1.00  0.00     0.106 A 
HETATM    2  C3  UNL     1      25.477   5.802  49.969  1.00  0.00     0.069 A 
HETATM    3  C4  UNL     1      26.218   4.759  49.401  1.00  0.00     0.039 A 
HETATM    4  C14 UNL     1      27.300   5.202  48.674  1.00  0.00     0.069 A 
HETATM    5  C15 UNL     1      27.683   6.512  48.477  1.00  0.00     0.106 A 
HETATM    6  O2  UNL     1      28.683   6.891  47.805  1.00  0.00    -0.353 OA
HETATM    7  C16 UNL     1      29.749   7.162  47.082  1.00  0.00     0.210 C 
HETATM    8  C17 UNL     1      26.872   7.481  49.089  1.00  0.00     0.135 A 
ENDROOT
BRANCH   8   9
HETATM    9  O3  UNL     1      27.179   8.821  48.946  1.00  0.00    -0.351 OA
HETATM   10  C18 UNL     1      28.035   9.569  49.751  1.00  0.00     0.210 C 
ENDBRANCH   8   9
BRANCH   3  11
HETATM   11  N1  UNL     1      25.821   3.416  49.605  1.00  0.00    -0.340 N 
HETATM   12  H5  UNL     1      25.352   2.959  48.791  1.00  0.00     0.167 HD
BRANCH  11  13
HETATM   13  C5  UNL     1      25.989   2.648  50.771  1.00  0.00     0.141 A 
HETATM   14  N2  UNL     1      27.122   2.468  51.464  1.00  0.00    -0.224 NA
HETATM   15  C6  UNL     1      27.259   1.730  52.571  1.00  0.00     0.236 A 
HETATM   16  N3  UNL     1      26.199   1.083  53.086  1.00  0.00    -0.241 NA
HETATM   17  C7  UNL     1      25.024   1.210  52.452  1.00  0.00     0.074 A 
HETATM   18  C8  UNL     1      24.910   1.977  51.313  1.00  0.00     0.036 A 
HETATM   19  C12 UNL     1      23.867   0.663  52.783  1.00  0.00    -0.047 A 
HETATM   20  C9  UNL     1      23.631   1.918  50.900  1.00  0.00    -0.000 A 
HETATM   21  C10 UNL     1      22.809   1.062  51.807  1.00  0.00     0.036 A 
HETATM   22  C11 UNL     1      21.671   1.774  52.450  1.00  0.00     0.019 C 
HETATM   23  C13 UNL     1      23.572  -0.235  53.942  1.00  0.00     0.046 C 
ENDBRANCH  11  13
ENDBRANCH   3  11
BRANCH   1  24
HETATM   24  O1  UNL     1      24.977   8.104  50.434  1.00  0.00    -0.353 OA
HETATM   25  C1  UNL     1      23.600   7.927  50.650  1.00  0.00     0.210 C 
ENDBRANCH   1  24
TORSDOF 4
ENDMDL
MODEL 6
REMARK VINA RESULT:      -7.5      3.407      8.033
REMARK  4 active torsions:
REMARK  status: ('A' for Active; 'I' for Inactive)
REMARK    1  A    between atoms: O1_2  and  C2_3 
REMARK    2  A    between atoms: C4_5  and  N1_6 
REMARK    3  A    between atoms: N1_6  and  C5_7 
REMARK    4  A    between atoms: C17_22  and  O3_23 
ROOT
HETATM    1  C2  UNL     1      24.181   5.994  50.484  1.00  0.00     0.106 A 
HETATM    2  C3  UNL     1      23.845   4.697  50.779  1.00  0.00     0.069 A 
HETATM    3  C4  UNL     1      24.615   3.573  50.456  1.00  0.00     0.039 A 
HETATM    4  C14 UNL     1      25.780   3.893  49.794  1.00  0.00     0.069 A 
HETATM    5  C15 UNL     1      26.214   5.155  49.448  1.00  0.00     0.106 A 
HETATM    6  O2  UNL     1      27.290   5.420  48.841  1.00  0.00    -0.353 OA
HETATM    7  C16 UNL     1      28.433   5.570  48.207  1.00  0.00     0.210 C 
HETATM    8  C17 UNL     1      25.368   6.212  49.819  1.00  0.00     0.135 A 
ENDROOT
BRANCH   8   9
HETATM    9  O3  UNL     1      25.722   7.513  49.514  1.00  0.00    -0.351 OA
HETATM   10  C18 UNL     1      26.420   8.398  50.331  1.00  0.00     0.210 C 
ENDBRANCH   8   9
BRANCH   3  11
HETATM   11  N1  UNL     1      24.166   2.280  50.811  1.00  0.00    -0.340 N 
HETATM   12  H5  UNL     1      23.424   1.878  50.195  1.00  0.00     0.167 HD
BRANCH  11  13
HETATM   13  C5  UNL     1      24.606   1.494  51.891  1.00  0.00     0.141 A 
HETATM   14  N2  UNL     1      25.861   1.377  52.347  1.00  0.00    -0.224 NA
HETATM   15  C6  UNL     1      26.257   0.621  53.376  1.00  0.00     0.236 A 
HETATM   16  N3  UNL     1      25.362  -0.115  54.058  1.00  0.00    -0.241 NA
HETATM   17  C7  UNL     1      24.080  -0.056  53.665  1.00  0.00     0.074 A 
HETATM   18  C8  UNL     1      23.698   0.732  52.601  1.00  0.00     0.036 A 
HETATM   19  C12 UNL     1      23.048  -0.693  54.189  1.00  0.00    -0.047 A 
HETATM   20  C9  UNL     1      22.370   0.593  52.438  1.00  0.00    -0.000 A 
HETATM   21  C10 UNL     1      21.797  -0.345  53.450  1.00  0.00     0.036 A 
HETATM   22  C11 UNL     1      20.760   0.264  54.327  1.00  0.00     0.019 C 
HETATM   23  C13 UNL     1      23.041  -1.642  55.345  1.00  0.00     0.046 C 
ENDBRANCH  11  13
ENDBRANCH   3  11
BRANCH   1  24
HETATM   24  O1  UNL     1      23.357   7.047  50.842  1.00  0.00    -0.353 OA
HETATM   25  C1  UNL     1      21.955   6.968  50.767  1.00  0.00     0.210 C 
ENDBRANCH   1  24
TORSDOF 4
ENDMDL
MODEL 7
REMARK VINA RESULT:      -7.3      3.549      7.663
REMARK  4 active torsions:
REMARK  status: ('A' for Active; 'I' for Inactive)
REMARK    1  A    between atoms: O1_2  and  C2_3 
REMARK    2  A    between atoms: C4_5  and  N1_6 
REMARK    3  A    between atoms: N1_6  and  C5_7 
REMARK    4  A    between atoms: C17_22  and  O3_23 
ROOT
HETATM    1  C2  UNL     1      24.592   6.337  50.466  1.00  0.00     0.106 A 
HETATM    2  C3  UNL     1      24.145   5.039  50.484  1.00  0.00     0.069 A 
HETATM    3  C4  UNL     1      24.811   3.951  49.907  1.00  0.00     0.039 A 
HETATM    4  C14 UNL     1      25.995   4.307  49.298  1.00  0.00     0.069 A 
HETATM    5  C15 UNL     1      26.536   5.574  49.220  1.00  0.00     0.106 A 
HETATM    6  O2  UNL     1      27.626   5.872  48.656  1.00  0.00    -0.353 OA
HETATM    7  C16 UNL     1      28.772   6.059  48.038  1.00  0.00     0.210 C 
HETATM    8  C17 UNL     1      25.788   6.593  49.831  1.00  0.00     0.135 A 
ENDROOT
BRANCH   8   9
HETATM    9  O3  UNL     1      26.253   7.894  49.803  1.00  0.00    -0.351 OA
HETATM   10  C18 UNL     1      25.931   8.873  48.866  1.00  0.00     0.210 C 
ENDBRANCH   8   9
BRANCH   3  11
HETATM   11  N1  UNL     1      24.253   2.654  49.988  1.00  0.00    -0.340 N 
HETATM   12  H5  UNL     1      24.253   2.110  49.096  1.00  0.00     0.167 HD
BRANCH  11  13
HETATM   13  C5  UNL     1      23.705   2.034  51.125  1.00  0.00     0.141 A 
HETATM   14  N2  UNL     1      22.438   2.110  51.555  1.00  0.00    -0.224 NA
HETATM   15  C6  UNL     1      21.939   1.513  52.642  1.00  0.00     0.236 A 
HETATM   16  N3  UNL     1      22.731   0.752  53.418  1.00  0.00    -0.241 NA
HETATM   17  C7  UNL     1      24.017   0.624  53.058  1.00  0.00     0.074 A 
HETATM   18  C8  UNL     1      24.506   1.250  51.933  1.00  0.00     0.036 A 
HETATM   19  C12 UNL     1      24.960  -0.068  53.673  1.00  0.00    -0.047 A 
HETATM   20  C9  UNL     1      25.811   0.947  51.823  1.00  0.00    -0.000 A 
HETATM   21  C10 UNL     1      26.254   0.056  52.938  1.00  0.00     0.036 A 
HETATM   22  C11 UNL     1      26.791  -1.259  52.491  1.00  0.00     0.019 C 
HETATM   23  C13 UNL     1      24.839  -0.880  54.924  1.00  0.00     0.046 C 
ENDBRANCH  11  13
ENDBRANCH   3  11
BRANCH   1  24
HETATM   24  O1  UNL     1      23.866   7.353  51.063  1.00  0.00    -0.353 OA
HETATM   25  C1  UNL     1      22.618   7.778  50.575  1.00  0.00     0.210 C 
ENDBRANCH   1  24
TORSDOF 4
ENDMDL
MODEL 8
REMARK VINA RESULT:      -7.3      1.262      3.537
REMARK  4 active torsions:
REMARK  status: ('A' for Active; 'I' for Inactive)
REMARK    1  A    between atoms: O1_2  and  C2_3 
REMARK    2  A    between atoms: C4_5  and  N1_6 
REMARK    3  A    between atoms: N1_6  and  C5_7 
REMARK    4  A    between atoms: C17_22  and  O3_23 
ROOT
HETATM    1  C2  UNL     1      23.822   0.029  53.496  1.00  0.00     0.106 A 
HETATM    2  C3  UNL     1      23.646   0.911  52.459  1.00  0.00     0.069 A 
HETATM    3  C4  UNL     1      24.679   1.504  51.724  1.00  0.00     0.039 A 
HETATM    4  C14 UNL     1      25.931   1.114  52.145  1.00  0.00     0.069 A 
HETATM    5  C15 UNL     1      26.222   0.239  53.171  1.00  0.00     0.106 A 
HETATM    6  O2  UNL     1      27.382  -0.103  53.536  1.00  0.00    -0.353 OA
HETATM    7  C16 UNL     1      28.635  -0.382  53.824  1.00  0.00     0.210 C 
HETATM    8  C17 UNL     1      25.114  -0.300  53.843  1.00  0.00     0.135 A 
ENDROOT
BRANCH   8   9
HETATM    9  O3  UNL     1      25.310  -1.186  54.885  1.00  0.00    -0.351 OA
HETATM   10  C18 UNL     1      25.266  -0.893  56.247  1.00  0.00     0.210 C 
ENDBRANCH   8   9
BRANCH   3  11
HETATM   11  N1  UNL     1      24.376   2.402  50.673  1.00  0.00    -0.340 N 
HETATM   12  H5  UNL     1      23.444   2.263  50.220  1.00  0.00     0.167 HD
BRANCH  11  13
HETATM   13  C5  UNL     1      25.186   3.441  50.183  1.00  0.00     0.141 A 
HETATM   14  N2  UNL     1      26.306   3.319  49.456  1.00  0.00    -0.224 NA
HETATM   15  C6  UNL     1      27.063   4.323  49.002  1.00  0.00     0.236 A 
HETATM   16  N3  UNL     1      26.724   5.597  49.266  1.00  0.00    -0.241 NA
HETATM   17  C7  UNL     1      25.614   5.809  49.990  1.00  0.00     0.074 A 
HETATM   18  C8  UNL     1      24.852   4.756  50.446  1.00  0.00     0.036 A 
HETATM   19  C12 UNL     1      25.105   6.970  50.362  1.00  0.00    -0.047 A 
HETATM   20  C9  UNL     1      23.814   5.263  51.135  1.00  0.00    -0.000 A 
HETATM   21  C10 UNL     1      23.859   6.756  51.158  1.00  0.00     0.036 A 
HETATM   22  C11 UNL     1      22.668   7.411  50.551  1.00  0.00     0.019 C 
HETATM   23  C13 UNL     1      25.631   8.340  50.076  1.00  0.00     0.046 C 
ENDBRANCH  11  13
ENDBRANCH   3  11
BRANCH   1  24
HETATM   24  O1  UNL     1      22.740  -0.510  54.169  1.00  0.00    -0.353 OA
HETATM   25  C1  UNL     1      21.423  -0.065  53.962  1.00  0.00     0.210 C 
ENDBRANCH   1  24
TORSDOF 4
ENDMDL
MODEL 9
REMARK VINA RESULT:      -7.3      4.082      8.024
REMARK  4 active torsions:
REMARK  status: ('A' for Active; 'I' for Inactive)
REMARK    1  A    between atoms: O1_2  and  C2_3 
REMARK    2  A    between atoms: C4_5  and  N1_6 
REMARK    3  A    between atoms: N1_6  and  C5_7 
REMARK    4  A    between atoms: C17_22  and  O3_23 
ROOT
HETATM    1  C2  UNL     1      28.692   5.897  48.214  1.00  0.00     0.106 A 
HETATM    2  C3  UNL     1      27.847   4.876  48.572  1.00  0.00     0.069 A 
HETATM    3  C4  UNL     1      26.551   5.044  49.074  1.00  0.00     0.039 A 
HETATM    4  C14 UNL     1      26.184   6.367  49.183  1.00  0.00     0.069 A 
HETATM    5  C15 UNL     1      26.949   7.467  48.856  1.00  0.00     0.106 A 
HETATM    6  O2  UNL     1      26.586   8.672  48.965  1.00  0.00    -0.353 OA
HETATM    7  C16 UNL     1      26.097   9.882  49.123  1.00  0.00     0.210 C 
HETATM    8  C17 UNL     1      28.233   7.188  48.361  1.00  0.00     0.135 A 
ENDROOT
BRANCH   8   9
HETATM    9  O3  UNL     1      29.071   8.229  48.006  1.00  0.00    -0.351 OA
HETATM   10  C18 UNL     1      29.177   8.820  46.749  1.00  0.00     0.210 C 
ENDBRANCH   8   9
BRANCH   3  11
HETATM   11  N1  UNL     1      25.769   3.913  49.410  1.00  0.00    -0.340 N 
HETATM   12  H5  UNL     1      24.987   3.698  48.752  1.00  0.00     0.167 HD
BRANCH  11  13
HETATM   13  C5  UNL     1      25.933   3.066  50.520  1.00  0.00     0.141 A 
HETATM   14  N2  UNL     1      27.065   2.834  51.199  1.00  0.00    -0.224 NA
HETATM   15  C6  UNL     1      27.199   2.021  52.252  1.00  0.00     0.236 A 
HETATM   16  N3  UNL     1      26.136   1.345  52.722  1.00  0.00    -0.241 NA
HETATM   17  C7  UNL     1      24.961   1.521  52.099  1.00  0.00     0.074 A 
HETATM   18  C8  UNL     1      24.851   2.364  51.015  1.00  0.00     0.036 A 
HETATM   19  C12 UNL     1      23.802   0.958  52.392  1.00  0.00    -0.047 A 
HETATM   20  C9  UNL     1      23.572   2.341  50.599  1.00  0.00    -0.000 A 
HETATM   21  C10 UNL     1      22.746   1.428  51.445  1.00  0.00     0.036 A 
HETATM   22  C11 UNL     1      21.611   2.099  52.136  1.00  0.00     0.019 C 
HETATM   23  C13 UNL     1      23.502  -0.016  53.486  1.00  0.00     0.046 C 
ENDBRANCH  11  13
ENDBRANCH   3  11
BRANCH   1  24
HETATM   24  O1  UNL     1      29.961   5.639  47.726  1.00  0.00    -0.353 OA
HETATM   25  C1  UNL     1      31.111   5.720  48.530  1.00  0.00     0.210 C 
ENDBRANCH   1  24
TORSDOF 4
ENDMDL
