MODEL 1
REMARK VINA RESULT:      -7.2      0.000      0.000
REMARK  6 active torsions:
REMARK  status: ('A' for Active; 'I' for Inactive)
REMARK    1  A    between atoms: C1_2  and  C2_3 
REMARK    2  A    between atoms: C1_2  and  N4_14 
REMARK    3  A    between atoms: C2_3  and  N2_4 
REMARK    4  A    between atoms: N2_4  and  C3_5 
REMARK    5  A    between atoms: C3_5  and  C4_6 
REMARK    6  A    between atoms: N4_14  and  C11_15 
ROOT
HETATM    1  C2  UNL     1      25.729   2.468  53.457  1.00  0.00     0.225 C 
ENDROOT
BRANCH   1   2
HETATM    2  C1  UNL     1      26.687   2.083  52.388  1.00  0.00     0.112 C 
HETATM    3  N1  UNL     1      27.168   2.897  51.498  1.00  0.00    -0.286 NA
HETATM    4  H1  UNL     1      26.923   3.908  51.450  1.00  0.00     0.188 HD
BRANCH   2   5
HETATM    5  N4  UNL     1      27.109   0.731  52.333  1.00  0.00    -0.364 N 
HETATM    6  H13 UNL     1      27.025   0.231  51.402  1.00  0.00     0.162 HD
BRANCH   5   7
HETATM    7  C11 UNL     1      27.640   0.036  53.488  1.00  0.00     0.151 A 
HETATM    8  C12 UNL     1      28.921   0.622  53.953  1.00  0.00     0.004 A 
HETATM    9  C13 UNL     1      29.897  -0.258  53.833  1.00  0.00    -0.000 A 
HETATM   10  C14 UNL     1      29.366  -1.519  53.277  1.00  0.00     0.021 A 
HETATM   11  C15 UNL     1      28.051  -1.333  53.081  1.00  0.00     0.038 A 
HETATM   12 CL1  UNL     1      26.793  -2.388  52.453  1.00  0.00    -0.086 Cl
ENDBRANCH   5   7
ENDBRANCH   2   5
ENDBRANCH   1   2
BRANCH   1  13
HETATM   13  N2  UNL     1      24.437   2.755  52.869  1.00  0.00    -0.292 NA
BRANCH  13  14
HETATM   14  C3  UNL     1      23.691   1.773  52.491  1.00  0.00     0.140 C 
BRANCH  14  15
HETATM   15  C4  UNL     1      22.644   0.758  52.504  1.00  0.00     0.045 C 
HETATM   16  C5  UNL     1      22.911  -0.161  53.421  1.00  0.00     0.008 C 
HETATM   17  C6  UNL     1      22.203  -1.364  53.834  1.00  0.00     0.056 C 
HETATM   18  C7  UNL     1      20.798  -1.212  54.207  1.00  0.00    -0.023 C 
HETATM   19  C8  UNL     1      19.699  -0.741  53.640  1.00  0.00    -0.002 C 
HETATM   20  C9  UNL     1      19.451  -0.143  52.314  1.00  0.00     0.017 C 
HETATM   21  C10 UNL     1      20.261   0.560  51.506  1.00  0.00     0.088 C 
HETATM   22  N3  UNL     1      21.629   1.021  51.544  1.00  0.00    -0.365 N 
HETATM   23  H12 UNL     1      21.922   1.627  50.773  1.00  0.00     0.165 HD
ENDBRANCH  14  15
ENDBRANCH  13  14
ENDBRANCH   1  13
TORSDOF 6
ENDMDL
MODEL 2
REMARK VINA RESULT:      -7.2      4.346      6.512
REMARK  6 active torsions:
REMARK  status: ('A' for Active; 'I' for Inactive)
REMARK    1  A    between atoms: C1_2  and  C2_3 
REMARK    2  A    between atoms: C1_2  and  N4_14 
REMARK    3  A    between atoms: C2_3  and  N2_4 
REMARK    4  A    between atoms: N2_4  and  C3_5 
REMARK    5  A    between atoms: C3_5  and  C4_6 
REMARK    6  A    between atoms: N4_14  and  C11_15 
ROOT
HETATM    1  C2  UNL     1      23.414   5.251  51.134  1.00  0.00     0.225 C 
ENDROOT
BRANCH   1   2
HETATM    2  C1  UNL     1      24.295   6.447  51.056  1.00  0.00     0.112 C 
HETATM    3  N1  UNL     1      23.946   7.646  51.410  1.00  0.00    -0.286 NA
HETATM    4  H1  UNL     1      23.005   7.885  51.786  1.00  0.00     0.188 HD
BRANCH   2   5
HETATM    5  N4  UNL     1      25.611   6.267  50.561  1.00  0.00    -0.364 N 
HETATM    6  H13 UNL     1      26.413   6.458  51.227  1.00  0.00     0.162 HD
BRANCH   5   7
HETATM    7  C11 UNL     1      25.878   5.840  49.202  1.00  0.00     0.151 A 
HETATM    8  C12 UNL     1      26.724   4.623  49.156  1.00  0.00     0.004 A 
HETATM    9  C13 UNL     1      27.876   4.888  48.569  1.00  0.00    -0.000 A 
HETATM   10  C14 UNL     1      27.914   6.308  48.164  1.00  0.00     0.021 A 
HETATM   11  C15 UNL     1      26.743   6.850  48.540  1.00  0.00     0.038 A 
HETATM   12 CL1  UNL     1      26.095   8.476  48.386  1.00  0.00    -0.086 Cl
ENDBRANCH   5   7
ENDBRANCH   2   5
ENDBRANCH   1   2
BRANCH   1  13
HETATM   13  N2  UNL     1      23.578   4.613  52.425  1.00  0.00    -0.292 NA
BRANCH  13  14
HETATM   14  C3  UNL     1      24.169   3.467  52.484  1.00  0.00     0.140 C 
BRANCH  14  15
HETATM   15  C4  UNL     1      24.959   2.354  52.996  1.00  0.00     0.045 C 
HETATM   16  C5  UNL     1      24.224   1.252  53.036  1.00  0.00     0.008 C 
HETATM   17  C6  UNL     1      24.524  -0.109  53.456  1.00  0.00     0.056 C 
HETATM   18  C7  UNL     1      25.688  -0.750  52.845  1.00  0.00    -0.023 C 
HETATM   19  C8  UNL     1      26.979  -0.484  52.727  1.00  0.00    -0.002 C 
HETATM   20  C9  UNL     1      27.801   0.645  53.200  1.00  0.00     0.017 C 
HETATM   21  C10 UNL     1      27.480   1.930  53.421  1.00  0.00     0.088 C 
HETATM   22  N3  UNL     1      26.291   2.742  53.311  1.00  0.00    -0.365 N 
HETATM   23  H12 UNL     1      26.411   3.743  53.484  1.00  0.00     0.165 HD
ENDBRANCH  14  15
ENDBRANCH  13  14
ENDBRANCH   1  13
TORSDOF 6
ENDMDL
MODEL 3
REMARK VINA RESULT:      -7.1      2.285      6.429
REMARK  6 active torsions:
REMARK  status: ('A' for Active; 'I' for Inactive)
REMARK    1  A    between atoms: C1_2  and  C2_3 
REMARK    2  A    between atoms: C1_2  and  N4_14 
REMARK    3  A    between atoms: C2_3  and  N2_4 
REMARK    4  A    between atoms: N2_4  and  C3_5 
REMARK    5  A    between atoms: C3_5  and  C4_6 
REMARK    6  A    between atoms: N4_14  and  C11_15 
ROOT
HETATM    1  C2  UNL     1      23.708   2.980  51.065  1.00  0.00     0.225 C 
ENDROOT
BRANCH   1   2
HETATM    2  C1  UNL     1      22.873   1.835  50.617  1.00  0.00     0.112 C 
HETATM    3  N1  UNL     1      22.326   1.733  49.444  1.00  0.00    -0.286 NA
HETATM    4  H1  UNL     1      22.422   2.454  48.699  1.00  0.00     0.188 HD
BRANCH   2   5
HETATM    5  N4  UNL     1      22.657   0.775  51.534  1.00  0.00    -0.364 N 
HETATM    6  H13 UNL     1      22.529  -0.198  51.133  1.00  0.00     0.162 HD
BRANCH   5   7
HETATM    7  C11 UNL     1      22.609   0.986  52.967  1.00  0.00     0.151 A 
HETATM    8  C12 UNL     1      23.103  -0.192  53.721  1.00  0.00     0.004 A 
HETATM    9  C13 UNL     1      22.134  -0.705  54.456  1.00  0.00    -0.000 A 
HETATM   10  C14 UNL     1      20.896   0.079  54.266  1.00  0.00     0.021 A 
HETATM   11  C15 UNL     1      21.188   1.059  53.396  1.00  0.00     0.038 A 
HETATM   12 CL1  UNL     1      20.217   2.354  52.713  1.00  0.00    -0.086 Cl
ENDBRANCH   5   7
ENDBRANCH   2   5
ENDBRANCH   1   2
BRANCH   1  13
HETATM   13  N2  UNL     1      25.039   2.857  50.503  1.00  0.00    -0.292 NA
BRANCH  13  14
HETATM   14  C3  UNL     1      25.991   2.405  51.247  1.00  0.00     0.140 C 
BRANCH  14  15
HETATM   15  C4  UNL     1      26.689   1.626  52.263  1.00  0.00     0.045 C 
HETATM   16  C5  UNL     1      26.334   0.352  52.187  1.00  0.00     0.008 C 
HETATM   17  C6  UNL     1      26.728  -0.821  52.954  1.00  0.00     0.056 C 
HETATM   18  C7  UNL     1      28.161  -1.091  53.063  1.00  0.00    -0.023 C 
HETATM   19  C8  UNL     1      29.232  -0.436  53.481  1.00  0.00    -0.002 C 
HETATM   20  C9  UNL     1      29.407   0.918  54.039  1.00  0.00     0.017 C 
HETATM   21  C10 UNL     1      28.704   2.045  53.837  1.00  0.00     0.088 C 
HETATM   22  N3  UNL     1      27.554   2.432  53.055  1.00  0.00    -0.365 N 
HETATM   23  H12 UNL     1      27.317   3.427  53.062  1.00  0.00     0.165 HD
ENDBRANCH  14  15
ENDBRANCH  13  14
ENDBRANCH   1  13
TORSDOF 6
ENDMDL
MODEL 4
REMARK VINA RESULT:      -7.1      3.571      6.581
REMARK  6 active torsions:
REMARK  status: ('A' for Active; 'I' for Inactive)
REMARK    1  A    between atoms: C1_2  and  C2_3 
REMARK    2  A    between atoms: C1_2  and  N4_14 
REMARK    3  A    between atoms: C2_3  and  N2_4 
REMARK    4  A    between atoms: N2_4  and  C3_5 
REMARK    5  A    between atoms: C3_5  and  C4_6 
REMARK    6  A    between atoms: N4_14  and  C11_15 
ROOT
HETATM    1  C2  UNL     1      23.377   2.875  51.570  1.00  0.00     0.225 C 
ENDROOT
BRANCH   1   2
HETATM    2  C1  UNL     1      23.851   4.264  51.803  1.00  0.00     0.112 C 
HETATM    3  N1  UNL     1      23.236   5.143  52.534  1.00  0.00    -0.286 NA
HETATM    4  H1  UNL     1      22.342   4.953  53.032  1.00  0.00     0.188 HD
BRANCH   2   5
HETATM    5  N4  UNL     1      25.063   4.662  51.183  1.00  0.00    -0.364 N 
HETATM    6  H13 UNL     1      25.801   5.110  51.798  1.00  0.00     0.162 HD
BRANCH   5   7
HETATM    7  C11 UNL     1      25.310   4.473  49.768  1.00  0.00     0.151 A 
HETATM    8  C12 UNL     1      26.593   3.775  49.512  1.00  0.00     0.004 A 
HETATM    9  C13 UNL     1      27.420   4.563  48.850  1.00  0.00    -0.000 A 
HETATM   10  C14 UNL     1      26.771   5.866  48.598  1.00  0.00     0.021 A 
HETATM   11  C15 UNL     1      25.543   5.798  49.138  1.00  0.00     0.038 A 
HETATM   12 CL1  UNL     1      24.227   6.961  49.220  1.00  0.00    -0.086 Cl
ENDBRANCH   5   7
ENDBRANCH   2   5
ENDBRANCH   1   2
BRANCH   1  13
HETATM   13  N2  UNL     1      23.548   2.096  52.780  1.00  0.00    -0.292 NA
BRANCH  13  14
HETATM   14  C3  UNL     1      24.735   1.720  53.118  1.00  0.00     0.140 C 
BRANCH  14  15
HETATM   15  C4  UNL     1      26.120   1.276  53.007  1.00  0.00     0.045 C 
HETATM   16  C5  UNL     1      26.941   2.238  53.403  1.00  0.00     0.008 C 
HETATM   17  C6  UNL     1      28.392   2.310  53.491  1.00  0.00     0.056 C 
HETATM   18  C7  UNL     1      29.066   1.247  54.235  1.00  0.00    -0.023 C 
HETATM   19  C8  UNL     1      29.117  -0.074  54.188  1.00  0.00    -0.002 C 
HETATM   20  C9  UNL     1      28.468  -1.056  53.299  1.00  0.00     0.017 C 
HETATM   21  C10 UNL     1      27.296  -1.004  52.645  1.00  0.00     0.088 C 
HETATM   22  N3  UNL     1      26.218  -0.053  52.509  1.00  0.00    -0.365 N 
HETATM   23  H12 UNL     1      25.401  -0.369  51.981  1.00  0.00     0.165 HD
ENDBRANCH  14  15
ENDBRANCH  13  14
ENDBRANCH   1  13
TORSDOF 6
ENDMDL
MODEL 5
REMARK VINA RESULT:      -7.1      2.399      6.572
REMARK  6 active torsions:
REMARK  status: ('A' for Active; 'I' for Inactive)
REMARK    1  A    between atoms: C1_2  and  C2_3 
REMARK    2  A    between atoms: C1_2  and  N4_14 
REMARK    3  A    between atoms: C2_3  and  N2_4 
REMARK    4  A    between atoms: N2_4  and  C3_5 
REMARK    5  A    between atoms: C3_5  and  C4_6 
REMARK    6  A    between atoms: N4_14  and  C11_15 
ROOT
HETATM    1  C2  UNL     1      25.253   4.018  49.578  1.00  0.00     0.225 C 
ENDROOT
BRANCH   1   2
HETATM    2  C1  UNL     1      24.227   4.288  50.621  1.00  0.00     0.112 C 
HETATM    3  N1  UNL     1      24.333   5.195  51.544  1.00  0.00    -0.286 NA
HETATM    4  H1  UNL     1      25.157   5.824  51.642  1.00  0.00     0.188 HD
BRANCH   2   5
HETATM    5  N4  UNL     1      23.048   3.502  50.607  1.00  0.00    -0.364 N 
HETATM    6  H13 UNL     1      22.132   3.992  50.822  1.00  0.00     0.162 HD
BRANCH   5   7
HETATM    7  C11 UNL     1      23.063   2.083  50.314  1.00  0.00     0.151 A 
HETATM    8  C12 UNL     1      22.153   1.734  49.196  1.00  0.00     0.004 A 
HETATM    9  C13 UNL     1      21.190   0.936  49.622  1.00  0.00    -0.000 A 
HETATM   10  C14 UNL     1      21.363   0.674  51.065  1.00  0.00     0.021 A 
HETATM   11  C15 UNL     1      22.457   1.348  51.454  1.00  0.00     0.038 A 
HETATM   12 CL1  UNL     1      23.254   1.500  53.013  1.00  0.00    -0.086 Cl
ENDBRANCH   5   7
ENDBRANCH   2   5
ENDBRANCH   1   2
BRANCH   1  13
HETATM   13  N2  UNL     1      26.516   3.701  50.213  1.00  0.00    -0.292 NA
BRANCH  13  14
HETATM   14  C3  UNL     1      26.582   2.678  50.996  1.00  0.00     0.140 C 
BRANCH  14  15
HETATM   15  C4  UNL     1      27.019   1.799  52.075  1.00  0.00     0.045 C 
HETATM   16  C5  UNL     1      26.523   0.583  51.903  1.00  0.00     0.008 C 
HETATM   17  C6  UNL     1      26.650  -0.644  52.677  1.00  0.00     0.056 C 
HETATM   18  C7  UNL     1      28.005  -1.097  52.984  1.00  0.00    -0.023 C 
HETATM   19  C8  UNL     1      29.075  -0.592  53.577  1.00  0.00    -0.002 C 
HETATM   20  C9  UNL     1      29.331   0.719  54.203  1.00  0.00     0.017 C 
HETATM   21  C10 UNL     1      28.813   1.930  53.941  1.00  0.00     0.088 C 
HETATM   22  N3  UNL     1      27.850   2.474  53.013  1.00  0.00    -0.365 N 
HETATM   23  H12 UNL     1      27.740   3.491  53.021  1.00  0.00     0.165 HD
ENDBRANCH  14  15
ENDBRANCH  13  14
ENDBRANCH   1  13
TORSDOF 6
ENDMDL
MODEL 6
REMARK VINA RESULT:      -6.9      2.997      4.806
REMARK  6 active torsions:
REMARK  status: ('A' for Active; 'I' for Inactive)
REMARK    1  A    between atoms: C1_2  and  C2_3 
REMARK    2  A    between atoms: C1_2  and  N4_14 
REMARK    3  A    between atoms: C2_3  and  N2_4 
REMARK    4  A    between atoms: N2_4  and  C3_5 
REMARK    5  A    between atoms: C3_5  and  C4_6 
REMARK    6  A    between atoms: N4_14  and  C11_15 
ROOT
HETATM    1  C2  UNL     1      24.420   0.201  53.127  1.00  0.00     0.225 C 
ENDROOT
BRANCH   1   2
HETATM    2  C1  UNL     1      25.396  -0.216  54.168  1.00  0.00     0.112 C 
HETATM    3  N1  UNL     1      25.168  -1.114  55.077  1.00  0.00    -0.286 NA
HETATM    4  H1  UNL     1      24.269  -1.632  55.163  1.00  0.00     0.188 HD
BRANCH   2   5
HETATM    5  N4  UNL     1      26.669   0.408  54.169  1.00  0.00    -0.364 N 
HETATM    6  H13 UNL     1      26.886   1.070  54.969  1.00  0.00     0.162 HD
BRANCH   5   7
HETATM    7  C11 UNL     1      27.653   0.169  53.133  1.00  0.00     0.151 A 
HETATM    8  C12 UNL     1      28.065  -1.254  53.072  1.00  0.00     0.004 A 
HETATM    9  C13 UNL     1      29.348  -1.372  53.361  1.00  0.00    -0.000 A 
HETATM   10  C14 UNL     1      29.920  -0.039  53.642  1.00  0.00     0.021 A 
HETATM   11  C15 UNL     1      28.921   0.848  53.506  1.00  0.00     0.038 A 
HETATM   12 CL1  UNL     1      28.865   2.595  53.686  1.00  0.00    -0.086 Cl
ENDBRANCH   5   7
ENDBRANCH   2   5
ENDBRANCH   1   2
BRANCH   1  13
HETATM   13  N2  UNL     1      24.019   1.574  53.362  1.00  0.00    -0.292 NA
BRANCH  13  14
HETATM   14  C3  UNL     1      24.116   2.426  52.400  1.00  0.00     0.140 C 
BRANCH  14  15
HETATM   15  C4  UNL     1      24.274   2.969  51.055  1.00  0.00     0.045 C 
HETATM   16  C5  UNL     1      23.313   2.515  50.263  1.00  0.00     0.008 C 
HETATM   17  C6  UNL     1      23.015   2.744  48.857  1.00  0.00     0.056 C 
HETATM   18  C7  UNL     1      22.898   4.134  48.421  1.00  0.00    -0.023 C 
HETATM   19  C8  UNL     1      23.657   5.218  48.454  1.00  0.00    -0.002 C 
HETATM   20  C9  UNL     1      25.013   5.458  48.982  1.00  0.00     0.017 C 
HETATM   21  C10 UNL     1      25.675   4.872  49.994  1.00  0.00     0.088 C 
HETATM   22  N3  UNL     1      25.402   3.829  50.953  1.00  0.00    -0.365 N 
HETATM   23  H12 UNL     1      26.117   3.676  51.669  1.00  0.00     0.165 HD
ENDBRANCH  14  15
ENDBRANCH  13  14
ENDBRANCH   1  13
TORSDOF 6
ENDMDL
MODEL 7
REMARK VINA RESULT:      -6.8      4.819      7.383
REMARK  6 active torsions:
REMARK  status: ('A' for Active; 'I' for Inactive)
REMARK    1  A    between atoms: C1_2  and  C2_3 
REMARK    2  A    between atoms: C1_2  and  N4_14 
REMARK    3  A    between atoms: C2_3  and  N2_4 
REMARK    4  A    between atoms: N2_4  and  C3_5 
REMARK    5  A    between atoms: C3_5  and  C4_6 
REMARK    6  A    between atoms: N4_14  and  C11_15 
ROOT
HETATM    1  C2  UNL     1      25.371   4.505  49.889  1.00  0.00     0.225 C 
ENDROOT
BRANCH   1   2
HETATM    2  C1  UNL     1      25.885   5.701  49.172  1.00  0.00     0.112 C 
HETATM    3  N1  UNL     1      25.169   6.470  48.410  1.00  0.00    -0.286 NA
HETATM    4  H1  UNL     1      24.155   6.318  48.226  1.00  0.00     0.188 HD
BRANCH   2   5
HETATM    5  N4  UNL     1      27.255   6.030  49.332  1.00  0.00    -0.364 N 
HETATM    6  H13 UNL     1      27.634   6.074  50.321  1.00  0.00     0.162 HD
BRANCH   5   7
HETATM    7  C11 UNL     1      28.125   6.297  48.205  1.00  0.00     0.151 A 
HETATM    8  C12 UNL     1      29.243   5.326  48.120  1.00  0.00     0.004 A 
HETATM    9  C13 UNL     1      30.400   5.943  48.280  1.00  0.00    -0.000 A 
HETATM   10  C14 UNL     1      30.169   7.388  48.487  1.00  0.00     0.021 A 
HETATM   11  C15 UNL     1      28.840   7.578  48.441  1.00  0.00     0.038 A 
HETATM   12 CL1  UNL     1      27.852   9.022  48.606  1.00  0.00    -0.086 Cl
ENDBRANCH   5   7
ENDBRANCH   2   5
ENDBRANCH   1   2
BRANCH   1  13
HETATM   13  N2  UNL     1      26.445   3.548  50.067  1.00  0.00    -0.292 NA
BRANCH  13  14
HETATM   14  C3  UNL     1      26.520   2.892  51.175  1.00  0.00     0.140 C 
BRANCH  14  15
HETATM   15  C4  UNL     1      26.962   1.923  52.171  1.00  0.00     0.045 C 
HETATM   16  C5  UNL     1      26.377   0.753  51.962  1.00  0.00     0.008 C 
HETATM   17  C6  UNL     1      26.468  -0.524  52.654  1.00  0.00     0.056 C 
HETATM   18  C7  UNL     1      27.807  -1.080  52.845  1.00  0.00    -0.023 C 
HETATM   19  C8  UNL     1      28.943  -0.682  53.395  1.00  0.00    -0.002 C 
HETATM   20  C9  UNL     1      29.324   0.570  54.076  1.00  0.00     0.017 C 
HETATM   21  C10 UNL     1      28.872   1.825  53.919  1.00  0.00     0.088 C 
HETATM   22  N3  UNL     1      27.892   2.484  53.089  1.00  0.00    -0.365 N 
HETATM   23  H12 UNL     1      27.852   3.504  53.163  1.00  0.00     0.165 HD
ENDBRANCH  14  15
ENDBRANCH  13  14
ENDBRANCH   1  13
TORSDOF 6
ENDMDL
MODEL 8
REMARK VINA RESULT:      -6.8      4.070      5.650
REMARK  6 active torsions:
REMARK  status: ('A' for Active; 'I' for Inactive)
REMARK    1  A    between atoms: C1_2  and  C2_3 
REMARK    2  A    between atoms: C1_2  and  N4_14 
REMARK    3  A    between atoms: C2_3  and  N2_4 
REMARK    4  A    between atoms: N2_4  and  C3_5 
REMARK    5  A    between atoms: C3_5  and  C4_6 
REMARK    6  A    between atoms: N4_14  and  C11_15 
ROOT
HETATM    1  C2  UNL     1      23.209   5.624  51.202  1.00  0.00     0.225 C 
ENDROOT
BRANCH   1   2
HETATM    2  C1  UNL     1      24.259   6.676  51.147  1.00  0.00     0.112 C 
HETATM    3  N1  UNL     1      24.107   7.894  51.569  1.00  0.00    -0.286 NA
HETATM    4  H1  UNL     1      23.224   8.253  51.989  1.00  0.00     0.188 HD
BRANCH   2   5
HETATM    5  N4  UNL     1      25.517   6.326  50.596  1.00  0.00    -0.364 N 
HETATM    6  H13 UNL     1      26.384   6.642  51.119  1.00  0.00     0.162 HD
BRANCH   5   7
HETATM    7  C11 UNL     1      25.643   5.566  49.369  1.00  0.00     0.151 A 
HETATM    8  C12 UNL     1      25.877   4.124  49.626  1.00  0.00     0.004 A 
HETATM    9  C13 UNL     1      27.059   3.761  49.164  1.00  0.00    -0.000 A 
HETATM   10  C14 UNL     1      27.733   4.925  48.552  1.00  0.00     0.021 A 
HETATM   11  C15 UNL     1      26.897   5.968  48.679  1.00  0.00     0.038 A 
HETATM   12 CL1  UNL     1      27.031   7.650  48.188  1.00  0.00    -0.086 Cl
ENDBRANCH   5   7
ENDBRANCH   2   5
ENDBRANCH   1   2
BRANCH   1  13
HETATM   13  N2  UNL     1      23.391   4.821  52.394  1.00  0.00    -0.292 NA
BRANCH  13  14
HETATM   14  C3  UNL     1      23.294   3.538  52.304  1.00  0.00     0.140 C 
BRANCH  14  15
HETATM   15  C4  UNL     1      23.586   2.122  52.492  1.00  0.00     0.045 C 
HETATM   16  C5  UNL     1      24.858   1.876  52.213  1.00  0.00     0.008 C 
HETATM   17  C6  UNL     1      25.646   0.652  52.240  1.00  0.00     0.056 C 
HETATM   18  C7  UNL     1      25.632  -0.119  53.482  1.00  0.00    -0.023 C 
HETATM   19  C8  UNL     1      24.714  -0.673  54.258  1.00  0.00    -0.002 C 
HETATM   20  C9  UNL     1      23.244  -0.730  54.162  1.00  0.00     0.017 C 
HETATM   21  C10 UNL     1      22.368   0.127  53.612  1.00  0.00     0.088 C 
HETATM   22  N3  UNL     1      22.442   1.391  52.918  1.00  0.00    -0.365 N 
HETATM   23  H12 UNL     1      21.548   1.836  52.695  1.00  0.00     0.165 HD
ENDBRANCH  14  15
ENDBRANCH  13  14
ENDBRANCH   1  13
TORSDOF 6
ENDMDL
MODEL 9
REMARK VINA RESULT:      -6.7      4.041      5.408
REMARK  6 active torsions:
REMARK  status: ('A' for Active; 'I' for Inactive)
REMARK    1  A    between atoms: C1_2  and  C2_3 
REMARK    2  A    between atoms: C1_2  and  N4_14 
REMARK    3  A    between atoms: C2_3  and  N2_4 
REMARK    4  A    between atoms: N2_4  and  C3_5 
REMARK    5  A    between atoms: C3_5  and  C4_6 
REMARK    6  A    between atoms: N4_14  and  C11_15 
ROOT
HETATM    1  C2  UNL     1      24.723   3.074  50.328  1.00  0.00     0.225 C 
ENDROOT
BRANCH   1   2
HETATM    2  C1  UNL     1      26.068   3.641  50.610  1.00  0.00     0.112 C 
HETATM    3  N1  UNL     1      26.999   3.035  51.283  1.00  0.00    -0.286 NA
HETATM    4  H1  UNL     1      26.888   2.085  51.693  1.00  0.00     0.188 HD
BRANCH   2   5
HETATM    5  N4  UNL     1      26.358   4.935  50.110  1.00  0.00    -0.364 N 
HETATM    6  H13 UNL     1      26.306   5.745  50.792  1.00  0.00     0.162 HD
BRANCH   5   7
HETATM    7  C11 UNL     1      26.717   5.170  48.726  1.00  0.00     0.151 A 
HETATM    8  C12 UNL     1      28.177   5.049  48.499  1.00  0.00     0.004 A 
HETATM    9  C13 UNL     1      28.678   6.207  48.109  1.00  0.00    -0.000 A 
HETATM   10  C14 UNL     1      27.601   7.216  48.036  1.00  0.00     0.021 A 
HETATM   11  C15 UNL     1      26.465   6.598  48.399  1.00  0.00     0.038 A 
HETATM   12 CL1  UNL     1      24.810   7.168  48.543  1.00  0.00    -0.086 Cl
ENDBRANCH   5   7
ENDBRANCH   2   5
ENDBRANCH   1   2
BRANCH   1  13
HETATM   13  N2  UNL     1      23.857   3.290  51.469  1.00  0.00    -0.292 NA
BRANCH  13  14
HETATM   14  C3  UNL     1      23.696   2.334  52.321  1.00  0.00     0.140 C 
BRANCH  14  15
HETATM   15  C4  UNL     1      23.538   0.990  52.864  1.00  0.00     0.045 C 
HETATM   16  C5  UNL     1      24.691   0.557  53.354  1.00  0.00     0.008 C 
HETATM   17  C6  UNL     1      25.073  -0.692  53.998  1.00  0.00     0.056 C 
HETATM   18  C7  UNL     1      24.274  -1.117  55.147  1.00  0.00    -0.023 C 
HETATM   19  C8  UNL     1      22.996  -1.362  55.390  1.00  0.00    -0.002 C 
HETATM   20  C9  UNL     1      21.798  -1.296  54.533  1.00  0.00     0.017 C 
HETATM   21  C10 UNL     1      21.525  -0.525  53.468  1.00  0.00     0.088 C 
HETATM   22  N3  UNL     1      22.207   0.508  52.725  1.00  0.00    -0.365 N 
HETATM   23  H12 UNL     1      21.665   0.968  51.989  1.00  0.00     0.165 HD
ENDBRANCH  14  15
ENDBRANCH  13  14
ENDBRANCH   1  13
TORSDOF 6
ENDMDL
