MODEL 1
REMARK VINA RESULT:      -7.9      0.000      0.000
REMARK  6 active torsions:
REMARK  status: ('A' for Active; 'I' for Inactive)
REMARK    1  A    between atoms: C3_3  and  C4_4 
REMARK    2  A    between atoms: C4_4  and  C5_5 
REMARK    3  A    between atoms: C7_7  and  C8_8 
REMARK    4  A    between atoms: C14_16  and  O2_17 
REMARK    5  A    between atoms: O2_17  and  C15_18 
REMARK    6  A    between atoms: C17_20  and  O3_21 
ROOT
HETATM    1  C5  UNL     1      24.865   2.608  50.925  1.00  0.00    -0.018 A 
HETATM    2  C6  UNL     1      25.890   1.766  51.285  1.00  0.00     0.022 A 
HETATM    3  C7  UNL     1      25.706   0.779  52.220  1.00  0.00    -0.032 A 
HETATM    4  C13 UNL     1      24.470   0.634  52.806  1.00  0.00     0.051 A 
HETATM    5  C14 UNL     1      23.398   1.438  52.497  1.00  0.00     0.103 A 
HETATM    6  C17 UNL     1      23.624   2.432  51.539  1.00  0.00     0.105 A 
ENDROOT
BRANCH   3   7
HETATM    7  C8  UNL     1      26.751  -0.138  52.650  1.00  0.00     0.024 C 
HETATM    8  C9  UNL     1      27.887  -0.014  53.283  1.00  0.00     0.012 C 
HETATM    9  C10 UNL     1      28.877  -1.088  53.658  1.00  0.00     0.064 C 
HETATM   10  C12 UNL     1      28.508   1.218  53.818  1.00  0.00     0.247 C 
HETATM   11  C11 UNL     1      30.175  -0.379  53.337  1.00  0.00     0.128 C 
HETATM   12  N1  UNL     1      29.918   0.983  53.762  1.00  0.00    -0.357 N 
HETATM   13  H14 UNL     1      30.643   1.682  53.992  1.00  0.00     0.162 HD
HETATM   14  O1  UNL     1      27.868   2.230  54.222  1.00  0.00    -0.268 OA
ENDBRANCH   3   7
BRANCH   1  15
HETATM   15  C4  UNL     1      25.160   3.645  49.901  1.00  0.00     0.068 C 
BRANCH  15  16
HETATM   16  C3  UNL     1      26.576   3.589  49.454  1.00  0.00    -0.026 C 
HETATM   17  C2  UNL     1      27.321   4.542  48.909  1.00  0.00    -0.035 C 
HETATM   18  C1  UNL     1      26.698   5.887  48.692  1.00  0.00     0.036 C 
ENDBRANCH  15  16
ENDBRANCH   1  15
BRANCH   5  19
HETATM   19  O2  UNL     1      22.104   1.521  52.907  1.00  0.00    -0.349 OA
BRANCH  19  20
HETATM   20  C15 UNL     1      21.188   0.513  53.159  1.00  0.00     0.171 C 
HETATM   21  C16 UNL     1      21.220   0.010  54.559  1.00  0.00     0.034 C 
ENDBRANCH  19  20
ENDBRANCH   5  19
BRANCH   6  22
HETATM   22  O3  UNL     1      22.690   3.373  51.057  1.00  0.00    -0.357 OA
HETATM   23  H21 UNL     1      21.714   3.074  50.947  1.00  0.00     0.217 HD
ENDBRANCH   6  22
TORSDOF 6
ENDMDL
MODEL 2
REMARK VINA RESULT:      -7.9      1.110      4.650
REMARK  6 active torsions:
REMARK  status: ('A' for Active; 'I' for Inactive)
REMARK    1  A    between atoms: C3_3  and  C4_4 
REMARK    2  A    between atoms: C4_4  and  C5_5 
REMARK    3  A    between atoms: C7_7  and  C8_8 
REMARK    4  A    between atoms: C14_16  and  O2_17 
REMARK    5  A    between atoms: O2_17  and  C15_18 
REMARK    6  A    between atoms: C17_20  and  O3_21 
ROOT
HETATM    1  C5  UNL     1      23.405   1.650  52.306  1.00  0.00    -0.018 A 
HETATM    2  C6  UNL     1      24.356   0.672  52.468  1.00  0.00     0.022 A 
HETATM    3  C7  UNL     1      25.642   0.848  52.022  1.00  0.00    -0.032 A 
HETATM    4  C13 UNL     1      25.980   2.028  51.403  1.00  0.00     0.051 A 
HETATM    5  C14 UNL     1      25.083   3.052  51.206  1.00  0.00     0.103 A 
HETATM    6  C17 UNL     1      23.783   2.836  51.673  1.00  0.00     0.105 A 
ENDROOT
BRANCH   3   7
HETATM    7  C8  UNL     1      26.692  -0.151  52.156  1.00  0.00     0.024 C 
HETATM    8  C9  UNL     1      27.546  -0.474  53.091  1.00  0.00     0.012 C 
HETATM    9  C10 UNL     1      28.594  -1.558  53.073  1.00  0.00     0.064 C 
HETATM   10  C12 UNL     1      27.710   0.130  54.432  1.00  0.00     0.247 C 
HETATM   11  C11 UNL     1      29.746  -0.827  53.727  1.00  0.00     0.128 C 
HETATM   12  N1  UNL     1      29.093  -0.040  54.754  1.00  0.00    -0.357 N 
HETATM   13  H14 UNL     1      29.554   0.344  55.595  1.00  0.00     0.162 HD
HETATM   14  O1  UNL     1      26.779   0.667  55.098  1.00  0.00    -0.268 OA
ENDBRANCH   3   7
BRANCH   1  15
HETATM   15  C4  UNL     1      22.040   1.369  52.824  1.00  0.00     0.068 C 
BRANCH  15  16
HETATM   16  C3  UNL     1      21.650  -0.047  52.603  1.00  0.00    -0.026 C 
HETATM   17  C2  UNL     1      21.512  -1.027  53.489  1.00  0.00    -0.035 C 
HETATM   18  C1  UNL     1      21.775  -0.716  54.930  1.00  0.00     0.036 C 
ENDBRANCH  15  16
ENDBRANCH   1  15
BRANCH   5  19
HETATM   19  O2  UNL     1      25.138   4.288  50.640  1.00  0.00    -0.349 OA
BRANCH  19  20
HETATM   20  C15 UNL     1      25.419   4.652  49.333  1.00  0.00     0.171 C 
HETATM   21  C16 UNL     1      26.870   4.633  49.005  1.00  0.00     0.034 C 
ENDBRANCH  19  20
ENDBRANCH   5  19
BRANCH   6  22
HETATM   22  O3  UNL     1      22.693   3.728  51.591  1.00  0.00    -0.357 OA
HETATM   23  H21 UNL     1      22.131   3.728  50.732  1.00  0.00     0.217 HD
ENDBRANCH   6  22
TORSDOF 6
ENDMDL
MODEL 3
REMARK VINA RESULT:      -7.6      2.546      6.483
REMARK  6 active torsions:
REMARK  status: ('A' for Active; 'I' for Inactive)
REMARK    1  A    between atoms: C3_3  and  C4_4 
REMARK    2  A    between atoms: C4_4  and  C5_5 
REMARK    3  A    between atoms: C7_7  and  C8_8 
REMARK    4  A    between atoms: C14_16  and  O2_17 
REMARK    5  A    between atoms: O2_17  and  C15_18 
REMARK    6  A    between atoms: C17_20  and  O3_21 
ROOT
HETATM    1  C5  UNL     1      23.951  -0.402  53.786  1.00  0.00    -0.018 A 
HETATM    2  C6  UNL     1      23.915   0.438  52.698  1.00  0.00     0.022 A 
HETATM    3  C7  UNL     1      25.032   1.117  52.285  1.00  0.00    -0.032 A 
HETATM    4  C13 UNL     1      26.211   0.950  52.974  1.00  0.00     0.051 A 
HETATM    5  C14 UNL     1      26.324   0.127  54.070  1.00  0.00     0.103 A 
HETATM    6  C17 UNL     1      25.163  -0.548  54.462  1.00  0.00     0.105 A 
ENDROOT
BRANCH   3   7
HETATM    7  C8  UNL     1      25.057   2.026  51.148  1.00  0.00     0.024 C 
HETATM    8  C9  UNL     1      24.564   3.211  50.901  1.00  0.00     0.012 C 
HETATM    9  C10 UNL     1      24.681   4.035  49.644  1.00  0.00     0.064 C 
HETATM   10  C12 UNL     1      23.765   4.076  51.798  1.00  0.00     0.247 C 
HETATM   11  C11 UNL     1      23.271   4.575  49.547  1.00  0.00     0.128 C 
HETATM   12  N1  UNL     1      22.928   4.845  50.929  1.00  0.00    -0.357 N 
HETATM   13  H14 UNL     1      22.189   5.494  51.244  1.00  0.00     0.162 HD
HETATM   14  O1  UNL     1      23.854   4.083  53.058  1.00  0.00    -0.268 OA
ENDBRANCH   3   7
BRANCH   1  15
HETATM   15  C4  UNL     1      22.689  -1.096  54.156  1.00  0.00     0.068 C 
BRANCH  15  16
HETATM   16  C3  UNL     1      21.702  -0.160  54.753  1.00  0.00    -0.026 C 
HETATM   17  C2  UNL     1      20.584   0.325  54.229  1.00  0.00    -0.035 C 
HETATM   18  C1  UNL     1      20.215  -0.098  52.840  1.00  0.00     0.036 C 
ENDBRANCH  15  16
ENDBRANCH   1  15
BRANCH   5  19
HETATM   19  O2  UNL     1      27.330  -0.217  54.919  1.00  0.00    -0.349 OA
BRANCH  19  20
HETATM   20  C15 UNL     1      28.682   0.075  54.854  1.00  0.00     0.171 C 
HETATM   21  C16 UNL     1      29.410  -0.687  53.802  1.00  0.00     0.034 C 
ENDBRANCH  19  20
ENDBRANCH   5  19
BRANCH   6  22
HETATM   22  O3  UNL     1      25.027  -1.442  55.545  1.00  0.00    -0.357 OA
HETATM   23  H21 UNL     1      24.267  -2.131  55.512  1.00  0.00     0.217 HD
ENDBRANCH   6  22
TORSDOF 6
ENDMDL
MODEL 4
REMARK VINA RESULT:      -7.5      2.543      6.551
REMARK  6 active torsions:
REMARK  status: ('A' for Active; 'I' for Inactive)
REMARK    1  A    between atoms: C3_3  and  C4_4 
REMARK    2  A    between atoms: C4_4  and  C5_5 
REMARK    3  A    between atoms: C7_7  and  C8_8 
REMARK    4  A    between atoms: C14_16  and  O2_17 
REMARK    5  A    between atoms: O2_17  and  C15_18 
REMARK    6  A    between atoms: C17_20  and  O3_21 
ROOT
HETATM    1  C5  UNL     1      24.192   0.168  53.481  1.00  0.00    -0.018 A 
HETATM    2  C6  UNL     1      23.661   1.347  53.016  1.00  0.00     0.022 A 
HETATM    3  C7  UNL     1      24.379   2.515  53.052  1.00  0.00    -0.032 A 
HETATM    4  C13 UNL     1      25.655   2.501  53.565  1.00  0.00     0.051 A 
HETATM    5  C14 UNL     1      26.252   1.361  54.048  1.00  0.00     0.103 A 
HETATM    6  C17 UNL     1      25.490   0.190  53.994  1.00  0.00     0.105 A 
ENDROOT
BRANCH   3   7
HETATM    7  C8  UNL     1      23.871   3.796  52.583  1.00  0.00     0.024 C 
HETATM    8  C9  UNL     1      24.166   4.603  51.598  1.00  0.00     0.012 C 
HETATM    9  C10 UNL     1      23.531   5.923  51.242  1.00  0.00     0.064 C 
HETATM   10  C12 UNL     1      25.200   4.433  50.553  1.00  0.00     0.247 C 
HETATM   11  C11 UNL     1      24.765   6.726  50.890  1.00  0.00     0.128 C 
HETATM   12  N1  UNL     1      25.597   5.761  50.199  1.00  0.00    -0.357 N 
HETATM   13  H14 UNL     1      26.364   5.993  49.547  1.00  0.00     0.162 HD
HETATM   14  O1  UNL     1      25.601   3.319  50.112  1.00  0.00    -0.268 OA
ENDBRANCH   3   7
BRANCH   1  15
HETATM   15  C4  UNL     1      23.338  -1.047  53.397  1.00  0.00     0.068 C 
BRANCH  15  16
HETATM   16  C3  UNL     1      22.423  -1.157  54.562  1.00  0.00    -0.026 C 
HETATM   17  C2  UNL     1      21.121  -0.911  54.632  1.00  0.00    -0.035 C 
HETATM   18  C1  UNL     1      20.423  -0.454  53.388  1.00  0.00     0.036 C 
ENDBRANCH  15  16
ENDBRANCH   1  15
BRANCH   5  19
HETATM   19  O2  UNL     1      27.461   1.063  54.597  1.00  0.00    -0.349 OA
BRANCH  19  20
HETATM   20  C15 UNL     1      28.722   1.083  54.025  1.00  0.00     0.171 C 
HETATM   21  C16 UNL     1      29.351  -0.261  53.912  1.00  0.00     0.034 C 
ENDBRANCH  19  20
ENDBRANCH   5  19
BRANCH   6  22
HETATM   22  O3  UNL     1      25.879  -1.096  54.424  1.00  0.00    -0.357 OA
HETATM   23  H21 UNL     1      26.659  -1.170  55.088  1.00  0.00     0.217 HD
ENDBRANCH   6  22
TORSDOF 6
ENDMDL
MODEL 5
REMARK VINA RESULT:      -7.4      2.467      5.478
REMARK  6 active torsions:
REMARK  status: ('A' for Active; 'I' for Inactive)
REMARK    1  A    between atoms: C3_3  and  C4_4 
REMARK    2  A    between atoms: C4_4  and  C5_5 
REMARK    3  A    between atoms: C7_7  and  C8_8 
REMARK    4  A    between atoms: C14_16  and  O2_17 
REMARK    5  A    between atoms: O2_17  and  C15_18 
REMARK    6  A    between atoms: C17_20  and  O3_21 
ROOT
HETATM    1  C5  UNL     1      26.681   0.360  53.990  1.00  0.00    -0.018 A 
HETATM    2  C6  UNL     1      26.816   1.274  52.972  1.00  0.00     0.022 A 
HETATM    3  C7  UNL     1      25.786   1.530  52.104  1.00  0.00    -0.032 A 
HETATM    4  C13 UNL     1      24.596   0.858  52.260  1.00  0.00     0.051 A 
HETATM    5  C14 UNL     1      24.387  -0.069  53.254  1.00  0.00     0.103 A 
HETATM    6  C17 UNL     1      25.460  -0.304  54.119  1.00  0.00     0.105 A 
ENDROOT
BRANCH   3   7
HETATM    7  C8  UNL     1      25.868   2.478  51.003  1.00  0.00     0.024 C 
HETATM    8  C9  UNL     1      25.216   3.559  50.663  1.00  0.00     0.012 C 
HETATM    9  C10 UNL     1      25.429   4.447  49.463  1.00  0.00     0.064 C 
HETATM   10  C12 UNL     1      24.095   4.214  51.373  1.00  0.00     0.247 C 
HETATM   11  C11 UNL     1      23.992   4.714  49.070  1.00  0.00     0.128 C 
HETATM   12  N1  UNL     1      23.323   4.850  50.350  1.00  0.00    -0.357 N 
HETATM   13  H14 UNL     1      22.423   5.332  50.503  1.00  0.00     0.162 HD
HETATM   14  O1  UNL     1      23.917   4.180  52.623  1.00  0.00    -0.268 OA
ENDBRANCH   3   7
BRANCH   1  15
HETATM   15  C4  UNL     1      27.853   0.151  54.882  1.00  0.00     0.068 C 
BRANCH  15  16
HETATM   16  C3  UNL     1      29.131   0.462  54.191  1.00  0.00    -0.026 C 
HETATM   17  C2  UNL     1      29.936  -0.347  53.514  1.00  0.00    -0.035 C 
HETATM   18  C1  UNL     1      29.549  -1.789  53.396  1.00  0.00     0.036 C 
ENDBRANCH  15  16
ENDBRANCH   1  15
BRANCH   5  19
HETATM   19  O2  UNL     1      23.348  -0.862  53.632  1.00  0.00    -0.349 OA
BRANCH  19  20
HETATM   20  C15 UNL     1      21.990  -0.709  53.404  1.00  0.00     0.171 C 
HETATM   21  C16 UNL     1      21.278   0.018  54.490  1.00  0.00     0.034 C 
ENDBRANCH  19  20
ENDBRANCH   5  19
BRANCH   6  22
HETATM   22  O3  UNL     1      25.491  -1.200  55.209  1.00  0.00    -0.357 OA
HETATM   23  H21 UNL     1      24.601  -1.591  55.539  1.00  0.00     0.217 HD
ENDBRANCH   6  22
TORSDOF 6
ENDMDL
MODEL 6
REMARK VINA RESULT:      -7.4      1.592      2.198
REMARK  6 active torsions:
REMARK  status: ('A' for Active; 'I' for Inactive)
REMARK    1  A    between atoms: C3_3  and  C4_4 
REMARK    2  A    between atoms: C4_4  and  C5_5 
REMARK    3  A    between atoms: C7_7  and  C8_8 
REMARK    4  A    between atoms: C14_16  and  O2_17 
REMARK    5  A    between atoms: O2_17  and  C15_18 
REMARK    6  A    between atoms: C17_20  and  O3_21 
ROOT
HETATM    1  C5  UNL     1      25.703   4.219  49.821  1.00  0.00    -0.018 A 
HETATM    2  C6  UNL     1      26.440   3.155  50.282  1.00  0.00     0.022 A 
HETATM    3  C7  UNL     1      25.863   2.159  51.029  1.00  0.00    -0.032 A 
HETATM    4  C13 UNL     1      24.521   2.232  51.319  1.00  0.00     0.051 A 
HETATM    5  C14 UNL     1      23.720   3.265  50.892  1.00  0.00     0.103 A 
HETATM    6  C17 UNL     1      24.344   4.261  50.134  1.00  0.00     0.105 A 
ENDROOT
BRANCH   3   7
HETATM    7  C8  UNL     1      26.590   1.012  51.553  1.00  0.00     0.024 C 
HETATM    8  C9  UNL     1      27.131   0.707  52.703  1.00  0.00     0.012 C 
HETATM    9  C10 UNL     1      27.865  -0.551  53.092  1.00  0.00     0.064 C 
HETATM   10  C12 UNL     1      27.160   1.512  53.944  1.00  0.00     0.247 C 
HETATM   11  C11 UNL     1      29.003   0.041  53.896  1.00  0.00     0.128 C 
HETATM   12  N1  UNL     1      28.365   1.128  54.612  1.00  0.00    -0.357 N 
HETATM   13  H14 UNL     1      28.725   1.564  55.477  1.00  0.00     0.162 HD
HETATM   14  O1  UNL     1      26.272   2.345  54.282  1.00  0.00    -0.268 OA
ENDBRANCH   3   7
BRANCH   1  15
HETATM   15  C4  UNL     1      26.416   5.247  49.017  1.00  0.00     0.068 C 
BRANCH  15  16
HETATM   16  C3  UNL     1      27.779   4.798  48.635  1.00  0.00    -0.026 C 
HETATM   17  C2  UNL     1      28.816   5.520  48.227  1.00  0.00    -0.035 C 
HETATM   18  C1  UNL     1      28.643   7.004  48.118  1.00  0.00     0.036 C 
ENDBRANCH  15  16
ENDBRANCH   1  15
BRANCH   5  19
HETATM   19  O2  UNL     1      22.405   3.586  51.028  1.00  0.00    -0.349 OA
BRANCH  19  20
HETATM   20  C15 UNL     1      21.673   3.856  52.172  1.00  0.00     0.171 C 
HETATM   21  C16 UNL     1      20.554   2.903  52.407  1.00  0.00     0.034 C 
ENDBRANCH  19  20
ENDBRANCH   5  19
BRANCH   6  22
HETATM   22  O3  UNL     1      23.739   5.412  49.585  1.00  0.00    -0.357 OA
HETATM   23  H21 UNL     1      24.217   5.887  48.810  1.00  0.00     0.217 HD
ENDBRANCH   6  22
TORSDOF 6
ENDMDL
MODEL 7
REMARK VINA RESULT:      -7.2      2.430      5.502
REMARK  6 active torsions:
REMARK  status: ('A' for Active; 'I' for Inactive)
REMARK    1  A    between atoms: C3_3  and  C4_4 
REMARK    2  A    between atoms: C4_4  and  C5_5 
REMARK    3  A    between atoms: C7_7  and  C8_8 
REMARK    4  A    between atoms: C14_16  and  O2_17 
REMARK    5  A    between atoms: O2_17  and  C15_18 
REMARK    6  A    between atoms: C17_20  and  O3_21 
ROOT
HETATM    1  C5  UNL     1      26.279   2.331  51.552  1.00  0.00    -0.018 A 
HETATM    2  C6  UNL     1      25.047   1.721  51.554  1.00  0.00     0.022 A 
HETATM    3  C7  UNL     1      24.658   0.906  52.586  1.00  0.00    -0.032 A 
HETATM    4  C13 UNL     1      25.519   0.699  53.638  1.00  0.00     0.051 A 
HETATM    5  C14 UNL     1      26.766   1.275  53.706  1.00  0.00     0.103 A 
HETATM    6  C17 UNL     1      27.128   2.099  52.635  1.00  0.00     0.105 A 
ENDROOT
BRANCH   3   7
HETATM    7  C8  UNL     1      23.372   0.226  52.643  1.00  0.00     0.024 C 
HETATM    8  C9  UNL     1      22.123   0.602  52.567  1.00  0.00     0.012 C 
HETATM    9  C10 UNL     1      20.879  -0.245  52.648  1.00  0.00     0.064 C 
HETATM   10  C12 UNL     1      21.588   1.968  52.366  1.00  0.00     0.247 C 
HETATM   11  C11 UNL     1      20.005   0.643  53.507  1.00  0.00     0.128 C 
HETATM   12  N1  UNL     1      20.318   1.974  53.025  1.00  0.00    -0.357 N 
HETATM   13  H14 UNL     1      19.717   2.806  53.139  1.00  0.00     0.162 HD
HETATM   14  O1  UNL     1      22.181   2.887  51.734  1.00  0.00    -0.268 OA
ENDBRANCH   3   7
BRANCH   1  15
HETATM   15  C4  UNL     1      26.611   3.197  50.390  1.00  0.00     0.068 C 
BRANCH  15  16
HETATM   16  C3  UNL     1      25.399   3.840  49.819  1.00  0.00    -0.026 C 
HETATM   17  C2  UNL     1      25.295   4.971  49.133  1.00  0.00    -0.035 C 
HETATM   18  C1  UNL     1      26.545   5.751  48.866  1.00  0.00     0.036 C 
ENDBRANCH  15  16
ENDBRANCH   1  15
BRANCH   5  19
HETATM   19  O2  UNL     1      27.795   1.247  54.595  1.00  0.00    -0.349 OA
BRANCH  19  20
HETATM   20  C15 UNL     1      28.591   0.186  54.994  1.00  0.00     0.171 C 
HETATM   21  C16 UNL     1      29.402  -0.403  53.893  1.00  0.00     0.034 C 
ENDBRANCH  19  20
ENDBRANCH   5  19
BRANCH   6  22
HETATM   22  O3  UNL     1      28.343   2.798  52.476  1.00  0.00    -0.357 OA
HETATM   23  H21 UNL     1      29.108   2.595  53.131  1.00  0.00     0.217 HD
ENDBRANCH   6  22
TORSDOF 6
ENDMDL
MODEL 8
REMARK VINA RESULT:      -7.0      1.880      4.550
REMARK  6 active torsions:
REMARK  status: ('A' for Active; 'I' for Inactive)
REMARK    1  A    between atoms: C3_3  and  C4_4 
REMARK    2  A    between atoms: C4_4  and  C5_5 
REMARK    3  A    between atoms: C7_7  and  C8_8 
REMARK    4  A    between atoms: C14_16  and  O2_17 
REMARK    5  A    between atoms: O2_17  and  C15_18 
REMARK    6  A    between atoms: C17_20  and  O3_21 
ROOT
HETATM    1  C5  UNL     1      23.721   2.784  50.724  1.00  0.00    -0.018 A 
HETATM    2  C6  UNL     1      24.524   1.834  51.308  1.00  0.00     0.022 A 
HETATM    3  C7  UNL     1      25.881   1.831  51.112  1.00  0.00    -0.032 A 
HETATM    4  C13 UNL     1      26.446   2.799  50.315  1.00  0.00     0.051 A 
HETATM    5  C14 UNL     1      25.707   3.781  49.698  1.00  0.00     0.103 A 
HETATM    6  C17 UNL     1      24.327   3.752  49.921  1.00  0.00     0.105 A 
ENDROOT
BRANCH   3   7
HETATM    7  C8  UNL     1      26.784   0.849  51.696  1.00  0.00     0.024 C 
HETATM    8  C9  UNL     1      27.403   0.727  52.841  1.00  0.00     0.012 C 
HETATM    9  C10 UNL     1      28.324  -0.374  53.299  1.00  0.00     0.064 C 
HETATM   10  C12 UNL     1      27.357   1.636  54.008  1.00  0.00     0.247 C 
HETATM   11  C11 UNL     1      29.391   0.443  53.997  1.00  0.00     0.128 C 
HETATM   12  N1  UNL     1      28.627   1.488  54.649  1.00  0.00    -0.357 N 
HETATM   13  H14 UNL     1      28.949   2.046  55.456  1.00  0.00     0.162 HD
HETATM   14  O1  UNL     1      26.370   2.363  54.316  1.00  0.00    -0.268 OA
ENDBRANCH   3   7
BRANCH   1  15
HETATM   15  C4  UNL     1      22.261   2.708  50.997  1.00  0.00     0.068 C 
BRANCH  15  16
HETATM   16  C3  UNL     1      21.724   1.348  50.734  1.00  0.00    -0.026 C 
HETATM   17  C2  UNL     1      21.350   0.802  49.584  1.00  0.00    -0.035 C 
HETATM   18  C1  UNL     1      21.465   1.629  48.341  1.00  0.00     0.036 C 
ENDBRANCH  15  16
ENDBRANCH   1  15
BRANCH   5  19
HETATM   19  O2  UNL     1      25.990   4.830  48.879  1.00  0.00    -0.349 OA
BRANCH  19  20
HETATM   20  C15 UNL     1      27.003   5.770  48.962  1.00  0.00     0.171 C 
HETATM   21  C16 UNL     1      28.297   5.309  48.388  1.00  0.00     0.034 C 
ENDBRANCH  19  20
ENDBRANCH   5  19
BRANCH   6  22
HETATM   22  O3  UNL     1      23.366   4.646  49.403  1.00  0.00    -0.357 OA
HETATM   23  H21 UNL     1      22.795   4.336  48.608  1.00  0.00     0.217 HD
ENDBRANCH   6  22
TORSDOF 6
ENDMDL
MODEL 9
REMARK VINA RESULT:      -7.0      2.741      5.720
REMARK  6 active torsions:
REMARK  status: ('A' for Active; 'I' for Inactive)
REMARK    1  A    between atoms: C3_3  and  C4_4 
REMARK    2  A    between atoms: C4_4  and  C5_5 
REMARK    3  A    between atoms: C7_7  and  C8_8 
REMARK    4  A    between atoms: C14_16  and  O2_17 
REMARK    5  A    between atoms: O2_17  and  C15_18 
REMARK    6  A    between atoms: C17_20  and  O3_21 
ROOT
HETATM    1  C5  UNL     1      25.287   2.506  51.819  1.00  0.00    -0.018 A 
HETATM    2  C6  UNL     1      24.241   1.755  52.298  1.00  0.00     0.022 A 
HETATM    3  C7  UNL     1      24.458   0.636  53.060  1.00  0.00    -0.032 A 
HETATM    4  C13 UNL     1      25.750   0.262  53.350  1.00  0.00     0.051 A 
HETATM    5  C14 UNL     1      26.846   0.964  52.906  1.00  0.00     0.103 A 
HETATM    6  C17 UNL     1      26.585   2.099  52.131  1.00  0.00     0.105 A 
ENDROOT
BRANCH   3   7
HETATM    7  C8  UNL     1      23.395  -0.206  53.590  1.00  0.00     0.024 C 
HETATM    8  C9  UNL     1      22.161  -0.462  53.245  1.00  0.00     0.012 C 
HETATM    9  C10 UNL     1      21.168  -1.378  53.915  1.00  0.00     0.064 C 
HETATM   10  C12 UNL     1      21.403   0.069  52.090  1.00  0.00     0.247 C 
HETATM   11  C11 UNL     1      19.917  -0.532  53.820  1.00  0.00     0.128 C 
HETATM   12  N1  UNL     1      20.036   0.082  52.512  1.00  0.00    -0.357 N 
HETATM   13  H14 UNL     1      19.253   0.472  51.963  1.00  0.00     0.162 HD
HETATM   14  O1  UNL     1      21.918   0.418  50.990  1.00  0.00    -0.268 OA
ENDBRANCH   3   7
BRANCH   1  15
HETATM   15  C4  UNL     1      24.952   3.703  51.003  1.00  0.00     0.068 C 
BRANCH  15  16
HETATM   16  C3  UNL     1      24.654   3.342  49.593  1.00  0.00    -0.026 C 
HETATM   17  C2  UNL     1      23.487   3.327  48.961  1.00  0.00    -0.035 C 
HETATM   18  C1  UNL     1      22.264   3.722  49.729  1.00  0.00     0.036 C 
ENDBRANCH  15  16
ENDBRANCH   1  15
BRANCH   5  19
HETATM   19  O2  UNL     1      28.194   0.830  53.032  1.00  0.00    -0.349 OA
BRANCH  19  20
HETATM   20  C15 UNL     1      28.935   0.262  54.055  1.00  0.00     0.171 C 
HETATM   21  C16 UNL     1      29.686  -0.957  53.647  1.00  0.00     0.034 C 
ENDBRANCH  19  20
ENDBRANCH   5  19
BRANCH   6  22
HETATM   22  O3  UNL     1      27.534   2.977  51.566  1.00  0.00    -0.357 OA
HETATM   23  H21 UNL     1      28.513   2.668  51.521  1.00  0.00     0.217 HD
ENDBRANCH   6  22
TORSDOF 6
ENDMDL
