MODEL 1
REMARK VINA RESULT:      -7.0      0.000      0.000
REMARK  3 active torsions:
REMARK  status: ('A' for Active; 'I' for Inactive)
REMARK    1  A    between atoms: C2_2  and  O1_3 
REMARK    2  A    between atoms: C2_2  and  O2_6 
REMARK    3  A    between atoms: O2_6  and  C4_7 
ROOT
HETATM    1  C4  UNL     1      22.709   3.994  51.283  1.00  0.00     0.144 A 
HETATM    2  C5  UNL     1      21.247   4.350  50.937  1.00  0.00     0.092 A 
HETATM    3  C6  UNL     1      20.220   3.906  50.302  1.00  0.00     0.033 A 
HETATM    4  C7  UNL     1      20.004   3.412  51.704  1.00  0.00     0.097 C 
HETATM    5  N1  UNL     1      20.860   3.670  52.656  1.00  0.00    -0.290 NA
HETATM    6  C8  UNL     1      22.196   3.145  52.431  1.00  0.00     0.194 C 
HETATM    7  P2  UNL     1      21.849   1.397  51.763  1.00  0.00    -0.005 P 
HETATM    8  N2  UNL     1      22.019   1.120  50.007  1.00  0.00    -0.384 N 
HETATM    9  C9  UNL     1      21.604   1.702  48.680  1.00  0.00     0.067 A 
HETATM   10  C10 UNL     1      22.623   2.317  48.027  1.00  0.00     0.057 A 
HETATM   11  C11 UNL     1      22.285   3.462  47.337  1.00  0.00    -0.027 A 
HETATM   12  C12 UNL     1      21.143   2.993  47.912  1.00  0.00     0.038 A 
HETATM   13  C13 UNL     1      20.047   2.453  48.524  1.00  0.00     0.109 A 
HETATM   14  C14 UNL     1      18.668   2.922  48.413  1.00  0.00     0.077 C 
HETATM   15  N3  UNL     1      17.584   3.287  48.311  1.00  0.00    -0.196 NA
HETATM   16  C15 UNL     1      20.429   1.287  49.228  1.00  0.00     0.007 A 
HETATM   17  C16 UNL     1      20.795   4.494  48.113  1.00  0.00    -0.021 C 
HETATM   18  C17 UNL     1      21.230   4.635  49.400  1.00  0.00     0.038 A 
HETATM   19  C18 UNL     1      22.491   5.215  50.074  1.00  0.00     0.131 A 
HETATM   20  C19 UNL     1      23.164   5.360  51.305  1.00  0.00     0.098 A 
HETATM   21  O3  UNL     1      23.677   6.557  51.547  1.00  0.00    -0.351 OA
HETATM   22  C20 UNL     1      23.472   7.604  50.582  1.00  0.00     0.201 C 
HETATM   23  C21 UNL     1      23.858   7.028  49.244  1.00  0.00     0.196 C 
HETATM   24  O4  UNL     1      23.192   5.798  49.060  1.00  0.00    -0.370 OA
HETATM   25  H10 UNL     1      20.619   0.885  52.305  1.00  0.00     0.082 HD
HETATM   26  H11 UNL     1      22.600   0.286  50.328  1.00  0.00     0.159 HD
ENDROOT
BRANCH   1  27
HETATM   27  O2  UNL     1      23.410   3.187  50.445  1.00  0.00    -0.363 OA
BRANCH  27  28
HETATM   28  C2  UNL     1      24.765   3.279  50.774  1.00  0.00     0.147 C 
HETATM   29  C1  UNL     1      25.526   3.422  49.427  1.00  0.00     0.042 C 
BRANCH  28  30
HETATM   30  O1  UNL     1      25.320   2.189  51.421  1.00  0.00     0.000 OA
HETATM   31  C3  UNL     1      26.686   2.071  51.615  1.00  0.00     0.009 A 
HETATM   32  P1  UNL     1      25.642   0.945  52.306  1.00  0.00    -0.076 P 
HETATM   33  H6  UNL     1      24.223   1.148  52.049  1.00  0.00     0.066 HD
ENDBRANCH  28  30
ENDBRANCH  27  28
ENDBRANCH   1  27
TORSDOF 3
ENDMDL
MODEL 2
REMARK VINA RESULT:      -7.0      2.585      5.544
REMARK  3 active torsions:
REMARK  status: ('A' for Active; 'I' for Inactive)
REMARK    1  A    between atoms: C2_2  and  O1_3 
REMARK    2  A    between atoms: C2_2  and  O2_6 
REMARK    3  A    between atoms: O2_6  and  C4_7 
ROOT
HETATM    1  C4  UNL     1      22.630   4.083  49.168  1.00  0.00     0.144 A 
HETATM    2  C5  UNL     1      24.014   4.636  48.763  1.00  0.00     0.092 A 
HETATM    3  C6  UNL     1      24.877   5.535  49.080  1.00  0.00     0.033 A 
HETATM    4  C7  UNL     1      25.333   4.327  49.848  1.00  0.00     0.097 C 
HETATM    5  N1  UNL     1      24.690   3.193  49.778  1.00  0.00    -0.290 NA
HETATM    6  C8  UNL     1      23.312   3.247  50.234  1.00  0.00     0.194 C 
HETATM    7  P2  UNL     1      23.439   4.298  51.816  1.00  0.00    -0.005 P 
HETATM    8  N2  UNL     1      22.921   6.006  51.733  1.00  0.00    -0.384 N 
HETATM    9  C9  UNL     1      23.102   7.249  50.900  1.00  0.00     0.067 A 
HETATM   10  C10 UNL     1      22.008   7.555  50.157  1.00  0.00     0.057 A 
HETATM   11  C11 UNL     1      22.263   8.062  48.900  1.00  0.00    -0.027 A 
HETATM   12  C12 UNL     1      23.470   7.826  49.486  1.00  0.00     0.038 A 
HETATM   13  C13 UNL     1      24.635   7.561  50.148  1.00  0.00     0.109 A 
HETATM   14  C14 UNL     1      25.989   7.848  49.679  1.00  0.00     0.077 C 
HETATM   15  N3  UNL     1      27.049   8.090  49.312  1.00  0.00    -0.196 NA
HETATM   16  C15 UNL     1      24.338   7.036  51.428  1.00  0.00     0.007 A 
HETATM   17  C16 UNL     1      23.923   7.409  48.059  1.00  0.00    -0.021 C 
HETATM   18  C17 UNL     1      23.750   6.060  48.175  1.00  0.00     0.038 A 
HETATM   19  C18 UNL     1      22.672   5.049  47.730  1.00  0.00     0.131 A 
HETATM   20  C19 UNL     1      22.255   3.706  47.830  1.00  0.00     0.098 A 
HETATM   21  O3  UNL     1      21.857   3.138  46.701  1.00  0.00    -0.351 OA
HETATM   22  C20 UNL     1      21.924   3.901  45.484  1.00  0.00     0.201 C 
HETATM   23  C21 UNL     1      21.260   5.222  45.775  1.00  0.00     0.196 C 
HETATM   24  O4  UNL     1      21.818   5.772  46.949  1.00  0.00    -0.370 OA
HETATM   25  H10 UNL     1      24.723   4.121  52.438  1.00  0.00     0.082 HD
HETATM   26  H11 UNL     1      22.372   5.746  52.609  1.00  0.00     0.159 HD
ENDROOT
BRANCH   1  27
HETATM   27  O2  UNL     1      21.743   4.907  49.783  1.00  0.00    -0.363 OA
BRANCH  27  28
HETATM   28  C2  UNL     1      20.473   4.331  49.699  1.00  0.00     0.147 C 
HETATM   29  C1  UNL     1      19.471   5.512  49.582  1.00  0.00     0.042 C 
BRANCH  28  30
HETATM   30  O1  UNL     1      20.062   3.577  50.784  1.00  0.00     0.000 OA
HETATM   31  C3  UNL     1      18.837   3.781  51.395  1.00  0.00     0.009 A 
HETATM   32  P1  UNL     1      19.806   2.490  51.874  1.00  0.00    -0.076 P 
HETATM   33  H6  UNL     1      21.077   2.353  51.177  1.00  0.00     0.066 HD
ENDBRANCH  28  30
ENDBRANCH  27  28
ENDBRANCH   1  27
TORSDOF 3
ENDMDL
MODEL 3
REMARK VINA RESULT:      -6.9      2.940      5.291
REMARK  3 active torsions:
REMARK  status: ('A' for Active; 'I' for Inactive)
REMARK    1  A    between atoms: C2_2  and  O1_3 
REMARK    2  A    between atoms: C2_2  and  O2_6 
REMARK    3  A    between atoms: O2_6  and  C4_7 
ROOT
HETATM    1  C4  UNL     1      20.249   4.758  49.966  1.00  0.00     0.144 A 
HETATM    2  C5  UNL     1      20.923   4.277  51.270  1.00  0.00     0.092 A 
HETATM    3  C6  UNL     1      21.966   3.661  51.702  1.00  0.00     0.033 A 
HETATM    4  C7  UNL     1      22.365   5.107  51.764  1.00  0.00     0.097 C 
HETATM    5  N1  UNL     1      21.547   6.056  51.395  1.00  0.00    -0.290 NA
HETATM    6  C8  UNL     1      21.131   5.992  50.004  1.00  0.00     0.194 C 
HETATM    7  P2  UNL     1      22.756   5.584  49.102  1.00  0.00    -0.005 P 
HETATM    8  N2  UNL     1      23.012   3.904  48.550  1.00  0.00    -0.384 N 
HETATM    9  C9  UNL     1      22.935   2.482  49.043  1.00  0.00     0.067 A 
HETATM   10  C10 UNL     1      21.874   1.801  48.539  1.00  0.00     0.057 A 
HETATM   11  C11 UNL     1      21.260   0.924  49.409  1.00  0.00    -0.027 A 
HETATM   12  C12 UNL     1      22.292   1.498  50.086  1.00  0.00     0.038 A 
HETATM   13  C13 UNL     1      23.347   2.122  50.690  1.00  0.00     0.109 A 
HETATM   14  C14 UNL     1      23.862   1.861  52.032  1.00  0.00     0.077 C 
HETATM   15  N3  UNL     1      24.271   1.641  53.082  1.00  0.00    -0.196 NA
HETATM   16  C15 UNL     1      23.949   3.019  49.776  1.00  0.00     0.007 A 
HETATM   17  C16 UNL     1      21.335   1.444  51.308  1.00  0.00    -0.021 C 
HETATM   18  C17 UNL     1      20.843   2.717  51.241  1.00  0.00     0.038 A 
HETATM   19  C18 UNL     1      19.545   3.364  50.716  1.00  0.00     0.131 A 
HETATM   20  C19 UNL     1      18.906   4.595  50.457  1.00  0.00     0.098 A 
HETATM   21  O3  UNL     1      17.637   4.678  50.831  1.00  0.00    -0.351 OA
HETATM   22  C20 UNL     1      17.039   3.553  51.498  1.00  0.00     0.201 C 
HETATM   23  C21 UNL     1      17.354   2.344  50.654  1.00  0.00     0.196 C 
HETATM   24  O4  UNL     1      18.739   2.314  50.388  1.00  0.00    -0.370 OA
HETATM   25  H10 UNL     1      23.879   6.126  49.817  1.00  0.00     0.082 HD
HETATM   26  H11 UNL     1      23.263   4.383  47.632  1.00  0.00     0.159 HD
ENDROOT
BRANCH   1  27
HETATM   27  O2  UNL     1      20.503   4.096  48.808  1.00  0.00    -0.363 OA
BRANCH  27  28
HETATM   28  C2  UNL     1      19.574   4.513  47.849  1.00  0.00     0.147 C 
HETATM   29  C1  UNL     1      19.145   3.233  47.082  1.00  0.00     0.042 C 
BRANCH  28  30
HETATM   30  O1  UNL     1      20.028   5.406  46.895  1.00  0.00     0.000 OA
HETATM   31  C3  UNL     1      20.699   4.985  45.760  1.00  0.00     0.009 A 
HETATM   32  P1  UNL     1      20.284   6.608  45.933  1.00  0.00    -0.076 P 
HETATM   33  H6  UNL     1      19.580   6.959  47.159  1.00  0.00     0.066 HD
ENDBRANCH  28  30
ENDBRANCH  27  28
ENDBRANCH   1  27
TORSDOF 3
ENDMDL
MODEL 4
REMARK VINA RESULT:      -6.7      9.400     11.933
REMARK  3 active torsions:
REMARK  status: ('A' for Active; 'I' for Inactive)
REMARK    1  A    between atoms: C2_2  and  O1_3 
REMARK    2  A    between atoms: C2_2  and  O2_6 
REMARK    3  A    between atoms: O2_6  and  C4_7 
ROOT
HETATM    1  C4  UNL     1      30.714   9.051  46.362  1.00  0.00     0.144 A 
HETATM    2  C5  UNL     1      30.716   7.512  46.233  1.00  0.00     0.092 A 
HETATM    3  C6  UNL     1      31.065   6.444  46.858  1.00  0.00     0.033 A 
HETATM    4  C7  UNL     1      29.633   6.633  47.266  1.00  0.00     0.097 C 
HETATM    5  N1  UNL     1      28.925   7.638  46.823  1.00  0.00    -0.290 NA
HETATM    6  C8  UNL     1      29.441   8.948  47.181  1.00  0.00     0.194 C 
HETATM    7  P2  UNL     1      29.930   8.719  49.006  1.00  0.00    -0.005 P 
HETATM    8  N2  UNL     1      31.662   8.518  49.393  1.00  0.00    -0.384 N 
HETATM    9  C9  UNL     1      32.875   7.726  48.975  1.00  0.00     0.067 A 
HETATM   10  C10 UNL     1      33.779   8.464  48.282  1.00  0.00     0.057 A 
HETATM   11  C11 UNL     1      34.417   7.809  47.249  1.00  0.00    -0.027 A 
HETATM   12  C12 UNL     1      33.565   6.914  47.821  1.00  0.00     0.038 A 
HETATM   13  C13 UNL     1      32.686   6.082  48.453  1.00  0.00     0.109 A 
HETATM   14  C14 UNL     1      32.482   4.660  48.183  1.00  0.00     0.077 C 
HETATM   15  N3  UNL     1      32.337   3.540  47.976  1.00  0.00    -0.196 NA
HETATM   16  C15 UNL     1      32.043   6.785  49.500  1.00  0.00     0.007 A 
HETATM   17  C16 UNL     1      33.352   6.403  46.369  1.00  0.00    -0.021 C 
HETATM   18  C17 UNL     1      32.214   7.098  46.072  1.00  0.00     0.038 A 
HETATM   19  C18 UNL     1      31.888   8.380  45.278  1.00  0.00     0.131 A 
HETATM   20  C19 UNL     1      30.862   9.291  44.951  1.00  0.00     0.098 A 
HETATM   21  O3  UNL     1      30.802   9.663  43.680  1.00  0.00    -0.351 OA
HETATM   22  C20 UNL     1      31.734   9.088  42.748  1.00  0.00     0.201 C 
HETATM   23  C21 UNL     1      33.099   9.235  43.368  1.00  0.00     0.196 C 
HETATM   24  O4  UNL     1      33.065   8.734  44.687  1.00  0.00    -0.370 OA
HETATM   25  H10 UNL     1      29.088   7.738  49.634  1.00  0.00     0.082 HD
HETATM   26  H11 UNL     1      31.454   9.275  50.115  1.00  0.00     0.159 HD
ENDROOT
BRANCH   1  27
HETATM   27  O2  UNL     1      31.661   9.650  47.131  1.00  0.00    -0.363 OA
BRANCH  27  28
HETATM   28  C2  UNL     1      31.671  11.016  46.833  1.00  0.00     0.147 C 
HETATM   29  C1  UNL     1      33.158  11.461  46.905  1.00  0.00     0.042 C 
BRANCH  28  30
HETATM   30  O1  UNL     1      30.974  11.843  47.696  1.00  0.00     0.000 OA
HETATM   31  C3  UNL     1      29.905  12.612  47.269  1.00  0.00     0.009 A 
HETATM   32  P1  UNL     1      30.292  12.553  48.907  1.00  0.00    -0.076 P 
HETATM   33  H6  UNL     1      31.431  11.718  49.264  1.00  0.00     0.066 HD
ENDBRANCH  28  30
ENDBRANCH  27  28
ENDBRANCH   1  27
TORSDOF 3
ENDMDL
MODEL 5
REMARK VINA RESULT:      -6.5      2.375      5.306
REMARK  3 active torsions:
REMARK  status: ('A' for Active; 'I' for Inactive)
REMARK    1  A    between atoms: C2_2  and  O1_3 
REMARK    2  A    between atoms: C2_2  and  O2_6 
REMARK    3  A    between atoms: O2_6  and  C4_7 
ROOT
HETATM    1  C4  UNL     1      20.706   3.200  49.029  1.00  0.00     0.144 A 
HETATM    2  C5  UNL     1      22.119   2.578  49.079  1.00  0.00     0.092 A 
HETATM    3  C6  UNL     1      23.164   2.498  49.824  1.00  0.00     0.033 A 
HETATM    4  C7  UNL     1      22.370   1.282  50.206  1.00  0.00     0.097 C 
HETATM    5  N1  UNL     1      21.219   1.017  49.648  1.00  0.00    -0.290 NA
HETATM    6  C8  UNL     1      20.199   2.031  49.852  1.00  0.00     0.194 C 
HETATM    7  P2  UNL     1      20.409   2.469  51.692  1.00  0.00    -0.005 P 
HETATM    8  N2  UNL     1      21.250   3.991  52.103  1.00  0.00    -0.384 N 
HETATM    9  C9  UNL     1      22.504   4.763  51.782  1.00  0.00     0.067 A 
HETATM   10  C10 UNL     1      22.272   5.855  51.009  1.00  0.00     0.057 A 
HETATM   11  C11 UNL     1      23.234   6.130  50.060  1.00  0.00    -0.027 A 
HETATM   12  C12 UNL     1      23.643   5.017  50.730  1.00  0.00     0.038 A 
HETATM   13  C13 UNL     1      23.977   3.907  51.453  1.00  0.00     0.109 A 
HETATM   14  C14 UNL     1      25.216   3.139  51.349  1.00  0.00     0.077 C 
HETATM   15  N3  UNL     1      26.197   2.548  51.273  1.00  0.00    -0.196 NA
HETATM   16  C15 UNL     1      22.968   3.649  52.411  1.00  0.00     0.007 A 
HETATM   17  C16 UNL     1      24.176   4.551  49.347  1.00  0.00    -0.021 C 
HETATM   18  C17 UNL     1      23.117   3.776  48.970  1.00  0.00     0.038 A 
HETATM   19  C18 UNL     1      21.905   3.955  48.032  1.00  0.00     0.131 A 
HETATM   20  C19 UNL     1      20.698   3.367  47.600  1.00  0.00     0.098 A 
HETATM   21  O3  UNL     1      20.472   3.404  46.295  1.00  0.00    -0.351 OA
HETATM   22  C20 UNL     1      21.470   3.984  45.437  1.00  0.00     0.201 C 
HETATM   23  C21 UNL     1      21.821   5.320  46.038  1.00  0.00     0.196 C 
HETATM   24  O4  UNL     1      22.122   5.148  47.406  1.00  0.00    -0.370 OA
HETATM   25  H10 UNL     1      20.894   1.333  52.428  1.00  0.00     0.082 HD
HETATM   26  H11 UNL     1      20.402   4.136  52.732  1.00  0.00     0.159 HD
ENDROOT
BRANCH   1  27
HETATM   27  O2  UNL     1      20.462   4.341  49.725  1.00  0.00    -0.363 OA
BRANCH  27  28
HETATM   28  C2  UNL     1      19.278   4.906  49.243  1.00  0.00     0.147 C 
HETATM   29  C1  UNL     1      19.446   6.444  49.388  1.00  0.00     0.042 C 
BRANCH  28  30
HETATM   30  O1  UNL     1      18.115   4.575  49.915  1.00  0.00     0.000 OA
HETATM   31  C3  UNL     1      17.024   4.027  49.263  1.00  0.00     0.009 A 
HETATM   32  P1  UNL     1      17.012   4.167  50.940  1.00  0.00    -0.076 P 
HETATM   33  H6  UNL     1      18.202   4.755  51.540  1.00  0.00     0.066 HD
ENDBRANCH  28  30
ENDBRANCH  27  28
ENDBRANCH   1  27
TORSDOF 3
ENDMDL
MODEL 6
REMARK VINA RESULT:      -6.5      2.108      2.866
REMARK  3 active torsions:
REMARK  status: ('A' for Active; 'I' for Inactive)
REMARK    1  A    between atoms: C2_2  and  O1_3 
REMARK    2  A    between atoms: C2_2  and  O2_6 
REMARK    3  A    between atoms: O2_6  and  C4_7 
ROOT
HETATM    1  C4  UNL     1      22.271   5.566  50.461  1.00  0.00     0.144 A 
HETATM    2  C5  UNL     1      21.100   4.703  50.980  1.00  0.00     0.092 A 
HETATM    3  C6  UNL     1      20.643   3.501  50.962  1.00  0.00     0.033 A 
HETATM    4  C7  UNL     1      21.464   3.543  52.219  1.00  0.00     0.097 C 
HETATM    5  N1  UNL     1      22.099   4.626  52.581  1.00  0.00    -0.290 NA
HETATM    6  C8  UNL     1      23.102   5.087  51.636  1.00  0.00     0.194 C 
HETATM    7  P2  UNL     1      23.968   3.471  51.127  1.00  0.00    -0.005 P 
HETATM    8  N2  UNL     1      23.561   2.764  49.537  1.00  0.00    -0.384 N 
HETATM    9  C9  UNL     1      22.373   2.388  48.689  1.00  0.00     0.067 A 
HETATM   10  C10 UNL     1      22.181   3.229  47.640  1.00  0.00     0.057 A 
HETATM   11  C11 UNL     1      20.866   3.504  47.329  1.00  0.00    -0.027 A 
HETATM   12  C12 UNL     1      20.853   2.648  48.389  1.00  0.00     0.038 A 
HETATM   13  C13 UNL     1      20.932   1.790  49.448  1.00  0.00     0.109 A 
HETATM   14  C14 UNL     1      19.814   1.142  50.131  1.00  0.00     0.077 C 
HETATM   15  N3  UNL     1      18.932   0.624  50.653  1.00  0.00    -0.196 NA
HETATM   16  C15 UNL     1      22.292   1.536  49.747  1.00  0.00     0.007 A 
HETATM   17  C16 UNL     1      19.623   3.472  48.859  1.00  0.00    -0.021 C 
HETATM   18  C17 UNL     1      20.260   4.320  49.719  1.00  0.00     0.038 A 
HETATM   19  C18 UNL     1      20.753   5.781  49.654  1.00  0.00     0.131 A 
HETATM   20  C19 UNL     1      21.490   6.769  50.340  1.00  0.00     0.098 A 
HETATM   21  O3  UNL     1      20.954   7.981  50.360  1.00  0.00    -0.351 OA
HETATM   22  C20 UNL     1      19.672   8.179  49.738  1.00  0.00     0.201 C 
HETATM   23  C21 UNL     1      19.770   7.573  48.362  1.00  0.00     0.196 C 
HETATM   24  O4  UNL     1      20.273   6.259  48.470  1.00  0.00    -0.370 OA
HETATM   25  H10 UNL     1      23.928   2.517  52.202  1.00  0.00     0.082 HD
HETATM   26  H11 UNL     1      24.621   2.721  49.432  1.00  0.00     0.159 HD
ENDROOT
BRANCH   1  27
HETATM   27  O2  UNL     1      22.908   5.198  49.319  1.00  0.00    -0.363 OA
BRANCH  27  28
HETATM   28  C2  UNL     1      23.709   6.263  48.898  1.00  0.00     0.147 C 
HETATM   29  C1  UNL     1      23.372   6.488  47.398  1.00  0.00     0.042 C 
BRANCH  28  30
HETATM   30  O1  UNL     1      25.077   6.073  48.966  1.00  0.00     0.000 OA
HETATM   31  C3  UNL     1      25.889   6.872  49.753  1.00  0.00     0.009 A 
HETATM   32  P1  UNL     1      26.543   5.535  48.965  1.00  0.00    -0.076 P 
HETATM   33  H6  UNL     1      25.615   4.752  48.160  1.00  0.00     0.066 HD
ENDBRANCH  28  30
ENDBRANCH  27  28
ENDBRANCH   1  27
TORSDOF 3
ENDMDL
MODEL 7
REMARK VINA RESULT:      -6.4      8.029     10.649
REMARK  3 active torsions:
REMARK  status: ('A' for Active; 'I' for Inactive)
REMARK    1  A    between atoms: C2_2  and  O1_3 
REMARK    2  A    between atoms: C2_2  and  O2_6 
REMARK    3  A    between atoms: O2_6  and  C4_7 
ROOT
HETATM    1  C4  UNL     1      28.855  10.470  48.568  1.00  0.00     0.144 A 
HETATM    2  C5  UNL     1      29.539   9.122  48.883  1.00  0.00     0.092 A 
HETATM    3  C6  UNL     1      30.368   8.269  48.394  1.00  0.00     0.033 A 
HETATM    4  C7  UNL     1      31.239   9.162  49.230  1.00  0.00     0.097 C 
HETATM    5  N1  UNL     1      30.741  10.169  49.896  1.00  0.00    -0.290 NA
HETATM    6  C8  UNL     1      30.096  11.180  49.075  1.00  0.00     0.194 C 
HETATM    7  P2  UNL     1      31.306  11.366  47.618  1.00  0.00    -0.005 P 
HETATM    8  N2  UNL     1      30.878  10.593  46.065  1.00  0.00    -0.384 N 
HETATM    9  C9  UNL     1      30.408   9.277  45.499  1.00  0.00     0.067 A 
HETATM   10  C10 UNL     1      29.110   9.302  45.104  1.00  0.00     0.057 A 
HETATM   11  C11 UNL     1      28.393   8.147  45.339  1.00  0.00    -0.027 A 
HETATM   12  C12 UNL     1      29.659   7.928  45.791  1.00  0.00     0.038 A 
HETATM   13  C13 UNL     1      30.949   7.793  46.217  1.00  0.00     0.109 A 
HETATM   14  C14 UNL     1      31.567   6.585  46.759  1.00  0.00     0.077 C 
HETATM   15  N3  UNL     1      32.051   5.628  47.170  1.00  0.00    -0.196 NA
HETATM   16  C15 UNL     1      31.654   8.996  45.970  1.00  0.00     0.007 A 
HETATM   17  C16 UNL     1      28.964   7.118  46.920  1.00  0.00    -0.021 C 
HETATM   18  C17 UNL     1      28.930   8.090  47.879  1.00  0.00     0.038 A 
HETATM   19  C18 UNL     1      27.859   9.060  48.419  1.00  0.00     0.131 A 
HETATM   20  C19 UNL     1      27.641  10.159  49.276  1.00  0.00     0.098 A 
HETATM   21  O3  UNL     1      26.561  10.092  50.040  1.00  0.00    -0.351 OA
HETATM   22  C20 UNL     1      25.740   8.913  49.972  1.00  0.00     0.201 C 
HETATM   23  C21 UNL     1      25.476   8.664  48.509  1.00  0.00     0.196 C 
HETATM   24  O4  UNL     1      26.701   8.676  47.809  1.00  0.00    -0.370 OA
HETATM   25  H10 UNL     1      32.652  11.089  48.041  1.00  0.00     0.082 HD
HETATM   26  H11 UNL     1      31.116  11.555  45.671  1.00  0.00     0.159 HD
ENDROOT
BRANCH   1  27
HETATM   27  O2  UNL     1      28.667  10.829  47.271  1.00  0.00    -0.363 OA
BRANCH  27  28
HETATM   28  C2  UNL     1      27.680  11.817  47.226  1.00  0.00     0.147 C 
HETATM   29  C1  UNL     1      26.884  11.571  45.915  1.00  0.00     0.042 C 
BRANCH  28  30
HETATM   30  O1  UNL     1      28.119  13.128  47.176  1.00  0.00     0.000 OA
HETATM   31  C3  UNL     1      27.725  14.068  48.113  1.00  0.00     0.009 A 
HETATM   32  P1  UNL     1      28.883  14.471  46.959  1.00  0.00    -0.076 P 
HETATM   33  H6  UNL     1      29.236  13.420  46.014  1.00  0.00     0.066 HD
ENDBRANCH  28  30
ENDBRANCH  27  28
ENDBRANCH   1  27
TORSDOF 3
ENDMDL
MODEL 8
REMARK VINA RESULT:      -6.3     24.579     26.825
REMARK  3 active torsions:
REMARK  status: ('A' for Active; 'I' for Inactive)
REMARK    1  A    between atoms: C2_2  and  O1_3 
REMARK    2  A    between atoms: C2_2  and  O2_6 
REMARK    3  A    between atoms: O2_6  and  C4_7 
ROOT
HETATM    1  C4  UNL     1      39.837   0.672  69.731  1.00  0.00     0.144 A 
HETATM    2  C5  UNL     1      39.495   0.088  68.343  1.00  0.00     0.092 A 
HETATM    3  C6  UNL     1      38.938  -0.926  67.781  1.00  0.00     0.033 A 
HETATM    4  C7  UNL     1      37.821   0.071  67.885  1.00  0.00     0.097 C 
HETATM    5  N1  UNL     1      38.007   1.250  68.416  1.00  0.00    -0.290 NA
HETATM    6  C8  UNL     1      38.428   1.230  69.807  1.00  0.00     0.194 C 
HETATM    7  P2  UNL     1      37.304  -0.107  70.562  1.00  0.00    -0.005 P 
HETATM    8  N2  UNL     1      38.010  -1.718  70.878  1.00  0.00    -0.384 N 
HETATM    9  C9  UNL     1      38.829  -2.792  70.210  1.00  0.00     0.067 A 
HETATM   10  C10 UNL     1      40.102  -2.857  70.677  1.00  0.00     0.057 A 
HETATM   11  C11 UNL     1      41.070  -3.138  69.735  1.00  0.00    -0.027 A 
HETATM   12  C12 UNL     1      39.873  -3.122  69.084  1.00  0.00     0.038 A 
HETATM   13  C13 UNL     1      38.633  -3.088  68.512  1.00  0.00     0.109 A 
HETATM   14  C14 UNL     1      38.305  -3.398  67.122  1.00  0.00     0.077 C 
HETATM   15  N3  UNL     1      38.053  -3.657  66.032  1.00  0.00    -0.196 NA
HETATM   16  C15 UNL     1      37.667  -2.790  69.502  1.00  0.00     0.007 A 
HETATM   17  C16 UNL     1      40.676  -2.485  67.917  1.00  0.00    -0.021 C 
HETATM   18  C17 UNL     1      40.405  -1.171  68.174  1.00  0.00     0.038 A 
HETATM   19  C18 UNL     1      41.162  -0.006  68.845  1.00  0.00     0.131 A 
HETATM   20  C19 UNL     1      41.043   1.326  69.294  1.00  0.00     0.098 A 
HETATM   21  O3  UNL     1      42.056   2.128  69.000  1.00  0.00    -0.351 OA
HETATM   22  C20 UNL     1      43.149   1.605  68.226  1.00  0.00     0.201 C 
HETATM   23  C21 UNL     1      43.558   0.315  68.888  1.00  0.00     0.196 C 
HETATM   24  O4  UNL     1      42.416  -0.492  69.076  1.00  0.00    -0.370 OA
HETATM   25  H10 UNL     1      36.047  -0.162  69.866  1.00  0.00     0.082 HD
HETATM   26  H11 UNL     1      37.563  -1.580  71.837  1.00  0.00     0.159 HD
ENDROOT
BRANCH   1  27
HETATM   27  O2  UNL     1      40.011  -0.173  70.780  1.00  0.00    -0.363 OA
BRANCH  27  28
HETATM   28  C2  UNL     1      40.592   0.541  71.831  1.00  0.00     0.147 C 
HETATM   29  C1  UNL     1      41.675  -0.392  72.438  1.00  0.00     0.042 C 
BRANCH  28  30
HETATM   30  O1  UNL     1      39.755   0.898  72.873  1.00  0.00     0.000 OA
HETATM   31  C3  UNL     1      39.433   0.014  73.889  1.00  0.00     0.009 A 
HETATM   32  P1  UNL     1      38.923   1.616  73.982  1.00  0.00    -0.076 P 
HETATM   33  H6  UNL     1      39.308   2.474  72.869  1.00  0.00     0.066 HD
ENDBRANCH  28  30
ENDBRANCH  27  28
ENDBRANCH   1  27
TORSDOF 3
ENDMDL
MODEL 9
REMARK VINA RESULT:      -6.3     24.998     27.100
REMARK  3 active torsions:
REMARK  status: ('A' for Active; 'I' for Inactive)
REMARK    1  A    between atoms: C2_2  and  O1_3 
REMARK    2  A    between atoms: C2_2  and  O2_6 
REMARK    3  A    between atoms: O2_6  and  C4_7 
ROOT
HETATM    1  C4  UNL     1      40.866  -0.460  69.234  1.00  0.00     0.144 A 
HETATM    2  C5  UNL     1      40.897  -1.373  67.990  1.00  0.00     0.092 A 
HETATM    3  C6  UNL     1      40.187  -2.231  67.346  1.00  0.00     0.033 A 
HETATM    4  C7  UNL     1      39.868  -0.933  66.663  1.00  0.00     0.097 C 
HETATM    5  N1  UNL     1      40.411   0.191  67.048  1.00  0.00    -0.290 NA
HETATM    6  C8  UNL     1      40.112   0.572  68.417  1.00  0.00     0.194 C 
HETATM    7  P2  UNL     1      38.253   0.192  68.558  1.00  0.00    -0.005 P 
HETATM    8  N2  UNL     1      37.762  -1.291  69.425  1.00  0.00    -0.384 N 
HETATM    9  C9  UNL     1      38.063  -2.767  69.492  1.00  0.00     0.067 A 
HETATM   10  C10 UNL     1      38.753  -3.118  70.607  1.00  0.00     0.057 A 
HETATM   11  C11 UNL     1      39.706  -4.100  70.434  1.00  0.00    -0.027 A 
HETATM   12  C12 UNL     1      39.124  -3.892  69.220  1.00  0.00     0.038 A 
HETATM   13  C13 UNL     1      38.487  -3.621  68.042  1.00  0.00     0.109 A 
HETATM   14  C14 UNL     1      38.676  -4.313  66.769  1.00  0.00     0.077 C 
HETATM   15  N3  UNL     1      38.819  -4.870  65.775  1.00  0.00    -0.196 NA
HETATM   16  C15 UNL     1      37.523  -2.607  68.253  1.00  0.00     0.007 A 
HETATM   17  C16 UNL     1      40.549  -4.137  68.652  1.00  0.00    -0.021 C 
HETATM   18  C17 UNL     1      40.951  -2.837  68.536  1.00  0.00     0.038 A 
HETATM   19  C18 UNL     1      41.841  -1.886  69.363  1.00  0.00     0.131 A 
HETATM   20  C19 UNL     1      42.281  -0.551  69.486  1.00  0.00     0.098 A 
HETATM   21  O3  UNL     1      43.574  -0.388  69.725  1.00  0.00    -0.351 OA
HETATM   22  C20 UNL     1      44.416  -1.551  69.791  1.00  0.00     0.201 C 
HETATM   23  C21 UNL     1      43.735  -2.515  70.728  1.00  0.00     0.196 C 
HETATM   24  O4  UNL     1      42.391  -2.675  70.330  1.00  0.00    -0.370 OA
HETATM   25  H10 UNL     1      37.608   0.346  67.282  1.00  0.00     0.082 HD
HETATM   26  H11 UNL     1      37.102  -0.621  69.928  1.00  0.00     0.159 HD
ENDROOT
BRANCH   1  27
HETATM   27  O2  UNL     1      40.089  -0.809  70.292  1.00  0.00    -0.363 OA
BRANCH  27  28
HETATM   28  C2  UNL     1      40.438  -0.005  71.381  1.00  0.00     0.147 C 
HETATM   29  C1  UNL     1      40.493  -0.950  72.612  1.00  0.00     0.042 C 
BRANCH  28  30
HETATM   30  O1  UNL     1      39.559   1.012  71.707  1.00  0.00     0.000 OA
HETATM   31  C3  UNL     1      38.413   0.778  72.449  1.00  0.00     0.009 A 
HETATM   32  P1  UNL     1      38.843   2.356  72.049  1.00  0.00    -0.076 P 
HETATM   33  H6  UNL     1      40.063   2.506  71.268  1.00  0.00     0.066 HD
ENDBRANCH  28  30
ENDBRANCH  27  28
ENDBRANCH   1  27
TORSDOF 3
ENDMDL
