MODEL 1
REMARK VINA RESULT:      -8.9      0.000      0.000
REMARK  0 active torsions:
REMARK  status: ('A' for Active; 'I' for Inactive)
ROOT
HETATM    1  C1  UNL     1      19.493   0.991  50.285  1.00  0.00     0.312 C 
HETATM    2  N1  UNL     1      20.894   0.890  50.432  1.00  0.00     0.106 N 
HETATM    3  C2  UNL     1      21.695   1.319  49.308  1.00  0.00     0.301 C 
HETATM    4  C3  UNL     1      21.637   2.746  49.060  1.00  0.00     0.008 C 
HETATM    5  C4  UNL     1      22.469   3.764  49.067  1.00  0.00     0.072 C 
HETATM    6  C5  UNL     1      23.858   4.108  49.307  1.00  0.00     0.244 C 
HETATM    7  O1  UNL     1      24.892   4.788  49.412  1.00  0.00    -0.268 OA
HETATM    8  N2  UNL     1      24.868   3.183  49.694  1.00  0.00    -0.332 N 
HETATM    9  C6  UNL     1      26.227   2.963  50.036  1.00  0.00     0.109 C 
HETATM   10  C7  UNL     1      26.807   2.513  51.117  1.00  0.00     0.116 C 
HETATM   11  N3  UNL     1      26.388   2.058  52.381  1.00  0.00    -0.303 N 
HETATM   12  C8  UNL     1      27.519   2.039  53.237  1.00  0.00     0.074 A 
HETATM   13  C9  UNL     1      28.650   2.461  53.718  1.00  0.00     0.164 A 
HETATM   14  O2  UNL     1      28.664   1.381  54.633  1.00  0.00    -0.344 OA
HETATM   15  C10 UNL     1      27.451   0.876  54.264  1.00  0.00     0.225 A 
HETATM   16  C11 UNL     1      27.379  -0.384  53.429  1.00  0.00     0.075 C 
HETATM   17  C12 UNL     1      28.371  -1.387  53.349  1.00  0.00     0.099 C 
HETATM   18  N4  UNL     1      29.172  -2.196  53.269  1.00  0.00    -0.192 NA
HETATM   19  C13 UNL     1      26.199  -0.466  52.717  1.00  0.00     0.140 C 
HETATM   20  N5  UNL     1      25.087   0.407  52.653  1.00  0.00    -0.240 NA
HETATM   21  C14 UNL     1      25.034   1.662  52.497  1.00  0.00     0.151 C 
HETATM   22  C15 UNL     1      23.625   1.897  52.546  1.00  0.00     0.163 C 
HETATM   23  N6  UNL     1      22.870   1.249  51.731  1.00  0.00    -0.268 NA
HETATM   24  C16 UNL     1      21.436   1.397  51.686  1.00  0.00     0.419 C 
HETATM   25  H8  UNL     1      24.632   2.176  49.806  1.00  0.00     0.168 HD
ENDROOT
TORSDOF 0
ENDMDL
MODEL 2
REMARK VINA RESULT:      -8.7      2.810      4.686
REMARK  0 active torsions:
REMARK  status: ('A' for Active; 'I' for Inactive)
ROOT
HETATM    1  C1  UNL     1      26.899   7.734  47.839  1.00  0.00     0.312 C 
HETATM    2  N1  UNL     1      26.773   6.853  48.935  1.00  0.00     0.106 N 
HETATM    3  C2  UNL     1      26.035   7.340  50.077  1.00  0.00     0.301 C 
HETATM    4  C3  UNL     1      24.619   7.523  49.824  1.00  0.00     0.008 C 
HETATM    5  C4  UNL     1      23.485   7.023  50.263  1.00  0.00     0.072 C 
HETATM    6  C5  UNL     1      22.945   6.052  51.196  1.00  0.00     0.244 C 
HETATM    7  O1  UNL     1      22.119   5.374  51.830  1.00  0.00    -0.268 OA
HETATM    8  N2  UNL     1      23.728   5.215  52.040  1.00  0.00    -0.332 N 
HETATM    9  C6  UNL     1      23.757   4.198  53.028  1.00  0.00     0.109 C 
HETATM   10  C7  UNL     1      24.266   2.995  53.046  1.00  0.00     0.116 C 
HETATM   11  N3  UNL     1      24.986   2.181  52.150  1.00  0.00    -0.303 N 
HETATM   12  C8  UNL     1      24.943   0.850  52.636  1.00  0.00     0.074 A 
HETATM   13  C9  UNL     1      24.411  -0.186  53.214  1.00  0.00     0.164 A 
HETATM   14  O2  UNL     1      25.605  -0.918  53.002  1.00  0.00    -0.344 OA
HETATM   15  C10 UNL     1      26.250   0.073  52.318  1.00  0.00     0.225 A 
HETATM   16  C11 UNL     1      27.352   0.862  52.990  1.00  0.00     0.075 C 
HETATM   17  C12 UNL     1      28.138   0.430  54.082  1.00  0.00     0.099 C 
HETATM   18  N4  UNL     1      28.769   0.093  54.971  1.00  0.00    -0.192 NA
HETATM   19  C13 UNL     1      27.524   2.105  52.414  1.00  0.00     0.140 C 
HETATM   20  N5  UNL     1      26.861   2.728  51.329  1.00  0.00    -0.240 NA
HETATM   21  C14 UNL     1      25.627   2.837  51.073  1.00  0.00     0.151 C 
HETATM   22  C15 UNL     1      25.655   3.554  49.836  1.00  0.00     0.163 C 
HETATM   23  N6  UNL     1      26.286   4.674  49.795  1.00  0.00    -0.268 NA
HETATM   24  C16 UNL     1      26.388   5.487  48.607  1.00  0.00     0.419 C 
HETATM   25  H8  UNL     1      24.765   5.290  52.025  1.00  0.00     0.168 HD
ENDROOT
TORSDOF 0
ENDMDL
MODEL 3
REMARK VINA RESULT:      -8.0      2.511      5.655
REMARK  0 active torsions:
REMARK  status: ('A' for Active; 'I' for Inactive)
ROOT
HETATM    1  C1  UNL     1      18.611  -0.744  53.061  1.00  0.00     0.312 C 
HETATM    2  N1  UNL     1      19.653   0.205  52.969  1.00  0.00     0.106 N 
HETATM    3  C2  UNL     1      20.622   0.209  54.039  1.00  0.00     0.301 C 
HETATM    4  C3  UNL     1      21.456  -0.977  54.078  1.00  0.00     0.008 C 
HETATM    5  C4  UNL     1      22.732  -1.267  53.946  1.00  0.00     0.072 C 
HETATM    6  C5  UNL     1      24.026  -0.661  53.696  1.00  0.00     0.244 C 
HETATM    7  O1  UNL     1      25.251  -0.551  53.523  1.00  0.00    -0.268 OA
HETATM    8  N2  UNL     1      24.242   0.729  53.475  1.00  0.00    -0.332 N 
HETATM    9  C6  UNL     1      25.165   1.771  53.205  1.00  0.00     0.109 C 
HETATM   10  C7  UNL     1      25.282   2.617  52.217  1.00  0.00     0.116 C 
HETATM   11  N3  UNL     1      24.590   2.886  51.020  1.00  0.00    -0.303 N 
HETATM   12  C8  UNL     1      25.418   3.699  50.208  1.00  0.00     0.074 A 
HETATM   13  C9  UNL     1      26.540   4.120  49.702  1.00  0.00     0.164 A 
HETATM   14  O2  UNL     1      25.837   5.094  48.952  1.00  0.00    -0.344 OA
HETATM   15  C10 UNL     1      24.593   4.704  49.358  1.00  0.00     0.225 A 
HETATM   16  C11 UNL     1      23.829   5.538  50.364  1.00  0.00     0.075 C 
HETATM   17  C12 UNL     1      24.016   6.915  50.615  1.00  0.00     0.099 C 
HETATM   18  N4  UNL     1      24.168   8.025  50.832  1.00  0.00    -0.192 NA
HETATM   19  C13 UNL     1      22.891   4.791  51.048  1.00  0.00     0.140 C 
HETATM   20  N5  UNL     1      22.541   3.423  50.954  1.00  0.00    -0.240 NA
HETATM   21  C14 UNL     1      23.268   2.388  50.927  1.00  0.00     0.151 C 
HETATM   22  C15 UNL     1      22.289   1.354  50.806  1.00  0.00     0.163 C 
HETATM   23  N6  UNL     1      21.352   1.296  51.686  1.00  0.00    -0.268 NA
HETATM   24  C16 UNL     1      20.306   0.302  51.670  1.00  0.00     0.419 C 
HETATM   25  H8  UNL     1      23.439   1.388  53.503  1.00  0.00     0.168 HD
ENDROOT
TORSDOF 0
ENDMDL
MODEL 4
REMARK VINA RESULT:      -7.6      2.568      7.071
REMARK  0 active torsions:
REMARK  status: ('A' for Active; 'I' for Inactive)
ROOT
HETATM    1  C1  UNL     1      28.106   0.245  54.389  1.00  0.00     0.312 C 
HETATM    2  N1  UNL     1      27.041   0.572  53.521  1.00  0.00     0.106 N 
HETATM    3  C2  UNL     1      26.103  -0.484  53.220  1.00  0.00     0.301 C 
HETATM    4  C3  UNL     1      25.297  -0.891  54.355  1.00  0.00     0.008 C 
HETATM    5  C4  UNL     1      24.025  -0.893  54.688  1.00  0.00     0.072 C 
HETATM    6  C5  UNL     1      22.711  -0.522  54.197  1.00  0.00     0.244 C 
HETATM    7  O1  UNL     1      21.479  -0.366  54.159  1.00  0.00    -0.268 OA
HETATM    8  N2  UNL     1      22.457   0.084  52.934  1.00  0.00    -0.332 N 
HETATM    9  C6  UNL     1      21.504   0.612  52.027  1.00  0.00     0.109 C 
HETATM   10  C7  UNL     1      21.340   1.798  51.504  1.00  0.00     0.116 C 
HETATM   11  N3  UNL     1      21.992   3.044  51.585  1.00  0.00    -0.303 N 
HETATM   12  C8  UNL     1      21.122   4.029  51.053  1.00  0.00     0.074 A 
HETATM   13  C9  UNL     1      19.978   4.596  50.812  1.00  0.00     0.164 A 
HETATM   14  O2  UNL     1      20.636   5.619  50.087  1.00  0.00    -0.344 OA
HETATM   15  C10 UNL     1      21.900   5.160  50.327  1.00  0.00     0.225 A 
HETATM   16  C11 UNL     1      22.673   4.465  49.227  1.00  0.00     0.075 C 
HETATM   17  C12 UNL     1      22.463   4.616  47.838  1.00  0.00     0.099 C 
HETATM   18  N4  UNL     1      22.292   4.724  46.715  1.00  0.00    -0.192 NA
HETATM   19  C13 UNL     1      23.647   3.626  49.731  1.00  0.00     0.140 C 
HETATM   20  N5  UNL     1      24.025   3.332  51.063  1.00  0.00    -0.240 NA
HETATM   21  C14 UNL     1      23.321   3.034  52.071  1.00  0.00     0.151 C 
HETATM   22  C15 UNL     1      24.319   2.884  53.083  1.00  0.00     0.163 C 
HETATM   23  N6  UNL     1      25.282   2.058  52.871  1.00  0.00    -0.268 NA
HETATM   24  C16 UNL     1      26.349   1.821  53.813  1.00  0.00     0.419 C 
HETATM   25  H8  UNL     1      23.246   0.275  52.284  1.00  0.00     0.168 HD
ENDROOT
TORSDOF 0
ENDMDL
MODEL 5
REMARK VINA RESULT:      -7.4      1.808      2.340
REMARK  0 active torsions:
REMARK  status: ('A' for Active; 'I' for Inactive)
ROOT
HETATM    1  C1  UNL     1      17.583  -0.502  52.255  1.00  0.00     0.312 C 
HETATM    2  N1  UNL     1      18.981  -0.395  52.085  1.00  0.00     0.106 N 
HETATM    3  C2  UNL     1      19.440   0.181  50.842  1.00  0.00     0.301 C 
HETATM    4  C3  UNL     1      19.128   1.590  50.700  1.00  0.00     0.008 C 
HETATM    5  C4  UNL     1      19.790   2.721  50.587  1.00  0.00     0.072 C 
HETATM    6  C5  UNL     1      21.135   3.262  50.538  1.00  0.00     0.244 C 
HETATM    7  O1  UNL     1      22.060   4.087  50.456  1.00  0.00    -0.268 OA
HETATM    8  N2  UNL     1      22.326   2.489  50.638  1.00  0.00    -0.332 N 
HETATM    9  C6  UNL     1      23.744   2.466  50.660  1.00  0.00     0.109 C 
HETATM   10  C7  UNL     1      24.609   2.078  51.558  1.00  0.00     0.116 C 
HETATM   11  N3  UNL     1      24.555   1.529  52.853  1.00  0.00    -0.303 N 
HETATM   12  C8  UNL     1      25.840   1.656  53.438  1.00  0.00     0.074 A 
HETATM   13  C9  UNL     1      26.980   2.229  53.684  1.00  0.00     0.164 A 
HETATM   14  O2  UNL     1      27.352   1.139  54.507  1.00  0.00    -0.344 OA
HETATM   15  C10 UNL     1      26.169   0.467  54.381  1.00  0.00     0.225 A 
HETATM   16  C11 UNL     1      26.088  -0.765  53.507  1.00  0.00     0.075 C 
HETATM   17  C12 UNL     1      27.167  -1.605  53.150  1.00  0.00     0.099 C 
HETATM   18  N4  UNL     1      28.035  -2.281  52.848  1.00  0.00    -0.192 NA
HETATM   19  C13 UNL     1      24.802  -1.003  53.066  1.00  0.00     0.140 C 
HETATM   20  N5  UNL     1      23.593  -0.305  53.302  1.00  0.00    -0.240 NA
HETATM   21  C14 UNL     1      23.331   0.931  53.237  1.00  0.00     0.151 C 
HETATM   22  C15 UNL     1      21.951   0.950  53.608  1.00  0.00     0.163 C 
HETATM   23  N6  UNL     1      21.130   0.219  52.939  1.00  0.00    -0.268 NA
HETATM   24  C16 UNL     1      19.716   0.151  53.219  1.00  0.00     0.419 C 
HETATM   25  H8  UNL     1      22.264   1.455  50.737  1.00  0.00     0.168 HD
ENDROOT
TORSDOF 0
ENDMDL
MODEL 6
REMARK VINA RESULT:      -7.2      2.392      3.878
REMARK  0 active torsions:
REMARK  status: ('A' for Active; 'I' for Inactive)
ROOT
HETATM    1  C1  UNL     1      22.001   6.731  49.637  1.00  0.00     0.312 C 
HETATM    2  N1  UNL     1      22.605   5.786  50.496  1.00  0.00     0.106 N 
HETATM    3  C2  UNL     1      21.796   5.292  51.586  1.00  0.00     0.301 C 
HETATM    4  C3  UNL     1      20.680   4.469  51.161  1.00  0.00     0.008 C 
HETATM    5  C4  UNL     1      20.286   3.224  51.308  1.00  0.00     0.072 C 
HETATM    6  C5  UNL     1      20.663   1.966  51.925  1.00  0.00     0.244 C 
HETATM    7  O1  UNL     1      20.618   0.774  52.271  1.00  0.00    -0.268 OA
HETATM    8  N2  UNL     1      21.847   1.760  52.689  1.00  0.00    -0.332 N 
HETATM    9  C6  UNL     1      22.650   0.863  53.438  1.00  0.00     0.109 C 
HETATM   10  C7  UNL     1      23.874   0.431  53.285  1.00  0.00     0.116 C 
HETATM   11  N3  UNL     1      24.917   0.636  52.362  1.00  0.00    -0.303 N 
HETATM   12  C8  UNL     1      25.876  -0.391  52.549  1.00  0.00     0.074 A 
HETATM   13  C9  UNL     1      26.290  -1.595  52.812  1.00  0.00     0.164 A 
HETATM   14  O2  UNL     1      27.631  -1.172  52.640  1.00  0.00    -0.344 OA
HETATM   15  C10 UNL     1      27.322   0.109  52.283  1.00  0.00     0.225 A 
HETATM   16  C11 UNL     1      27.537   1.240  53.266  1.00  0.00     0.075 C 
HETATM   17  C12 UNL     1      28.440   1.238  54.352  1.00  0.00     0.099 C 
HETATM   18  N4  UNL     1      29.158   1.241  55.238  1.00  0.00    -0.192 NA
HETATM   19  C13 UNL     1      26.726   2.324  52.992  1.00  0.00     0.140 C 
HETATM   20  N5  UNL     1      25.770   2.536  51.971  1.00  0.00    -0.240 NA
HETATM   21  C14 UNL     1      24.832   1.796  51.555  1.00  0.00     0.151 C 
HETATM   22  C15 UNL     1      24.274   2.599  50.513  1.00  0.00     0.163 C 
HETATM   23  N6  UNL     1      23.892   3.793  50.801  1.00  0.00    -0.268 NA
HETATM   24  C16 UNL     1      23.317   4.699  49.837  1.00  0.00     0.419 C 
HETATM   25  H8  UNL     1      22.503   2.550  52.849  1.00  0.00     0.168 HD
ENDROOT
TORSDOF 0
ENDMDL
MODEL 7
REMARK VINA RESULT:      -7.2      3.045      7.295
REMARK  0 active torsions:
REMARK  status: ('A' for Active; 'I' for Inactive)
ROOT
HETATM    1  C1  UNL     1      23.379  -0.259  53.410  1.00  0.00     0.312 C 
HETATM    2  N1  UNL     1      23.314   1.055  52.898  1.00  0.00     0.106 N 
HETATM    3  C2  UNL     1      24.471   1.893  53.117  1.00  0.00     0.301 C 
HETATM    4  C3  UNL     1      25.648   1.468  52.385  1.00  0.00     0.008 C 
HETATM    5  C4  UNL     1      26.427   1.948  51.440  1.00  0.00     0.072 C 
HETATM    6  C5  UNL     1      26.608   3.103  50.581  1.00  0.00     0.244 C 
HETATM    7  O1  UNL     1      27.095   3.853  49.719  1.00  0.00    -0.268 OA
HETATM    8  N2  UNL     1      25.762   4.248  50.570  1.00  0.00    -0.332 N 
HETATM    9  C6  UNL     1      25.472   5.521  50.016  1.00  0.00     0.109 C 
HETATM   10  C7  UNL     1      24.439   5.991  49.370  1.00  0.00     0.116 C 
HETATM   11  N3  UNL     1      23.194   5.493  48.941  1.00  0.00    -0.303 N 
HETATM   12  C8  UNL     1      22.667   6.395  47.984  1.00  0.00     0.074 A 
HETATM   13  C9  UNL     1      22.714   7.241  46.998  1.00  0.00     0.164 A 
HETATM   14  O2  UNL     1      21.308   7.397  47.063  1.00  0.00    -0.344 OA
HETATM   15  C10 UNL     1      21.118   6.478  48.055  1.00  0.00     0.225 A 
HETATM   16  C11 UNL     1      20.811   6.938  49.463  1.00  0.00     0.075 C 
HETATM   17  C12 UNL     1      20.238   8.177  49.828  1.00  0.00     0.099 C 
HETATM   18  N4  UNL     1      19.786   9.179  50.132  1.00  0.00    -0.192 NA
HETATM   19  C13 UNL     1      21.163   5.992  50.405  1.00  0.00     0.140 C 
HETATM   20  N5  UNL     1      21.737   4.705  50.263  1.00  0.00    -0.240 NA
HETATM   21  C14 UNL     1      22.728   4.318  49.578  1.00  0.00     0.151 C 
HETATM   22  C15 UNL     1      22.749   2.919  49.872  1.00  0.00     0.163 C 
HETATM   23  N6  UNL     1      22.807   2.557  51.105  1.00  0.00    -0.268 NA
HETATM   24  C16 UNL     1      22.831   1.177  51.529  1.00  0.00     0.419 C 
HETATM   25  H8  UNL     1      24.954   4.300  51.223  1.00  0.00     0.168 HD
ENDROOT
TORSDOF 0
ENDMDL
MODEL 8
REMARK VINA RESULT:      -7.2      3.007      7.467
REMARK  0 active torsions:
REMARK  status: ('A' for Active; 'I' for Inactive)
ROOT
HETATM    1  C1  UNL     1      26.253   0.796  54.277  1.00  0.00     0.312 C 
HETATM    2  N1  UNL     1      25.358   0.925  53.192  1.00  0.00     0.106 N 
HETATM    3  C2  UNL     1      24.457  -0.181  52.960  1.00  0.00     0.301 C 
HETATM    4  C3  UNL     1      23.462  -0.352  54.001  1.00  0.00     0.008 C 
HETATM    5  C4  UNL     1      22.152  -0.297  54.105  1.00  0.00     0.072 C 
HETATM    6  C5  UNL     1      20.949  -0.050  53.333  1.00  0.00     0.244 C 
HETATM    7  O1  UNL     1      19.746   0.082  53.054  1.00  0.00    -0.268 OA
HETATM    8  N2  UNL     1      20.928   0.278  51.947  1.00  0.00    -0.332 N 
HETATM    9  C6  UNL     1      20.155   0.595  50.802  1.00  0.00     0.109 C 
HETATM   10  C7  UNL     1      20.112   1.645  50.026  1.00  0.00     0.116 C 
HETATM   11  N3  UNL     1      20.771   2.887  49.956  1.00  0.00    -0.303 N 
HETATM   12  C8  UNL     1      20.029   3.730  49.092  1.00  0.00     0.074 A 
HETATM   13  C9  UNL     1      18.957   4.223  48.548  1.00  0.00     0.164 A 
HETATM   14  O2  UNL     1      19.754   5.080  47.751  1.00  0.00    -0.344 OA
HETATM   15  C10 UNL     1      20.947   4.694  48.291  1.00  0.00     0.225 A 
HETATM   16  C11 UNL     1      21.877   3.793  47.507  1.00  0.00     0.075 C 
HETATM   17  C12 UNL     1      21.907   3.650  46.102  1.00  0.00     0.099 C 
HETATM   18  N4  UNL     1      21.931   3.520  44.969  1.00  0.00    -0.192 NA
HETATM   19  C13 UNL     1      22.730   3.087  48.331  1.00  0.00     0.140 C 
HETATM   20  N5  UNL     1      22.870   3.081  49.740  1.00  0.00    -0.240 NA
HETATM   21  C14 UNL     1      21.999   2.992  50.653  1.00  0.00     0.151 C 
HETATM   22  C15 UNL     1      22.808   3.067  51.829  1.00  0.00     0.163 C 
HETATM   23  N6  UNL     1      23.772   2.224  51.959  1.00  0.00    -0.268 NA
HETATM   24  C16 UNL     1      24.659   2.199  53.097  1.00  0.00     0.419 C 
HETATM   25  H8  UNL     1      21.819   0.337  51.416  1.00  0.00     0.168 HD
ENDROOT
TORSDOF 0
ENDMDL
MODEL 9
REMARK VINA RESULT:      -7.0      3.378      7.136
REMARK  0 active torsions:
REMARK  status: ('A' for Active; 'I' for Inactive)
ROOT
HETATM    1  C1  UNL     1      25.356   0.177  53.957  1.00  0.00     0.312 C 
HETATM    2  N1  UNL     1      24.794   1.057  53.006  1.00  0.00     0.106 N 
HETATM    3  C2  UNL     1      23.594   0.609  52.338  1.00  0.00     0.301 C 
HETATM    4  C3  UNL     1      22.439   0.518  53.210  1.00  0.00     0.008 C 
HETATM    5  C4  UNL     1      21.257   1.085  53.313  1.00  0.00     0.072 C 
HETATM    6  C5  UNL     1      20.406   2.082  52.692  1.00  0.00     0.244 C 
HETATM    7  O1  UNL     1      19.420   2.807  52.477  1.00  0.00    -0.268 OA
HETATM    8  N2  UNL     1      20.765   2.862  51.557  1.00  0.00    -0.332 N 
HETATM    9  C6  UNL     1      20.397   3.869  50.628  1.00  0.00     0.109 C 
HETATM   10  C7  UNL     1      20.905   5.038  50.341  1.00  0.00     0.116 C 
HETATM   11  N3  UNL     1      21.995   5.810  50.786  1.00  0.00    -0.303 N 
HETATM   12  C8  UNL     1      21.807   7.138  50.327  1.00  0.00     0.074 A 
HETATM   13  C9  UNL     1      21.127   8.202  50.016  1.00  0.00     0.164 A 
HETATM   14  O2  UNL     1      22.324   8.858  49.641  1.00  0.00    -0.344 OA
HETATM   15  C10 UNL     1      23.155   7.833  49.993  1.00  0.00     0.225 A 
HETATM   16  C11 UNL     1      23.789   6.972  48.923  1.00  0.00     0.075 C 
HETATM   17  C12 UNL     1      24.017   7.347  47.580  1.00  0.00     0.099 C 
HETATM   18  N4  UNL     1      24.195   7.637  46.491  1.00  0.00    -0.192 NA
HETATM   19  C13 UNL     1      24.138   5.725  49.402  1.00  0.00     0.140 C 
HETATM   20  N5  UNL     1      24.007   5.152  50.689  1.00  0.00    -0.240 NA
HETATM   21  C14 UNL     1      23.019   5.122  51.479  1.00  0.00     0.151 C 
HETATM   22  C15 UNL     1      23.566   4.414  52.594  1.00  0.00     0.163 C 
HETATM   23  N6  UNL     1      24.087   3.256  52.384  1.00  0.00    -0.268 NA
HETATM   24  C16 UNL     1      24.672   2.447  53.425  1.00  0.00     0.419 C 
HETATM   25  H8  UNL     1      21.690   2.723  51.105  1.00  0.00     0.168 HD
ENDROOT
TORSDOF 0
ENDMDL
