MODEL 1
REMARK VINA RESULT:      -8.2      0.000      0.000
REMARK  4 active torsions:
REMARK  status: ('A' for Active; 'I' for Inactive)
REMARK    1  A    between atoms: C1_2  and  C2_3 
REMARK       I    between atoms: C1_2  and  N1_11 
REMARK    2  A    between atoms: C2_3  and  C3_4 
REMARK    3  A    between atoms: N1_11  and  S1_12 
REMARK    4  A    between atoms: S1_12  and  C9_15 
ROOT
HETATM    1  O1  UNL     1      27.146   2.736  51.730  1.00  0.00    -0.272 OA
HETATM    2  C1  UNL     1      26.371   2.805  50.749  1.00  0.00     0.235 C 
HETATM    3  N1  UNL     1      25.032   2.413  51.085  1.00  0.00    -0.250 N 
HETATM    4  H7  UNL     1      24.237   2.408  50.380  1.00  0.00     0.181 HD
ENDROOT
BRANCH   3   5
HETATM    5  S1  UNL     1      24.673   1.920  52.710  1.00  0.00     0.266 S 
HETATM    6  O2  UNL     1      24.776   3.130  53.617  1.00  0.00    -0.200 OA
HETATM    7  O3  UNL     1      23.261   1.396  52.723  1.00  0.00    -0.200 OA
BRANCH   5   8
HETATM    8  C9  UNL     1      25.778   0.680  53.260  1.00  0.00     0.092 C 
HETATM    9  C10 UNL     1      26.081  -0.411  52.619  1.00  0.00     0.012 C 
HETATM   10  C11 UNL     1      27.247  -0.945  52.674  1.00  0.00     0.006 C 
HETATM   11  C12 UNL     1      28.053  -0.592  53.634  1.00  0.00     0.023 C 
HETATM   12 BR1  UNL     1      29.897  -1.127  53.589  1.00  0.00    -0.050 Br
HETATM   13  C13 UNL     1      27.598   0.220  54.779  1.00  0.00     0.021 C 
HETATM   14  C14 UNL     1      26.442   0.852  54.556  1.00  0.00     0.027 C 
ENDBRANCH   5   8
ENDBRANCH   3   5
BRANCH   2  15
HETATM   15  C2  UNL     1      26.543   3.203  49.336  1.00  0.00     0.142 C 
BRANCH  15  16
HETATM   16  C3  UNL     1      26.778   4.628  49.120  1.00  0.00    -0.049 A 
HETATM   17  C4  UNL     1      27.990   4.958  48.526  1.00  0.00     0.011 A 
HETATM   18  C5  UNL     1      28.326   6.280  48.270  1.00  0.00     0.043 A 
HETATM   19  C6  UNL     1      27.422   7.261  48.623  1.00  0.00     0.116 A 
HETATM   20  F1  UNL     1      27.740   8.555  48.378  1.00  0.00    -0.206 F 
HETATM   21  C7  UNL     1      26.200   6.979  49.219  1.00  0.00     0.043 A 
HETATM   22  C8  UNL     1      25.904   5.641  49.457  1.00  0.00     0.011 A 
ENDBRANCH  15  16
ENDBRANCH   2  15
TORSDOF 4
ENDMDL
MODEL 2
REMARK VINA RESULT:      -7.9      3.768      7.119
REMARK  4 active torsions:
REMARK  status: ('A' for Active; 'I' for Inactive)
REMARK    1  A    between atoms: C1_2  and  C2_3 
REMARK       I    between atoms: C1_2  and  N1_11 
REMARK    2  A    between atoms: C2_3  and  C3_4 
REMARK    3  A    between atoms: N1_11  and  S1_12 
REMARK    4  A    between atoms: S1_12  and  C9_15 
ROOT
HETATM    1  O1  UNL     1      24.117   2.181  53.288  1.00  0.00    -0.272 OA
HETATM    2  C1  UNL     1      25.363   2.298  53.305  1.00  0.00     0.235 C 
HETATM    3  N1  UNL     1      25.856   3.032  52.174  1.00  0.00    -0.250 N 
HETATM    4  H7  UNL     1      26.887   3.232  52.019  1.00  0.00     0.181 HD
ENDROOT
BRANCH   3   5
HETATM    5  S1  UNL     1      24.732   3.629  50.993  1.00  0.00     0.266 S 
HETATM    6  O2  UNL     1      23.946   2.459  50.436  1.00  0.00    -0.200 OA
HETATM    7  O3  UNL     1      23.798   4.579  51.695  1.00  0.00    -0.200 OA
BRANCH   5   8
HETATM    8  C9  UNL     1      25.556   4.454  49.688  1.00  0.00     0.092 C 
HETATM    9  C10 UNL     1      25.097   5.468  49.017  1.00  0.00     0.012 C 
HETATM   10  C11 UNL     1      25.855   6.402  48.566  1.00  0.00     0.006 C 
HETATM   11  C12 UNL     1      27.138   6.182  48.485  1.00  0.00     0.023 C 
HETATM   12 BR1  UNL     1      28.340   7.631  48.109  1.00  0.00    -0.050 Br
HETATM   13  C13 UNL     1      27.715   4.837  48.674  1.00  0.00     0.021 C 
HETATM   14  C14 UNL     1      26.887   3.986  49.287  1.00  0.00     0.027 C 
ENDBRANCH   5   8
ENDBRANCH   3   5
BRANCH   2  15
HETATM   15  C2  UNL     1      26.420   1.848  54.234  1.00  0.00     0.142 C 
BRANCH  15  16
HETATM   16  C3  UNL     1      27.100   0.615  53.843  1.00  0.00    -0.049 A 
HETATM   17  C4  UNL     1      28.426   0.503  54.245  1.00  0.00     0.011 A 
HETATM   18  C5  UNL     1      29.176  -0.622  53.933  1.00  0.00     0.043 A 
HETATM   19  C6  UNL     1      28.569  -1.629  53.211  1.00  0.00     0.116 A 
HETATM   20  F1  UNL     1      29.293  -2.732  52.901  1.00  0.00    -0.206 F 
HETATM   21  C7  UNL     1      27.248  -1.561  52.788  1.00  0.00     0.043 A 
HETATM   22  C8  UNL     1      26.534  -0.416  53.122  1.00  0.00     0.011 A 
ENDBRANCH  15  16
ENDBRANCH   2  15
TORSDOF 4
ENDMDL
MODEL 3
REMARK VINA RESULT:      -7.9      3.485      6.580
REMARK  4 active torsions:
REMARK  status: ('A' for Active; 'I' for Inactive)
REMARK    1  A    between atoms: C1_2  and  C2_3 
REMARK       I    between atoms: C1_2  and  N1_11 
REMARK    2  A    between atoms: C2_3  and  C3_4 
REMARK    3  A    between atoms: N1_11  and  S1_12 
REMARK    4  A    between atoms: S1_12  and  C9_15 
ROOT
HETATM    1  O1  UNL     1      23.062   0.968  51.599  1.00  0.00    -0.272 OA
HETATM    2  C1  UNL     1      23.700   0.953  52.676  1.00  0.00     0.235 C 
HETATM    3  N1  UNL     1      24.022   2.274  53.136  1.00  0.00    -0.250 N 
HETATM    4  H7  UNL     1      24.560   2.459  54.033  1.00  0.00     0.181 HD
ENDROOT
BRANCH   3   5
HETATM    5  S1  UNL     1      23.518   3.646  52.200  1.00  0.00     0.266 S 
HETATM    6  O2  UNL     1      22.065   3.459  51.809  1.00  0.00    -0.200 OA
HETATM    7  O3  UNL     1      23.654   4.865  53.073  1.00  0.00    -0.200 OA
BRANCH   5   8
HETATM    8  C9  UNL     1      24.493   3.828  50.759  1.00  0.00     0.092 C 
HETATM    9  C10 UNL     1      24.241   4.626  49.763  1.00  0.00     0.012 C 
HETATM   10  C11 UNL     1      25.166   5.205  49.087  1.00  0.00     0.006 C 
HETATM   11  C12 UNL     1      26.383   4.746  49.171  1.00  0.00     0.023 C 
HETATM   12 BR1  UNL     1      27.843   5.748  48.428  1.00  0.00    -0.050 Br
HETATM   13  C13 UNL     1      26.691   3.460  49.828  1.00  0.00     0.021 C 
HETATM   14  C14 UNL     1      25.712   3.024  50.626  1.00  0.00     0.027 C 
ENDBRANCH   5   8
ENDBRANCH   3   5
BRANCH   2  15
HETATM   15  C2  UNL     1      24.185  -0.125  53.563  1.00  0.00     0.142 C 
BRANCH  15  16
HETATM   16  C3  UNL     1      25.637  -0.199  53.709  1.00  0.00    -0.049 A 
HETATM   17  C4  UNL     1      26.319  -0.812  52.666  1.00  0.00     0.011 A 
HETATM   18  C5  UNL     1      27.700  -0.942  52.690  1.00  0.00     0.043 A 
HETATM   19  C6  UNL     1      28.381  -0.443  53.783  1.00  0.00     0.116 A 
HETATM   20  F1  UNL     1      29.729  -0.564  53.818  1.00  0.00    -0.206 F 
HETATM   21  C7  UNL     1      27.741   0.177  54.849  1.00  0.00     0.043 A 
HETATM   22  C8  UNL     1      26.357   0.285  54.782  1.00  0.00     0.011 A 
ENDBRANCH  15  16
ENDBRANCH   2  15
TORSDOF 4
ENDMDL
MODEL 4
REMARK VINA RESULT:      -7.8      4.794      6.346
REMARK  4 active torsions:
REMARK  status: ('A' for Active; 'I' for Inactive)
REMARK    1  A    between atoms: C1_2  and  C2_3 
REMARK       I    between atoms: C1_2  and  N1_11 
REMARK    2  A    between atoms: C2_3  and  C3_4 
REMARK    3  A    between atoms: N1_11  and  S1_12 
REMARK    4  A    between atoms: S1_12  and  C9_15 
ROOT
HETATM    1  O1  UNL     1      25.374   2.457  53.985  1.00  0.00    -0.272 OA
HETATM    2  C1  UNL     1      26.253   2.562  53.100  1.00  0.00     0.235 C 
HETATM    3  N1  UNL     1      25.730   3.099  51.875  1.00  0.00    -0.250 N 
HETATM    4  H7  UNL     1      26.329   3.261  51.012  1.00  0.00     0.181 HD
ENDROOT
BRANCH   3   5
HETATM    5  S1  UNL     1      24.047   3.511  51.777  1.00  0.00     0.266 S 
HETATM    6  O2  UNL     1      23.737   4.540  52.847  1.00  0.00    -0.200 OA
HETATM    7  O3  UNL     1      23.804   4.107  50.416  1.00  0.00    -0.200 OA
BRANCH   5   8
HETATM    8  C9  UNL     1      23.032   2.106  52.007  1.00  0.00     0.092 C 
HETATM    9  C10 UNL     1      23.388   0.868  51.822  1.00  0.00     0.012 C 
HETATM   10  C11 UNL     1      22.936  -0.098  52.536  1.00  0.00     0.006 C 
HETATM   11  C12 UNL     1      21.860   0.098  53.245  1.00  0.00     0.023 C 
HETATM   12 BR1  UNL     1      21.319  -1.201  54.551  1.00  0.00    -0.050 Br
HETATM   13  C13 UNL     1      21.022   1.301  53.080  1.00  0.00     0.021 C 
HETATM   14  C14 UNL     1      21.647   2.300  52.449  1.00  0.00     0.027 C 
ENDBRANCH   5   8
ENDBRANCH   3   5
BRANCH   2  15
HETATM   15  C2  UNL     1      27.697   2.255  53.051  1.00  0.00     0.142 C 
BRANCH  15  16
HETATM   16  C3  UNL     1      28.029   0.834  53.118  1.00  0.00    -0.049 A 
HETATM   17  C4  UNL     1      29.298   0.530  53.594  1.00  0.00     0.011 A 
HETATM   18  C5  UNL     1      29.728  -0.785  53.702  1.00  0.00     0.043 A 
HETATM   19  C6  UNL     1      28.858  -1.787  53.323  1.00  0.00     0.116 A 
HETATM   20  F1  UNL     1      29.267  -3.074  53.425  1.00  0.00    -0.206 F 
HETATM   21  C7  UNL     1      27.580  -1.531  52.841  1.00  0.00     0.043 A 
HETATM   22  C8  UNL     1      27.191  -0.200  52.749  1.00  0.00     0.011 A 
ENDBRANCH  15  16
ENDBRANCH   2  15
TORSDOF 4
ENDMDL
MODEL 5
REMARK VINA RESULT:      -7.5      3.887      6.846
REMARK  4 active torsions:
REMARK  status: ('A' for Active; 'I' for Inactive)
REMARK    1  A    between atoms: C1_2  and  C2_3 
REMARK       I    between atoms: C1_2  and  N1_11 
REMARK    2  A    between atoms: C2_3  and  C3_4 
REMARK    3  A    between atoms: N1_11  and  S1_12 
REMARK    4  A    between atoms: S1_12  and  C9_15 
ROOT
HETATM    1  O1  UNL     1      23.080   3.515  50.762  1.00  0.00    -0.272 OA
HETATM    2  C1  UNL     1      23.636   3.715  51.865  1.00  0.00     0.235 C 
HETATM    3  N1  UNL     1      24.221   5.023  51.950  1.00  0.00    -0.250 N 
HETATM    4  H7  UNL     1      24.736   5.372  52.812  1.00  0.00     0.181 HD
ENDROOT
BRANCH   3   5
HETATM    5  S1  UNL     1      24.095   6.101  50.595  1.00  0.00     0.266 S 
HETATM    6  O2  UNL     1      22.747   5.890  49.933  1.00  0.00    -0.200 OA
HETATM    7  O3  UNL     1      24.185   7.507  51.124  1.00  0.00    -0.200 OA
BRANCH   5   8
HETATM    8  C9  UNL     1      25.369   5.814  49.431  1.00  0.00     0.092 C 
HETATM    9  C10 UNL     1      25.790   6.660  48.538  1.00  0.00     0.012 C 
HETATM   10  C11 UNL     1      27.017   6.720  48.164  1.00  0.00     0.006 C 
HETATM   11  C12 UNL     1      27.802   5.714  48.427  1.00  0.00     0.023 C 
HETATM   12 BR1  UNL     1      29.697   5.877  48.163  1.00  0.00    -0.050 Br
HETATM   13  C13 UNL     1      27.283   4.428  48.931  1.00  0.00     0.021 C 
HETATM   14  C14 UNL     1      26.048   4.514  49.433  1.00  0.00     0.027 C 
ENDBRANCH   5   8
ENDBRANCH   3   5
BRANCH   2  15
HETATM   15  C2  UNL     1      23.813   2.899  53.085  1.00  0.00     0.142 C 
BRANCH  15  16
HETATM   16  C3  UNL     1      24.624   1.697  52.910  1.00  0.00    -0.049 A 
HETATM   17  C4  UNL     1      25.833   1.874  52.249  1.00  0.00     0.011 A 
HETATM   18  C5  UNL     1      26.690   0.806  52.022  1.00  0.00     0.043 A 
HETATM   19  C6  UNL     1      26.308  -0.441  52.474  1.00  0.00     0.116 A 
HETATM   20  F1  UNL     1      27.136  -1.491  52.259  1.00  0.00    -0.206 F 
HETATM   21  C7  UNL     1      25.109  -0.666  53.139  1.00  0.00     0.043 A 
HETATM   22  C8  UNL     1      24.281   0.432  53.343  1.00  0.00     0.011 A 
ENDBRANCH  15  16
ENDBRANCH   2  15
TORSDOF 4
ENDMDL
MODEL 6
REMARK VINA RESULT:      -7.3      4.398      6.074
REMARK  4 active torsions:
REMARK  status: ('A' for Active; 'I' for Inactive)
REMARK    1  A    between atoms: C1_2  and  C2_3 
REMARK       I    between atoms: C1_2  and  N1_11 
REMARK    2  A    between atoms: C2_3  and  C3_4 
REMARK    3  A    between atoms: N1_11  and  S1_12 
REMARK    4  A    between atoms: S1_12  and  C9_15 
ROOT
HETATM    1  O1  UNL     1      24.256   2.587  52.959  1.00  0.00    -0.272 OA
HETATM    2  C1  UNL     1      24.877   2.806  51.894  1.00  0.00     0.235 C 
HETATM    3  N1  UNL     1      24.021   3.321  50.862  1.00  0.00    -0.250 N 
HETATM    4  H7  UNL     1      24.371   3.567  49.889  1.00  0.00     0.181 HD
ENDROOT
BRANCH   3   5
HETATM    5  S1  UNL     1      22.335   3.560  51.197  1.00  0.00     0.266 S 
HETATM    6  O2  UNL     1      22.201   4.602  52.290  1.00  0.00    -0.200 OA
HETATM    7  O3  UNL     1      21.689   4.066  49.934  1.00  0.00    -0.200 OA
BRANCH   5   8
HETATM    8  C9  UNL     1      21.569   2.074  51.710  1.00  0.00     0.092 C 
HETATM    9  C10 UNL     1      21.780   0.893  51.207  1.00  0.00     0.012 C 
HETATM   10  C11 UNL     1      21.746  -0.178  51.913  1.00  0.00     0.006 C 
HETATM   11  C12 UNL     1      21.171  -0.139  53.082  1.00  0.00     0.023 C 
HETATM   12 BR1  UNL     1      21.356  -1.615  54.296  1.00  0.00    -0.050 Br
HETATM   13  C13 UNL     1      20.367   1.019  53.520  1.00  0.00     0.021 C 
HETATM   14  C14 UNL     1      20.593   2.124  52.804  1.00  0.00     0.027 C 
ENDBRANCH   5   8
ENDBRANCH   3   5
BRANCH   2  15
HETATM   15  C2  UNL     1      26.287   2.650  51.481  1.00  0.00     0.142 C 
BRANCH  15  16
HETATM   16  C3  UNL     1      27.030   1.618  52.200  1.00  0.00    -0.049 A 
HETATM   17  C4  UNL     1      28.053   2.073  53.023  1.00  0.00     0.011 A 
HETATM   18  C5  UNL     1      28.830   1.188  53.757  1.00  0.00     0.043 A 
HETATM   19  C6  UNL     1      28.558  -0.161  53.648  1.00  0.00     0.116 A 
HETATM   20  F1  UNL     1      29.310  -1.034  54.360  1.00  0.00    -0.206 F 
HETATM   21  C7  UNL     1      27.546  -0.661  52.837  1.00  0.00     0.043 A 
HETATM   22  C8  UNL     1      26.794   0.261  52.119  1.00  0.00     0.011 A 
ENDBRANCH  15  16
ENDBRANCH   2  15
TORSDOF 4
ENDMDL
MODEL 7
REMARK VINA RESULT:      -7.1      4.877      7.496
REMARK  4 active torsions:
REMARK  status: ('A' for Active; 'I' for Inactive)
REMARK    1  A    between atoms: C1_2  and  C2_3 
REMARK       I    between atoms: C1_2  and  N1_11 
REMARK    2  A    between atoms: C2_3  and  C3_4 
REMARK    3  A    between atoms: N1_11  and  S1_12 
REMARK    4  A    between atoms: S1_12  and  C9_15 
ROOT
HETATM    1  O1  UNL     1      25.083   2.556  53.552  1.00  0.00    -0.272 OA
HETATM    2  C1  UNL     1      24.854   1.389  53.161  1.00  0.00     0.235 C 
HETATM    3  N1  UNL     1      24.169   1.362  51.900  1.00  0.00    -0.250 N 
HETATM    4  H7  UNL     1      23.890   0.461  51.411  1.00  0.00     0.181 HD
ENDROOT
BRANCH   3   5
HETATM    5  S1  UNL     1      23.766   2.860  51.120  1.00  0.00     0.266 S 
HETATM    6  O2  UNL     1      22.915   3.685  52.065  1.00  0.00    -0.200 OA
HETATM    7  O3  UNL     1      25.055   3.584  50.835  1.00  0.00    -0.200 OA
BRANCH   5   8
HETATM    8  C9  UNL     1      22.889   2.588  49.630  1.00  0.00     0.092 C 
HETATM    9  C10 UNL     1      22.041   1.627  49.409  1.00  0.00     0.012 C 
HETATM   10  C11 UNL     1      21.009   1.772  48.660  1.00  0.00     0.006 C 
HETATM   11  C12 UNL     1      20.968   2.785  47.840  1.00  0.00     0.023 C 
HETATM   12 BR1  UNL     1      19.336   3.216  46.925  1.00  0.00    -0.050 Br
HETATM   13  C13 UNL     1      22.149   3.630  47.581  1.00  0.00     0.021 C 
HETATM   14  C14 UNL     1      23.104   3.506  48.507  1.00  0.00     0.027 C 
ENDBRANCH   5   8
ENDBRANCH   3   5
BRANCH   2  15
HETATM   15  C2  UNL     1      25.138   0.049  53.717  1.00  0.00     0.142 C 
BRANCH  15  16
HETATM   16  C3  UNL     1      26.547  -0.335  53.709  1.00  0.00    -0.049 A 
HETATM   17  C4  UNL     1      27.357   0.317  54.631  1.00  0.00     0.011 A 
HETATM   18  C5  UNL     1      28.713   0.036  54.719  1.00  0.00     0.043 A 
HETATM   19  C6  UNL     1      29.238  -0.911  53.863  1.00  0.00     0.116 A 
HETATM   20  F1  UNL     1      30.561  -1.193  53.940  1.00  0.00    -0.206 F 
HETATM   21  C7  UNL     1      28.467  -1.588  52.926  1.00  0.00     0.043 A 
HETATM   22  C8  UNL     1      27.114  -1.275  52.872  1.00  0.00     0.011 A 
ENDBRANCH  15  16
ENDBRANCH   2  15
TORSDOF 4
ENDMDL
MODEL 8
REMARK VINA RESULT:      -7.1      4.480      7.662
REMARK  4 active torsions:
REMARK  status: ('A' for Active; 'I' for Inactive)
REMARK    1  A    between atoms: C1_2  and  C2_3 
REMARK       I    between atoms: C1_2  and  N1_11 
REMARK    2  A    between atoms: C2_3  and  C3_4 
REMARK    3  A    between atoms: N1_11  and  S1_12 
REMARK    4  A    between atoms: S1_12  and  C9_15 
ROOT
HETATM    1  O1  UNL     1      23.862   2.284  50.438  1.00  0.00    -0.272 OA
HETATM    2  C1  UNL     1      24.446   2.401  51.539  1.00  0.00     0.235 C 
HETATM    3  N1  UNL     1      24.701   3.772  51.876  1.00  0.00    -0.250 N 
HETATM    4  H7  UNL     1      25.188   4.067  52.774  1.00  0.00     0.181 HD
ENDROOT
BRANCH   3   5
HETATM    5  S1  UNL     1      24.202   5.024  50.783  1.00  0.00     0.266 S 
HETATM    6  O2  UNL     1      22.875   4.628  50.166  1.00  0.00    -0.200 OA
HETATM    7  O3  UNL     1      24.030   6.286  51.586  1.00  0.00    -0.200 OA
BRANCH   5   8
HETATM    8  C9  UNL     1      25.383   5.275  49.517  1.00  0.00     0.092 C 
HETATM    9  C10 UNL     1      25.392   6.258  48.666  1.00  0.00     0.012 C 
HETATM   10  C11 UNL     1      26.477   6.776  48.216  1.00  0.00     0.006 C 
HETATM   11  C12 UNL     1      27.590   6.110  48.347  1.00  0.00     0.023 C 
HETATM   12 BR1  UNL     1      29.270   6.959  47.970  1.00  0.00    -0.050 Br
HETATM   13  C13 UNL     1      27.611   4.700  48.783  1.00  0.00     0.021 C 
HETATM   14  C14 UNL     1      26.478   4.310  49.373  1.00  0.00     0.027 C 
ENDBRANCH   5   8
ENDBRANCH   3   5
BRANCH   2  15
HETATM   15  C2  UNL     1      24.919   1.436  52.553  1.00  0.00     0.142 C 
BRANCH  15  16
HETATM   16  C3  UNL     1      23.871   0.634  53.179  1.00  0.00    -0.049 A 
HETATM   17  C4  UNL     1      22.571   1.094  53.002  1.00  0.00     0.011 A 
HETATM   18  C5  UNL     1      21.491   0.417  53.550  1.00  0.00     0.043 A 
HETATM   19  C6  UNL     1      21.742  -0.729  54.277  1.00  0.00     0.116 A 
HETATM   20  F1  UNL     1      20.694  -1.398  54.816  1.00  0.00    -0.206 F 
HETATM   21  C7  UNL     1      23.023  -1.225  54.480  1.00  0.00     0.043 A 
HETATM   22  C8  UNL     1      24.076  -0.516  53.914  1.00  0.00     0.011 A 
ENDBRANCH  15  16
ENDBRANCH   2  15
TORSDOF 4
ENDMDL
MODEL 9
REMARK VINA RESULT:      -7.0      3.921      6.850
REMARK  4 active torsions:
REMARK  status: ('A' for Active; 'I' for Inactive)
REMARK    1  A    between atoms: C1_2  and  C2_3 
REMARK       I    between atoms: C1_2  and  N1_11 
REMARK    2  A    between atoms: C2_3  and  C3_4 
REMARK    3  A    between atoms: N1_11  and  S1_12 
REMARK    4  A    between atoms: S1_12  and  C9_15 
ROOT
HETATM    1  O1  UNL     1      23.628   3.489  52.210  1.00  0.00    -0.272 OA
HETATM    2  C1  UNL     1      23.489   2.382  51.642  1.00  0.00     0.235 C 
HETATM    3  N1  UNL     1      23.374   2.513  50.217  1.00  0.00    -0.250 N 
HETATM    4  H7  UNL     1      23.250   1.681  49.568  1.00  0.00     0.181 HD
ENDROOT
BRANCH   3   5
HETATM    5  S1  UNL     1      23.437   4.092  49.500  1.00  0.00     0.266 S 
HETATM    6  O2  UNL     1      23.000   3.985  48.052  1.00  0.00    -0.200 OA
HETATM    7  O3  UNL     1      22.476   4.972  50.255  1.00  0.00    -0.200 OA
BRANCH   5   8
HETATM    8  C9  UNL     1      25.050   4.763  49.576  1.00  0.00     0.092 C 
HETATM    9  C10 UNL     1      26.159   4.110  49.385  1.00  0.00     0.012 C 
HETATM   10  C11 UNL     1      27.191   4.641  48.837  1.00  0.00     0.006 C 
HETATM   11  C12 UNL     1      27.262   5.940  48.764  1.00  0.00     0.023 C 
HETATM   12 BR1  UNL     1      28.625   6.770  47.696  1.00  0.00    -0.050 Br
HETATM   13  C13 UNL     1      26.318   6.818  49.483  1.00  0.00     0.021 C 
HETATM   14  C14 UNL     1      25.208   6.190  49.880  1.00  0.00     0.027 C 
ENDBRANCH   5   8
ENDBRANCH   3   5
BRANCH   2  15
HETATM   15  C2  UNL     1      23.421   0.987  52.124  1.00  0.00     0.142 C 
BRANCH  15  16
HETATM   16  C3  UNL     1      24.666   0.465  52.683  1.00  0.00    -0.049 A 
HETATM   17  C4  UNL     1      25.829   0.839  52.021  1.00  0.00     0.011 A 
HETATM   18  C5  UNL     1      27.073   0.406  52.457  1.00  0.00     0.043 A 
HETATM   19  C6  UNL     1      27.124  -0.408  53.571  1.00  0.00     0.116 A 
HETATM   20  F1  UNL     1      28.333  -0.836  54.006  1.00  0.00    -0.206 F 
HETATM   21  C7  UNL     1      25.988  -0.807  54.264  1.00  0.00     0.043 A 
HETATM   22  C8  UNL     1      24.763  -0.351  53.791  1.00  0.00     0.011 A 
ENDBRANCH  15  16
ENDBRANCH   2  15
TORSDOF 4
ENDMDL
