MODEL 1
REMARK VINA RESULT:     -10.2      0.000      0.000
REMARK  2 active torsions:
REMARK  status: ('A' for Active; 'I' for Inactive)
REMARK    1  A    between atoms: C4_5  and  N1_6 
REMARK    2  A    between atoms: N1_6  and  C5_7 
ROOT
HETATM    1  C5  UNL     1      25.663   2.636  51.956  1.00  0.00     0.142 A 
HETATM    2  N2  UNL     1      24.792   2.040  52.776  1.00  0.00    -0.224 NA
HETATM    3  C6  UNL     1      23.500   1.958  52.465  1.00  0.00     0.236 A 
HETATM    4  N3  UNL     1      23.138   2.507  51.282  1.00  0.00    -0.241 NA
HETATM    5  C7  UNL     1      24.029   3.099  50.477  1.00  0.00     0.070 A 
HETATM    6  C8  UNL     1      25.363   3.211  50.749  1.00  0.00     0.039 A 
HETATM    7  C9  UNL     1      26.365   3.855  49.931  1.00  0.00     0.025 C 
HETATM    8  C10 UNL     1      26.472   5.056  49.399  1.00  0.00    -0.022 C 
HETATM    9  C11 UNL     1      27.781   5.099  48.646  1.00  0.00     0.206 C 
HETATM   10  O1  UNL     1      27.897   6.265  47.914  1.00  0.00    -0.358 OA
HETATM   11  C12 UNL     1      27.916   7.401  48.723  1.00  0.00     0.438 C 
HETATM   12  N4  UNL     1      26.817   7.384  49.673  1.00  0.00     0.115 N 
HETATM   13  C13 UNL     1      25.848   6.390  49.225  1.00  0.00     0.256 C 
HETATM   14  C14 UNL     1      25.474   6.683  47.816  1.00  0.00     0.069 C 
HETATM   15  C15 UNL     1      24.052   7.268  47.808  1.00  0.00     0.204 C 
HETATM   16  O2  UNL     1      23.152   6.417  48.451  1.00  0.00    -0.278 OA
HETATM   17  N5  UNL     1      22.770   5.190  48.154  1.00  0.00    -0.258 N 
HETATM   18  C16 UNL     1      22.099   4.645  47.285  1.00  0.00     0.122 A 
HETATM   19  C17 UNL     1      22.590   3.639  48.220  1.00  0.00     0.179 A 
HETATM   20  C18 UNL     1      23.310   3.572  49.309  1.00  0.00     0.038 C 
HETATM   21  H10 UNL     1      26.408   8.341  49.744  1.00  0.00     0.319 HD
ENDROOT
BRANCH   1  22
HETATM   22  N1  UNL     1      27.054   2.702  52.346  1.00  0.00    -0.340 N 
HETATM   23  H3  UNL     1      27.621   3.577  52.371  1.00  0.00     0.167 HD
BRANCH  22  24
HETATM   24  C4  UNL     1      27.667   1.473  52.715  1.00  0.00     0.035 A 
HETATM   25  C3  UNL     1      28.853   1.462  53.425  1.00  0.00     0.032 A 
HETATM   26  C2  UNL     1      29.437   0.257  53.774  1.00  0.00     0.046 A 
HETATM   27  C1  UNL     1      28.827  -0.924  53.408  1.00  0.00     0.138 A 
HETATM   28  F1  UNL     1      29.379  -2.139  53.737  1.00  0.00    -0.204 F 
HETATM   29  C20 UNL     1      27.651  -0.961  52.704  1.00  0.00     0.074 A 
HETATM   30  C19 UNL     1      27.112   0.254  52.382  1.00  0.00     0.056 A 
HETATM   31 CL1  UNL     1      26.809  -2.411  52.199  1.00  0.00    -0.081 Cl
ENDBRANCH  22  24
ENDBRANCH   1  22
TORSDOF 2
ENDMDL
MODEL 2
REMARK VINA RESULT:     -10.1      2.881      4.206
REMARK  2 active torsions:
REMARK  status: ('A' for Active; 'I' for Inactive)
REMARK    1  A    between atoms: C4_5  and  N1_6 
REMARK    2  A    between atoms: N1_6  and  C5_7 
ROOT
HETATM    1  C5  UNL     1      24.711   0.760  53.195  1.00  0.00     0.142 A 
HETATM    2  N2  UNL     1      24.740  -0.194  54.130  1.00  0.00    -0.224 NA
HETATM    3  C6  UNL     1      23.654  -0.908  54.419  1.00  0.00     0.236 A 
HETATM    4  N3  UNL     1      22.540  -0.607  53.711  1.00  0.00    -0.241 NA
HETATM    5  C7  UNL     1      22.536   0.353  52.779  1.00  0.00     0.070 A 
HETATM    6  C8  UNL     1      23.621   1.114  52.445  1.00  0.00     0.039 A 
HETATM    7  C9  UNL     1      23.669   2.174  51.465  1.00  0.00     0.025 C 
HETATM    8  C10 UNL     1      22.963   3.272  51.275  1.00  0.00    -0.022 C 
HETATM    9  C11 UNL     1      23.529   3.964  50.057  1.00  0.00     0.206 C 
HETATM   10  O1  UNL     1      22.741   5.036  49.683  1.00  0.00    -0.358 OA
HETATM   11  C12 UNL     1      22.691   6.026  50.662  1.00  0.00     0.438 C 
HETATM   12  N4  UNL     1      22.373   5.461  51.962  1.00  0.00     0.115 N 
HETATM   13  C13 UNL     1      21.843   4.118  51.752  1.00  0.00     0.256 C 
HETATM   14  C14 UNL     1      20.712   4.191  50.789  1.00  0.00     0.069 C 
HETATM   15  C15 UNL     1      19.403   3.991  51.569  1.00  0.00     0.204 C 
HETATM   16  O2  UNL     1      19.428   2.802  52.300  1.00  0.00    -0.278 OA
HETATM   17  N5  UNL     1      19.511   1.548  51.896  1.00  0.00    -0.258 N 
HETATM   18  C16 UNL     1      18.795   0.745  51.311  1.00  0.00     0.122 A 
HETATM   19  C17 UNL     1      20.070   0.114  51.629  1.00  0.00     0.179 A 
HETATM   20  C18 UNL     1      21.196   0.410  52.223  1.00  0.00     0.038 C 
HETATM   21  H10 UNL     1      21.699   6.087  52.455  1.00  0.00     0.319 HD
ENDROOT
BRANCH   1  22
HETATM   22  N1  UNL     1      25.918   1.508  52.924  1.00  0.00    -0.340 N 
HETATM   23  H3  UNL     1      25.940   2.478  52.543  1.00  0.00     0.167 HD
BRANCH  22  24
HETATM   24  C4  UNL     1      27.148   0.850  53.206  1.00  0.00     0.035 A 
HETATM   25  C3  UNL     1      28.226   1.555  53.708  1.00  0.00     0.032 A 
HETATM   26  C2  UNL     1      29.415   0.899  53.974  1.00  0.00     0.046 A 
HETATM   27  C1  UNL     1      29.512  -0.454  53.733  1.00  0.00     0.138 A 
HETATM   28  F1  UNL     1      30.678  -1.137  53.984  1.00  0.00    -0.204 F 
HETATM   29  C20 UNL     1      28.470  -1.193  53.235  1.00  0.00     0.074 A 
HETATM   30  C19 UNL     1      27.315  -0.502  52.988  1.00  0.00     0.056 A 
HETATM   31 CL1  UNL     1      28.505  -2.911  52.901  1.00  0.00    -0.081 Cl
ENDBRANCH  22  24
ENDBRANCH   1  22
TORSDOF 2
ENDMDL
MODEL 3
REMARK VINA RESULT:      -9.9      1.906      2.489
REMARK  2 active torsions:
REMARK  status: ('A' for Active; 'I' for Inactive)
REMARK    1  A    between atoms: C4_5  and  N1_6 
REMARK    2  A    between atoms: N1_6  and  C5_7 
ROOT
HETATM    1  C5  UNL     1      24.165   1.068  52.747  1.00  0.00     0.142 A 
HETATM    2  N2  UNL     1      23.323   0.339  53.486  1.00  0.00    -0.224 NA
HETATM    3  C6  UNL     1      22.087   0.080  53.065  1.00  0.00     0.236 A 
HETATM    4  N3  UNL     1      21.750   0.595  51.859  1.00  0.00    -0.241 NA
HETATM    5  C7  UNL     1      22.611   1.321  51.137  1.00  0.00     0.070 A 
HETATM    6  C8  UNL     1      23.888   1.617  51.523  1.00  0.00     0.039 A 
HETATM    7  C9  UNL     1      24.852   2.411  50.797  1.00  0.00     0.025 C 
HETATM    8  C10 UNL     1      24.830   3.625  50.284  1.00  0.00    -0.022 C 
HETATM    9  C11 UNL     1      26.178   3.868  49.646  1.00  0.00     0.206 C 
HETATM   10  O1  UNL     1      26.186   5.052  48.934  1.00  0.00    -0.358 OA
HETATM   11  C12 UNL     1      25.975   6.163  49.748  1.00  0.00     0.438 C 
HETATM   12  N4  UNL     1      24.815   5.973  50.601  1.00  0.00     0.115 N 
HETATM   13  C13 UNL     1      24.039   4.860  50.065  1.00  0.00     0.256 C 
HETATM   14  C14 UNL     1      23.745   5.123  48.632  1.00  0.00     0.069 C 
HETATM   15  C15 UNL     1      22.260   5.501  48.507  1.00  0.00     0.204 C 
HETATM   16  O2  UNL     1      21.441   4.518  49.065  1.00  0.00    -0.278 OA
HETATM   17  N5  UNL     1      21.264   3.255  48.728  1.00  0.00    -0.258 N 
HETATM   18  C16 UNL     1      20.753   2.637  47.803  1.00  0.00     0.122 A 
HETATM   19  C17 UNL     1      21.303   1.693  48.769  1.00  0.00     0.179 A 
HETATM   20  C18 UNL     1      21.931   1.709  49.915  1.00  0.00     0.038 C 
HETATM   21  H10 UNL     1      24.268   6.861  50.643  1.00  0.00     0.319 HD
ENDROOT
BRANCH   1  22
HETATM   22  N1  UNL     1      25.495   1.323  53.254  1.00  0.00    -0.340 N 
HETATM   23  H3  UNL     1      25.804   2.225  53.678  1.00  0.00     0.167 HD
BRANCH  22  24
HETATM   24  C4  UNL     1      26.427   0.253  53.156  1.00  0.00     0.035 A 
HETATM   25  C3  UNL     1      26.014  -1.008  52.769  1.00  0.00     0.032 A 
HETATM   26  C2  UNL     1      26.934  -2.038  52.681  1.00  0.00     0.046 A 
HETATM   27  C1  UNL     1      28.257  -1.794  52.982  1.00  0.00     0.138 A 
HETATM   28  F1  UNL     1      29.198  -2.792  52.906  1.00  0.00    -0.204 F 
HETATM   29  C20 UNL     1      28.711  -0.559  53.370  1.00  0.00     0.074 A 
HETATM   30  C19 UNL     1      27.766   0.427  53.442  1.00  0.00     0.056 A 
HETATM   31 CL1  UNL     1      30.368  -0.160  53.768  1.00  0.00    -0.081 Cl
ENDBRANCH  22  24
ENDBRANCH   1  22
TORSDOF 2
ENDMDL
MODEL 4
REMARK VINA RESULT:      -9.6      4.300      7.187
REMARK  2 active torsions:
REMARK  status: ('A' for Active; 'I' for Inactive)
REMARK    1  A    between atoms: C4_5  and  N1_6 
REMARK    2  A    between atoms: N1_6  and  C5_7 
ROOT
HETATM    1  C5  UNL     1      24.606   3.027  49.773  1.00  0.00     0.142 A 
HETATM    2  N2  UNL     1      23.847   3.161  48.681  1.00  0.00    -0.224 NA
HETATM    3  C6  UNL     1      22.560   2.821  48.694  1.00  0.00     0.236 A 
HETATM    4  N3  UNL     1      22.083   2.343  49.867  1.00  0.00    -0.241 NA
HETATM    5  C7  UNL     1      22.863   2.218  50.946  1.00  0.00     0.070 A 
HETATM    6  C8  UNL     1      24.188   2.550  50.987  1.00  0.00     0.039 A 
HETATM    7  C9  UNL     1      25.082   2.419  52.114  1.00  0.00     0.025 C 
HETATM    8  C10 UNL     1      25.410   1.416  52.904  1.00  0.00    -0.022 C 
HETATM    9  C11 UNL     1      26.416   1.940  53.902  1.00  0.00     0.206 C 
HETATM   10  O1  UNL     1      26.687   1.000  54.878  1.00  0.00    -0.358 OA
HETATM   11  C12 UNL     1      27.273  -0.153  54.356  1.00  0.00     0.438 C 
HETATM   12  N4  UNL     1      26.520  -0.653  53.219  1.00  0.00     0.115 N 
HETATM   13  C13 UNL     1      25.208  -0.016  53.231  1.00  0.00     0.256 C 
HETATM   14  C14 UNL     1      24.580  -0.232  54.562  1.00  0.00     0.069 C 
HETATM   15  C15 UNL     1      23.463  -1.276  54.402  1.00  0.00     0.204 C 
HETATM   16  O2  UNL     1      22.550  -0.893  53.418  1.00  0.00    -0.278 OA
HETATM   17  N5  UNL     1      21.741   0.148  53.357  1.00  0.00    -0.258 N 
HETATM   18  C16 UNL     1      20.728   0.531  53.929  1.00  0.00     0.122 A 
HETATM   19  C17 UNL     1      21.113   1.511  52.920  1.00  0.00     0.179 A 
HETATM   20  C18 UNL     1      22.041   1.682  52.015  1.00  0.00     0.038 C 
HETATM   21  H10 UNL     1      26.463  -1.694  53.274  1.00  0.00     0.319 HD
ENDROOT
BRANCH   1  22
HETATM   22  N1  UNL     1      26.000   3.407  49.703  1.00  0.00    -0.340 N 
HETATM   23  H3  UNL     1      26.799   2.752  49.839  1.00  0.00     0.167 HD
BRANCH  22  24
HETATM   24  C4  UNL     1      26.270   4.776  49.428  1.00  0.00     0.035 A 
HETATM   25  C3  UNL     1      27.345   5.137  48.636  1.00  0.00     0.032 A 
HETATM   26  C2  UNL     1      27.595   6.475  48.381  1.00  0.00     0.046 A 
HETATM   27  C1  UNL     1      26.767   7.435  48.922  1.00  0.00     0.138 A 
HETATM   28  F1  UNL     1      26.985   8.771  48.690  1.00  0.00    -0.204 F 
HETATM   29  C20 UNL     1      25.691   7.122  49.713  1.00  0.00     0.074 A 
HETATM   30  C19 UNL     1      25.483   5.789  49.937  1.00  0.00     0.056 A 
HETATM   31 CL1  UNL     1      24.590   8.274  50.439  1.00  0.00    -0.081 Cl
ENDBRANCH  22  24
ENDBRANCH   1  22
TORSDOF 2
ENDMDL
MODEL 5
REMARK VINA RESULT:      -9.6      1.535      1.870
REMARK  2 active torsions:
REMARK  status: ('A' for Active; 'I' for Inactive)
REMARK    1  A    between atoms: C4_5  and  N1_6 
REMARK    2  A    between atoms: N1_6  and  C5_7 
ROOT
HETATM    1  C5  UNL     1      25.362   3.468  51.189  1.00  0.00     0.142 A 
HETATM    2  N2  UNL     1      24.317   3.056  51.914  1.00  0.00    -0.224 NA
HETATM    3  C6  UNL     1      23.070   3.326  51.538  1.00  0.00     0.236 A 
HETATM    4  N3  UNL     1      22.935   4.033  50.392  1.00  0.00    -0.241 NA
HETATM    5  C7  UNL     1      23.996   4.435  49.682  1.00  0.00     0.070 A 
HETATM    6  C8  UNL     1      25.295   4.185  50.024  1.00  0.00     0.039 A 
HETATM    7  C9  UNL     1      26.478   4.610  49.311  1.00  0.00     0.025 C 
HETATM    8  C10 UNL     1      26.916   5.780  48.889  1.00  0.00    -0.022 C 
HETATM    9  C11 UNL     1      28.241   5.543  48.203  1.00  0.00     0.206 C 
HETATM   10  O1  UNL     1      28.692   6.691  47.580  1.00  0.00    -0.358 OA
HETATM   11  C12 UNL     1      28.940   7.723  48.483  1.00  0.00     0.438 C 
HETATM   12  N4  UNL     1      27.812   7.918  49.378  1.00  0.00     0.115 N 
HETATM   13  C13 UNL     1      26.657   7.237  48.801  1.00  0.00     0.256 C 
HETATM   14  C14 UNL     1      26.461   7.716  47.407  1.00  0.00     0.069 C 
HETATM   15  C15 UNL     1      25.235   8.642  47.385  1.00  0.00     0.204 C 
HETATM   16  O2  UNL     1      24.111   8.003  47.911  1.00  0.00    -0.278 OA
HETATM   17  N5  UNL     1      23.454   6.938  47.492  1.00  0.00    -0.258 N 
HETATM   18  C16 UNL     1      22.728   6.645  46.550  1.00  0.00     0.122 A 
HETATM   19  C17 UNL     1      22.889   5.483  47.416  1.00  0.00     0.179 A 
HETATM   20  C18 UNL     1      23.496   5.158  48.527  1.00  0.00     0.038 C 
HETATM   21  H10 UNL     1      27.651   8.940  49.512  1.00  0.00     0.319 HD
ENDROOT
BRANCH   1  22
HETATM   22  N1  UNL     1      26.696   3.150  51.646  1.00  0.00    -0.340 N 
HETATM   23  H3  UNL     1      27.487   3.829  51.681  1.00  0.00     0.167 HD
BRANCH  22  24
HETATM   24  C4  UNL     1      26.919   1.811  52.071  1.00  0.00     0.035 A 
HETATM   25  C3  UNL     1      26.386   0.750  51.363  1.00  0.00     0.032 A 
HETATM   26  C2  UNL     1      26.611  -0.547  51.792  1.00  0.00     0.046 A 
HETATM   27  C1  UNL     1      27.365  -0.766  52.925  1.00  0.00     0.138 A 
HETATM   28  F1  UNL     1      27.607  -2.039  53.381  1.00  0.00    -0.204 F 
HETATM   29  C20 UNL     1      27.911   0.256  53.658  1.00  0.00     0.074 A 
HETATM   30  C19 UNL     1      27.663   1.519  53.195  1.00  0.00     0.056 A 
HETATM   31 CL1  UNL     1      28.880   0.070  55.105  1.00  0.00    -0.081 Cl
ENDBRANCH  22  24
ENDBRANCH   1  22
TORSDOF 2
ENDMDL
MODEL 6
REMARK VINA RESULT:      -9.3      2.021      2.257
REMARK  2 active torsions:
REMARK  status: ('A' for Active; 'I' for Inactive)
REMARK    1  A    between atoms: C4_5  and  N1_6 
REMARK    2  A    between atoms: N1_6  and  C5_7 
ROOT
HETATM    1  C5  UNL     1      24.920   2.176  51.421  1.00  0.00     0.142 A 
HETATM    2  N2  UNL     1      24.332   1.326  52.269  1.00  0.00    -0.224 NA
HETATM    3  C6  UNL     1      23.038   1.433  52.562  1.00  0.00     0.236 A 
HETATM    4  N3  UNL     1      22.372   2.441  51.952  1.00  0.00    -0.241 NA
HETATM    5  C7  UNL     1      22.982   3.278  51.106  1.00  0.00     0.070 A 
HETATM    6  C8  UNL     1      24.306   3.214  50.772  1.00  0.00     0.039 A 
HETATM    7  C9  UNL     1      25.022   4.100  49.883  1.00  0.00     0.025 C 
HETATM    8  C10 UNL     1      25.173   5.409  49.830  1.00  0.00    -0.022 C 
HETATM    9  C11 UNL     1      26.057   5.711  48.642  1.00  0.00     0.206 C 
HETATM   10  O1  UNL     1      26.129   7.071  48.408  1.00  0.00    -0.358 OA
HETATM   11  C12 UNL     1      26.712   7.762  49.469  1.00  0.00     0.438 C 
HETATM   12  N4  UNL     1      26.100   7.393  50.733  1.00  0.00     0.115 N 
HETATM   13  C13 UNL     1      24.840   6.717  50.443  1.00  0.00     0.256 C 
HETATM   14  C14 UNL     1      24.017   7.587  49.561  1.00  0.00     0.069 C 
HETATM   15  C15 UNL     1      22.873   8.178  50.401  1.00  0.00     0.204 C 
HETATM   16  O2  UNL     1      22.134   7.172  51.026  1.00  0.00    -0.278 OA
HETATM   17  N5  UNL     1      21.406   6.198  50.514  1.00  0.00    -0.258 N 
HETATM   18  C16 UNL     1      20.347   6.093  49.907  1.00  0.00     0.122 A 
HETATM   19  C17 UNL     1      20.931   4.770  50.093  1.00  0.00     0.179 A 
HETATM   20  C18 UNL     1      21.986   4.225  50.639  1.00  0.00     0.038 C 
HETATM   21  H10 UNL     1      25.972   8.249  51.317  1.00  0.00     0.319 HD
ENDROOT
BRANCH   1  22
HETATM   22  N1  UNL     1      26.330   2.017  51.141  1.00  0.00    -0.340 N 
HETATM   23  H3  UNL     1      26.812   2.396  50.297  1.00  0.00     0.167 HD
BRANCH  22  24
HETATM   24  C4  UNL     1      27.088   1.289  52.099  1.00  0.00     0.035 A 
HETATM   25  C3  UNL     1      26.953  -0.082  52.211  1.00  0.00     0.032 A 
HETATM   26  C2  UNL     1      27.698  -0.774  53.151  1.00  0.00     0.046 A 
HETATM   27  C1  UNL     1      28.567  -0.085  53.969  1.00  0.00     0.138 A 
HETATM   28  F1  UNL     1      29.321  -0.739  54.913  1.00  0.00    -0.204 F 
HETATM   29  C20 UNL     1      28.732   1.274  53.893  1.00  0.00     0.074 A 
HETATM   30  C19 UNL     1      27.977   1.915  52.950  1.00  0.00     0.056 A 
HETATM   31 CL1  UNL     1      29.812   2.228  54.889  1.00  0.00    -0.081 Cl
ENDBRANCH  22  24
ENDBRANCH   1  22
TORSDOF 2
ENDMDL
MODEL 7
REMARK VINA RESULT:      -9.3      4.165      5.799
REMARK  2 active torsions:
REMARK  status: ('A' for Active; 'I' for Inactive)
REMARK    1  A    between atoms: C4_5  and  N1_6 
REMARK    2  A    between atoms: N1_6  and  C5_7 
ROOT
HETATM    1  C5  UNL     1      22.831   0.197  52.880  1.00  0.00     0.142 A 
HETATM    2  N2  UNL     1      22.952  -0.175  54.159  1.00  0.00    -0.224 NA
HETATM    3  C6  UNL     1      21.895  -0.580  54.859  1.00  0.00     0.236 A 
HETATM    4  N3  UNL     1      20.713  -0.588  54.199  1.00  0.00    -0.241 NA
HETATM    5  C7  UNL     1      20.617  -0.211  52.919  1.00  0.00     0.070 A 
HETATM    6  C8  UNL     1      21.669   0.213  52.156  1.00  0.00     0.039 A 
HETATM    7  C9  UNL     1      21.623   0.650  50.780  1.00  0.00     0.025 C 
HETATM    8  C10 UNL     1      20.917   1.559  50.137  1.00  0.00    -0.022 C 
HETATM    9  C11 UNL     1      21.352   1.526  48.690  1.00  0.00     0.206 C 
HETATM   10  O1  UNL     1      20.543   2.327  47.908  1.00  0.00    -0.358 OA
HETATM   11  C12 UNL     1      20.618   3.671  48.269  1.00  0.00     0.438 C 
HETATM   12  N4  UNL     1      20.440   3.839  49.701  1.00  0.00     0.115 N 
HETATM   13  C13 UNL     1      19.870   2.605  50.232  1.00  0.00     0.256 C 
HETATM   14  C14 UNL     1      18.639   2.275  49.466  1.00  0.00     0.069 C 
HETATM   15  C15 UNL     1      17.423   2.573  50.358  1.00  0.00     0.204 C 
HETATM   16  O2  UNL     1      17.513   1.896  51.576  1.00  0.00    -0.278 OA
HETATM   17  N5  UNL     1      17.531   0.603  51.839  1.00  0.00    -0.258 N 
HETATM   18  C16 UNL     1      16.741  -0.332  51.795  1.00  0.00     0.122 A 
HETATM   19  C17 UNL     1      18.035  -0.813  52.268  1.00  0.00     0.179 A 
HETATM   20  C18 UNL     1      19.225  -0.342  52.532  1.00  0.00     0.038 C 
HETATM   21  H10 UNL     1      19.835   4.671  49.879  1.00  0.00     0.319 HD
ENDROOT
BRANCH   1  22
HETATM   22  N1  UNL     1      24.012   0.632  52.167  1.00  0.00    -0.340 N 
HETATM   23  H3  UNL     1      24.001   1.108  51.239  1.00  0.00     0.167 HD
BRANCH  22  24
HETATM   24  C4  UNL     1      25.262   0.380  52.798  1.00  0.00     0.035 A 
HETATM   25  C3  UNL     1      25.823   1.313  53.649  1.00  0.00     0.032 A 
HETATM   26  C2  UNL     1      27.041   1.053  54.252  1.00  0.00     0.046 A 
HETATM   27  C1  UNL     1      27.684  -0.139  53.994  1.00  0.00     0.138 A 
HETATM   28  F1  UNL     1      28.895  -0.431  54.575  1.00  0.00    -0.204 F 
HETATM   29  C20 UNL     1      27.166  -1.093  53.157  1.00  0.00     0.074 A 
HETATM   30  C19 UNL     1      25.960  -0.791  52.585  1.00  0.00     0.056 A 
HETATM   31 CL1  UNL     1      27.912  -2.630  52.774  1.00  0.00    -0.081 Cl
ENDBRANCH  22  24
ENDBRANCH   1  22
TORSDOF 2
ENDMDL
MODEL 8
REMARK VINA RESULT:      -9.2      4.312      6.845
REMARK  2 active torsions:
REMARK  status: ('A' for Active; 'I' for Inactive)
REMARK    1  A    between atoms: C4_5  and  N1_6 
REMARK    2  A    between atoms: N1_6  and  C5_7 
ROOT
HETATM    1  C5  UNL     1      23.249   6.706  51.022  1.00  0.00     0.142 A 
HETATM    2  N2  UNL     1      22.634   7.616  50.260  1.00  0.00    -0.224 NA
HETATM    3  C6  UNL     1      21.370   7.449  49.876  1.00  0.00     0.236 A 
HETATM    4  N3  UNL     1      20.764   6.317  50.303  1.00  0.00    -0.241 NA
HETATM    5  C7  UNL     1      21.401   5.421  51.065  1.00  0.00     0.070 A 
HETATM    6  C8  UNL     1      22.695   5.543  51.487  1.00  0.00     0.039 A 
HETATM    7  C9  UNL     1      23.439   4.601  52.291  1.00  0.00     0.025 C 
HETATM    8  C10 UNL     1      23.700   3.314  52.178  1.00  0.00    -0.022 C 
HETATM    9  C11 UNL     1      24.545   2.920  53.367  1.00  0.00     0.206 C 
HETATM   10  O1  UNL     1      24.723   1.551  53.420  1.00  0.00    -0.358 OA
HETATM   11  C12 UNL     1      25.417   1.062  52.315  1.00  0.00     0.438 C 
HETATM   12  N4  UNL     1      24.840   1.553  51.076  1.00  0.00     0.115 N 
HETATM   13  C13 UNL     1      23.513   2.081  51.375  1.00  0.00     0.256 C 
HETATM   14  C14 UNL     1      22.725   1.035  52.079  1.00  0.00     0.069 C 
HETATM   15  C15 UNL     1      21.681   0.478  51.099  1.00  0.00     0.204 C 
HETATM   16  O2  UNL     1      20.890   1.500  50.570  1.00  0.00    -0.278 OA
HETATM   17  N5  UNL     1      20.055   2.332  51.162  1.00  0.00    -0.258 N 
HETATM   18  C16 UNL     1      18.962   2.268  51.710  1.00  0.00     0.122 A 
HETATM   19  C17 UNL     1      19.437   3.646  51.739  1.00  0.00     0.179 A 
HETATM   20  C18 UNL     1      20.468   4.343  51.338  1.00  0.00     0.038 C 
HETATM   21  H10 UNL     1      24.817   0.780  50.375  1.00  0.00     0.319 HD
ENDROOT
BRANCH   1  22
HETATM   22  N1  UNL     1      24.624   6.935  51.408  1.00  0.00    -0.340 N 
HETATM   23  H3  UNL     1      24.941   7.125  52.383  1.00  0.00     0.167 HD
BRANCH  22  24
HETATM   24  C4  UNL     1      25.590   6.894  50.365  1.00  0.00     0.035 A 
HETATM   25  C3  UNL     1      25.799   5.734  49.643  1.00  0.00     0.032 A 
HETATM   26  C2  UNL     1      26.745   5.711  48.633  1.00  0.00     0.046 A 
HETATM   27  C1  UNL     1      27.472   6.849  48.358  1.00  0.00     0.138 A 
HETATM   28  F1  UNL     1      28.419   6.862  47.363  1.00  0.00    -0.204 F 
HETATM   29  C20 UNL     1      27.299   8.021  49.049  1.00  0.00     0.074 A 
HETATM   30  C19 UNL     1      26.353   7.996  50.036  1.00  0.00     0.056 A 
HETATM   31 CL1  UNL     1      28.175   9.510  48.767  1.00  0.00    -0.081 Cl
ENDBRANCH  22  24
ENDBRANCH   1  22
TORSDOF 2
ENDMDL
MODEL 9
REMARK VINA RESULT:      -9.2      4.021      6.496
REMARK  2 active torsions:
REMARK  status: ('A' for Active; 'I' for Inactive)
REMARK    1  A    between atoms: C4_5  and  N1_6 
REMARK    2  A    between atoms: N1_6  and  C5_7 
ROOT
HETATM    1  C5  UNL     1      25.604   2.582  50.969  1.00  0.00     0.142 A 
HETATM    2  N2  UNL     1      26.491   2.675  51.964  1.00  0.00    -0.224 NA
HETATM    3  C6  UNL     1      26.174   2.309  53.204  1.00  0.00     0.236 A 
HETATM    4  N3  UNL     1      24.915   1.845  53.383  1.00  0.00    -0.241 NA
HETATM    5  C7  UNL     1      24.044   1.762  52.370  1.00  0.00     0.070 A 
HETATM    6  C8  UNL     1      24.318   2.124  51.081  1.00  0.00     0.039 A 
HETATM    7  C9  UNL     1      23.415   2.075  49.955  1.00  0.00     0.025 C 
HETATM    8  C10 UNL     1      22.210   2.562  49.732  1.00  0.00    -0.022 C 
HETATM    9  C11 UNL     1      21.812   2.154  48.333  1.00  0.00     0.206 C 
HETATM   10  O1  UNL     1      20.493   2.476  48.076  1.00  0.00    -0.358 OA
HETATM   11  C12 UNL     1      20.263   3.850  48.123  1.00  0.00     0.438 C 
HETATM   12  N4  UNL     1      20.807   4.430  49.340  1.00  0.00     0.115 N 
HETATM   13  C13 UNL     1      21.074   3.344  50.276  1.00  0.00     0.256 C 
HETATM   14  C14 UNL     1      19.835   2.538  50.447  1.00  0.00     0.069 C 
HETATM   15  C15 UNL     1      19.245   2.851  51.831  1.00  0.00     0.204 C 
HETATM   16  O2  UNL     1      20.185   2.636  52.841  1.00  0.00    -0.278 OA
HETATM   17  N5  UNL     1      20.793   1.531  53.226  1.00  0.00    -0.258 N 
HETATM   18  C16 UNL     1      20.486   0.490  53.793  1.00  0.00     0.122 A 
HETATM   19  C17 UNL     1      21.908   0.464  53.471  1.00  0.00     0.179 A 
HETATM   20  C18 UNL     1      22.806   1.229  52.907  1.00  0.00     0.038 C 
HETATM   21  H10 UNL     1      20.133   5.131  49.718  1.00  0.00     0.319 HD
ENDROOT
BRANCH   1  22
HETATM   22  N1  UNL     1      26.000   2.997  49.641  1.00  0.00    -0.340 N 
HETATM   23  H3  UNL     1      26.118   2.351  48.830  1.00  0.00     0.167 HD
BRANCH  22  24
HETATM   24  C4  UNL     1      26.241   4.386  49.457  1.00  0.00     0.035 A 
HETATM   25  C3  UNL     1      27.331   4.822  48.727  1.00  0.00     0.032 A 
HETATM   26  C2  UNL     1      27.551   6.179  48.560  1.00  0.00     0.046 A 
HETATM   27  C1  UNL     1      26.677   7.083  49.125  1.00  0.00     0.138 A 
HETATM   28  F1  UNL     1      26.865   8.436  48.980  1.00  0.00    -0.204 F 
HETATM   29  C20 UNL     1      25.584   6.695  49.857  1.00  0.00     0.074 A 
HETATM   30  C19 UNL     1      25.407   5.346  49.994  1.00  0.00     0.056 A 
HETATM   31 CL1  UNL     1      24.425   7.772  50.607  1.00  0.00    -0.081 Cl
ENDBRANCH  22  24
ENDBRANCH   1  22
TORSDOF 2
ENDMDL
