MODEL 1
REMARK VINA RESULT:      -7.4      0.000      0.000
REMARK  7 active torsions:
REMARK  status: ('A' for Active; 'I' for Inactive)
REMARK    1  A    between atoms: O1_1  and  C1_2 
REMARK    2  A    between atoms: N1_6  and  C5_7 
REMARK    3  A    between atoms: C5_7  and  C6_8 
REMARK    4  A    between atoms: C7_9  and  C8_10 
REMARK    5  A    between atoms: C8_10  and  C9_11 
REMARK    6  A    between atoms: C11_14  and  C12_15 
REMARK    7  A    between atoms: C14_19  and  O3_20 
ROOT
HETATM    1  C5  UNL     1      26.421   1.945  52.607  1.00  0.00     0.151 C 
ENDROOT
BRANCH   1   2
HETATM    2  N1  UNL     1      27.011   0.730  53.185  1.00  0.00    -0.360 N 
HETATM    3  C4  UNL     1      28.418   0.944  53.416  1.00  0.00     0.088 C 
HETATM    4  C3  UNL     1      29.451   0.098  53.563  1.00  0.00     0.019 C 
HETATM    5  C2  UNL     1      29.403  -1.362  53.523  1.00  0.00     0.033 C 
HETATM    6  C1  UNL     1      28.357  -2.091  53.165  1.00  0.00     0.047 C 
HETATM    7  C15 UNL     1      26.999  -1.688  52.724  1.00  0.00     0.117 C 
HETATM    8  C14 UNL     1      26.428  -0.554  53.527  1.00  0.00     0.225 C 
BRANCH   6   9
HETATM    9  O1  UNL     1      28.630  -3.464  53.233  1.00  0.00    -0.365 OA
HETATM   10  H1  UNL     1      29.000  -3.979  52.446  1.00  0.00     0.217 HD
ENDBRANCH   6   9
BRANCH   8  11
HETATM   11  O3  UNL     1      25.064  -0.480  53.177  1.00  0.00    -0.376 OA
HETATM   12  H17 UNL     1      24.714  -1.350  52.878  1.00  0.00     0.212 HD
ENDBRANCH   8  11
ENDBRANCH   1   2
BRANCH   1  13
HETATM   13  C6  UNL     1      26.723   1.945  51.172  1.00  0.00    -0.011 C 
HETATM   14  C7  UNL     1      26.402   2.823  50.252  1.00  0.00    -0.023 C 
BRANCH  14  15
HETATM   15  C8  UNL     1      25.644   4.091  50.328  1.00  0.00     0.086 C 
BRANCH  15  16
HETATM   16  C9  UNL     1      26.196   5.150  49.422  1.00  0.00     0.035 A 
HETATM   17  C10 UNL     1      25.496   6.119  48.816  1.00  0.00     0.167 A 
HETATM   18  O2  UNL     1      26.054   7.072  47.989  1.00  0.00    -0.321 OA
HETATM   19  C11 UNL     1      27.429   7.051  47.748  1.00  0.00     0.096 A 
HETATM   20  C13 UNL     1      28.151   6.093  48.340  1.00  0.00     0.123 A 
HETATM   21  N2  UNL     1      27.601   5.096  49.200  1.00  0.00    -0.365 N 
HETATM   22  H15 UNL     1      28.254   4.381  49.620  1.00  0.00     0.165 HD
BRANCH  19  23
HETATM   23  C12 UNL     1      28.053   8.069  46.858  1.00  0.00     0.288 C 
HETATM   24  F1  UNL     1      29.133   7.464  46.241  1.00  0.00    -0.248 F 
ENDBRANCH  19  23
ENDBRANCH  15  16
ENDBRANCH  14  15
ENDBRANCH   1  13
TORSDOF 7
ENDMDL
MODEL 2
REMARK VINA RESULT:      -7.4      3.825      7.337
REMARK  7 active torsions:
REMARK  status: ('A' for Active; 'I' for Inactive)
REMARK    1  A    between atoms: O1_1  and  C1_2 
REMARK    2  A    between atoms: N1_6  and  C5_7 
REMARK    3  A    between atoms: C5_7  and  C6_8 
REMARK    4  A    between atoms: C7_9  and  C8_10 
REMARK    5  A    between atoms: C8_10  and  C9_11 
REMARK    6  A    between atoms: C11_14  and  C12_15 
REMARK    7  A    between atoms: C14_19  and  O3_20 
ROOT
HETATM    1  C5  UNL     1      22.477   1.787  52.768  1.00  0.00     0.151 C 
ENDROOT
BRANCH   1   2
HETATM    2  N1  UNL     1      23.434   2.631  52.040  1.00  0.00    -0.360 N 
HETATM    3  C4  UNL     1      22.977   2.814  50.685  1.00  0.00     0.088 C 
HETATM    4  C3  UNL     1      23.614   3.156  49.552  1.00  0.00     0.019 C 
HETATM    5  C2  UNL     1      25.036   3.452  49.399  1.00  0.00     0.033 C 
HETATM    6  C1  UNL     1      25.968   3.266  50.322  1.00  0.00     0.047 C 
HETATM    7  C15 UNL     1      25.870   2.737  51.705  1.00  0.00     0.117 C 
HETATM    8  C14 UNL     1      24.676   3.256  52.455  1.00  0.00     0.225 C 
BRANCH   6   9
HETATM    9  O1  UNL     1      27.237   3.648  49.867  1.00  0.00    -0.365 OA
HETATM   10  H1  UNL     1      28.019   3.008  49.853  1.00  0.00     0.217 HD
ENDBRANCH   6   9
BRANCH   8  11
HETATM   11  O3  UNL     1      24.876   2.891  53.802  1.00  0.00    -0.376 OA
HETATM   12  H17 UNL     1      25.318   2.015  53.883  1.00  0.00     0.212 HD
ENDBRANCH   8  11
ENDBRANCH   1   2
BRANCH   1  13
HETATM   13  C6  UNL     1      22.708   0.399  52.356  1.00  0.00    -0.011 C 
HETATM   14  C7  UNL     1      23.408  -0.541  52.946  1.00  0.00    -0.023 C 
BRANCH  14  15
HETATM   15  C8  UNL     1      24.192  -0.538  54.200  1.00  0.00     0.086 C 
BRANCH  15  16
HETATM   16  C9  UNL     1      25.671  -0.498  53.958  1.00  0.00     0.035 A 
HETATM   17  C10 UNL     1      26.324  -1.084  52.944  1.00  0.00     0.167 A 
HETATM   18  O2  UNL     1      27.691  -1.016  52.766  1.00  0.00    -0.321 OA
HETATM   19  C11 UNL     1      28.468  -0.303  53.682  1.00  0.00     0.096 A 
HETATM   20  C13 UNL     1      27.839   0.290  54.703  1.00  0.00     0.123 A 
HETATM   21  N2  UNL     1      26.429   0.237  54.911  1.00  0.00    -0.365 N 
HETATM   22  H15 UNL     1      26.027   0.739  55.748  1.00  0.00     0.165 HD
BRANCH  19  23
HETATM   23  C12 UNL     1      29.944  -0.217  53.510  1.00  0.00     0.288 C 
HETATM   24  F1  UNL     1      30.489  -1.344  54.098  1.00  0.00    -0.248 F 
ENDBRANCH  19  23
ENDBRANCH  15  16
ENDBRANCH  14  15
ENDBRANCH   1  13
TORSDOF 7
ENDMDL
MODEL 3
REMARK VINA RESULT:      -7.3      4.479      5.686
REMARK  7 active torsions:
REMARK  status: ('A' for Active; 'I' for Inactive)
REMARK    1  A    between atoms: O1_1  and  C1_2 
REMARK    2  A    between atoms: N1_6  and  C5_7 
REMARK    3  A    between atoms: C5_7  and  C6_8 
REMARK    4  A    between atoms: C7_9  and  C8_10 
REMARK    5  A    between atoms: C8_10  and  C9_11 
REMARK    6  A    between atoms: C11_14  and  C12_15 
REMARK    7  A    between atoms: C14_19  and  O3_20 
ROOT
HETATM    1  C5  UNL     1      26.926   2.100  52.904  1.00  0.00     0.151 C 
ENDROOT
BRANCH   1   2
HETATM    2  N1  UNL     1      27.385   0.784  53.369  1.00  0.00    -0.360 N 
HETATM    3  C4  UNL     1      28.815   0.815  53.557  1.00  0.00     0.088 C 
HETATM    4  C3  UNL     1      29.744  -0.155  53.600  1.00  0.00     0.019 C 
HETATM    5  C2  UNL     1      29.521  -1.592  53.459  1.00  0.00     0.033 C 
HETATM    6  C1  UNL     1      28.385  -2.165  53.094  1.00  0.00     0.047 C 
HETATM    7  C15 UNL     1      27.071  -1.574  52.739  1.00  0.00     0.117 C 
HETATM    8  C14 UNL     1      26.665  -0.445  53.644  1.00  0.00     0.225 C 
BRANCH   6   9
HETATM    9  O1  UNL     1      28.495  -3.562  53.052  1.00  0.00    -0.365 OA
HETATM   10  H1  UNL     1      27.686  -4.166  53.073  1.00  0.00     0.217 HD
ENDBRANCH   6   9
BRANCH   8  11
HETATM   11  O3  UNL     1      25.309  -0.187  53.357  1.00  0.00    -0.376 OA
HETATM   12  H17 UNL     1      24.765  -1.008  53.387  1.00  0.00     0.212 HD
ENDBRANCH   8  11
ENDBRANCH   1   2
BRANCH   1  13
HETATM   13  C6  UNL     1      26.824   2.042  51.443  1.00  0.00    -0.011 C 
HETATM   14  C7  UNL     1      25.902   2.537  50.651  1.00  0.00    -0.023 C 
BRANCH  14  15
HETATM   15  C8  UNL     1      24.674   3.308  50.939  1.00  0.00     0.086 C 
BRANCH  15  16
HETATM   16  C9  UNL     1      23.499   2.429  51.249  1.00  0.00     0.035 A 
HETATM   17  C10 UNL     1      22.636   1.917  50.360  1.00  0.00     0.167 A 
HETATM   18  O2  UNL     1      21.568   1.112  50.699  1.00  0.00    -0.321 OA
HETATM   19  C11 UNL     1      21.346   0.794  52.040  1.00  0.00     0.096 A 
HETATM   20  C13 UNL     1      22.194   1.293  52.947  1.00  0.00     0.123 A 
HETATM   21  N2  UNL     1      23.306   2.127  52.625  1.00  0.00    -0.365 N 
HETATM   22  H15 UNL     1      23.917   2.472  53.413  1.00  0.00     0.165 HD
BRANCH  19  23
HETATM   23  C12 UNL     1      20.200  -0.074  52.429  1.00  0.00     0.288 C 
HETATM   24  F1  UNL     1      20.670  -0.971  53.371  1.00  0.00    -0.248 F 
ENDBRANCH  19  23
ENDBRANCH  15  16
ENDBRANCH  14  15
ENDBRANCH   1  13
TORSDOF 7
ENDMDL
MODEL 4
REMARK VINA RESULT:      -7.2      3.249      3.456
REMARK  7 active torsions:
REMARK  status: ('A' for Active; 'I' for Inactive)
REMARK    1  A    between atoms: O1_1  and  C1_2 
REMARK    2  A    between atoms: N1_6  and  C5_7 
REMARK    3  A    between atoms: C5_7  and  C6_8 
REMARK    4  A    between atoms: C7_9  and  C8_10 
REMARK    5  A    between atoms: C8_10  and  C9_11 
REMARK    6  A    between atoms: C11_14  and  C12_15 
REMARK    7  A    between atoms: C14_19  and  O3_20 
ROOT
HETATM    1  C5  UNL     1      26.840   2.107  53.393  1.00  0.00     0.151 C 
ENDROOT
BRANCH   1   2
HETATM    2  N1  UNL     1      27.323   0.751  53.687  1.00  0.00    -0.360 N 
HETATM    3  C4  UNL     1      28.758   0.775  53.826  1.00  0.00     0.088 C 
HETATM    4  C3  UNL     1      29.694  -0.184  53.725  1.00  0.00     0.019 C 
HETATM    5  C2  UNL     1      29.476  -1.598  53.427  1.00  0.00     0.033 C 
HETATM    6  C1  UNL     1      28.331  -2.137  53.038  1.00  0.00     0.047 C 
HETATM    7  C15 UNL     1      27.001  -1.522  52.800  1.00  0.00     0.117 C 
HETATM    8  C14 UNL     1      26.621  -0.509  53.843  1.00  0.00     0.225 C 
BRANCH   6   9
HETATM    9  O1  UNL     1      28.447  -3.518  52.832  1.00  0.00    -0.365 OA
HETATM   10  H1  UNL     1      27.674  -4.081  52.508  1.00  0.00     0.217 HD
ENDBRANCH   6   9
BRANCH   8  11
HETATM   11  O3  UNL     1      25.254  -0.234  53.635  1.00  0.00    -0.376 OA
HETATM   12  H17 UNL     1      25.106   0.702  53.364  1.00  0.00     0.212 HD
ENDBRANCH   8  11
ENDBRANCH   1   2
BRANCH   1  13
HETATM   13  C6  UNL     1      26.959   2.315  51.946  1.00  0.00    -0.011 C 
HETATM   14  C7  UNL     1      26.016   2.438  51.042  1.00  0.00    -0.023 C 
BRANCH  14  15
HETATM   15  C8  UNL     1      24.542   2.413  51.151  1.00  0.00     0.086 C 
BRANCH  15  16
HETATM   16  C9  UNL     1      23.922   3.760  50.928  1.00  0.00     0.035 A 
HETATM   17  C10 UNL     1      22.660   3.998  50.544  1.00  0.00     0.167 A 
HETATM   18  O2  UNL     1      22.138   5.261  50.353  1.00  0.00    -0.321 OA
HETATM   19  C11 UNL     1      22.949   6.378  50.563  1.00  0.00     0.096 A 
HETATM   20  C13 UNL     1      24.213   6.167  50.947  1.00  0.00     0.123 A 
HETATM   21  N2  UNL     1      24.779   4.873  51.152  1.00  0.00    -0.365 N 
HETATM   22  H15 UNL     1      25.788   4.811  51.455  1.00  0.00     0.165 HD
BRANCH  19  23
HETATM   23  C12 UNL     1      22.407   7.750  50.362  1.00  0.00     0.288 C 
HETATM   24  F1  UNL     1      21.171   7.795  50.982  1.00  0.00    -0.248 F 
ENDBRANCH  19  23
ENDBRANCH  15  16
ENDBRANCH  14  15
ENDBRANCH   1  13
TORSDOF 7
ENDMDL
MODEL 5
REMARK VINA RESULT:      -7.1      2.160      2.867
REMARK  7 active torsions:
REMARK  status: ('A' for Active; 'I' for Inactive)
REMARK    1  A    between atoms: O1_1  and  C1_2 
REMARK    2  A    between atoms: N1_6  and  C5_7 
REMARK    3  A    between atoms: C5_7  and  C6_8 
REMARK    4  A    between atoms: C7_9  and  C8_10 
REMARK    5  A    between atoms: C8_10  and  C9_11 
REMARK    6  A    between atoms: C11_14  and  C12_15 
REMARK    7  A    between atoms: C14_19  and  O3_20 
ROOT
HETATM    1  C5  UNL     1      25.549   2.084  53.749  1.00  0.00     0.151 C 
ENDROOT
BRANCH   1   2
HETATM    2  N1  UNL     1      26.716   1.284  53.352  1.00  0.00    -0.360 N 
HETATM    3  C4  UNL     1      26.270   0.026  52.805  1.00  0.00     0.088 C 
HETATM    4  C3  UNL     1      26.879  -1.161  52.650  1.00  0.00     0.019 C 
HETATM    5  C2  UNL     1      28.251  -1.500  53.023  1.00  0.00     0.033 C 
HETATM    6  C1  UNL     1      29.068  -0.739  53.734  1.00  0.00     0.047 C 
HETATM    7  C15 UNL     1      28.868   0.604  54.334  1.00  0.00     0.117 C 
HETATM    8  C14 UNL     1      28.139   1.554  53.426  1.00  0.00     0.225 C 
BRANCH   6   9
HETATM    9  O1  UNL     1      30.317  -1.348  53.922  1.00  0.00    -0.365 OA
HETATM   10  H1  UNL     1      31.185  -0.858  53.757  1.00  0.00     0.217 HD
ENDBRANCH   6   9
BRANCH   8  11
HETATM   11  O3  UNL     1      28.274   2.829  54.013  1.00  0.00    -0.376 OA
HETATM   12  H17 UNL     1      29.090   3.289  53.709  1.00  0.00     0.212 HD
ENDBRANCH   8  11
ENDBRANCH   1   2
BRANCH   1  13
HETATM   13  C6  UNL     1      24.415   1.650  52.927  1.00  0.00    -0.011 C 
HETATM   14  C7  UNL     1      23.510   2.370  52.307  1.00  0.00    -0.023 C 
BRANCH  14  15
HETATM   15  C8  UNL     1      23.315   3.833  52.215  1.00  0.00     0.086 C 
BRANCH  15  16
HETATM   16  C9  UNL     1      24.189   4.469  51.176  1.00  0.00     0.035 A 
HETATM   17  C10 UNL     1      24.721   3.859  50.107  1.00  0.00     0.167 A 
HETATM   18  O2  UNL     1      25.522   4.492  49.178  1.00  0.00    -0.321 OA
HETATM   19  C11 UNL     1      25.813   5.849  49.333  1.00  0.00     0.096 A 
HETATM   20  C13 UNL     1      25.294   6.480  50.392  1.00  0.00     0.123 A 
HETATM   21  N2  UNL     1      24.464   5.851  51.368  1.00  0.00    -0.365 N 
HETATM   22  H15 UNL     1      24.103   6.435  52.169  1.00  0.00     0.165 HD
BRANCH  19  23
HETATM   23  C12 UNL     1      26.674   6.552  48.343  1.00  0.00     0.288 C 
HETATM   24  F1  UNL     1      27.754   5.728  48.084  1.00  0.00    -0.248 F 
ENDBRANCH  19  23
ENDBRANCH  15  16
ENDBRANCH  14  15
ENDBRANCH   1  13
TORSDOF 7
ENDMDL
MODEL 6
REMARK VINA RESULT:      -6.9      3.755      4.804
REMARK  7 active torsions:
REMARK  status: ('A' for Active; 'I' for Inactive)
REMARK    1  A    between atoms: O1_1  and  C1_2 
REMARK    2  A    between atoms: N1_6  and  C5_7 
REMARK    3  A    between atoms: C5_7  and  C6_8 
REMARK    4  A    between atoms: C7_9  and  C8_10 
REMARK    5  A    between atoms: C8_10  and  C9_11 
REMARK    6  A    between atoms: C11_14  and  C12_15 
REMARK    7  A    between atoms: C14_19  and  O3_20 
ROOT
HETATM    1  C5  UNL     1      25.963   0.135  52.215  1.00  0.00     0.151 C 
ENDROOT
BRANCH   1   2
HETATM    2  N1  UNL     1      24.853   0.075  53.176  1.00  0.00    -0.360 N 
HETATM    3  C4  UNL     1      25.307  -0.554  54.392  1.00  0.00     0.088 C 
HETATM    4  C3  UNL     1      24.654  -1.171  55.391  1.00  0.00     0.019 C 
HETATM    5  C2  UNL     1      23.211  -1.371  55.506  1.00  0.00     0.033 C 
HETATM    6  C1  UNL     1      22.320  -1.128  54.558  1.00  0.00     0.047 C 
HETATM    7  C15 UNL     1      22.489  -0.610  53.178  1.00  0.00     0.117 C 
HETATM    8  C14 UNL     1      23.475   0.520  53.086  1.00  0.00     0.225 C 
BRANCH   6   9
HETATM    9  O1  UNL     1      21.016  -1.424  54.979  1.00  0.00    -0.365 OA
HETATM   10  H1  UNL     1      20.650  -2.365  54.978  1.00  0.00     0.217 HD
ENDBRANCH   6   9
BRANCH   8  11
HETATM   11  O3  UNL     1      23.316   1.069  51.797  1.00  0.00    -0.376 OA
HETATM   12  H17 UNL     1      23.228   2.049  51.824  1.00  0.00     0.212 HD
ENDBRANCH   8  11
ENDBRANCH   1   2
BRANCH   1  13
HETATM   13  C6  UNL     1      26.741   1.342  52.513  1.00  0.00    -0.011 C 
HETATM   14  C7  UNL     1      26.925   2.416  51.782  1.00  0.00    -0.023 C 
BRANCH  14  15
HETATM   15  C8  UNL     1      26.431   2.785  50.438  1.00  0.00     0.086 C 
BRANCH  15  16
HETATM   16  C9  UNL     1      25.205   3.646  50.490  1.00  0.00     0.035 A 
HETATM   17  C10 UNL     1      24.546   4.152  49.437  1.00  0.00     0.167 A 
HETATM   18  O2  UNL     1      23.419   4.941  49.540  1.00  0.00    -0.321 OA
HETATM   19  C11 UNL     1      22.910   5.250  50.803  1.00  0.00     0.096 A 
HETATM   20  C13 UNL     1      23.549   4.758  51.870  1.00  0.00     0.123 A 
HETATM   21  N2  UNL     1      24.715   3.939  51.794  1.00  0.00    -0.365 N 
HETATM   22  H15 UNL     1      25.148   3.600  52.694  1.00  0.00     0.165 HD
BRANCH  19  23
HETATM   23  C12 UNL     1      21.695   6.100  50.938  1.00  0.00     0.288 C 
HETATM   24  F1  UNL     1      22.126   7.403  51.113  1.00  0.00    -0.248 F 
ENDBRANCH  19  23
ENDBRANCH  15  16
ENDBRANCH  14  15
ENDBRANCH   1  13
TORSDOF 7
ENDMDL
MODEL 7
REMARK VINA RESULT:      -6.7      2.921      7.713
REMARK  7 active torsions:
REMARK  status: ('A' for Active; 'I' for Inactive)
REMARK    1  A    between atoms: O1_1  and  C1_2 
REMARK    2  A    between atoms: N1_6  and  C5_7 
REMARK    3  A    between atoms: C5_7  and  C6_8 
REMARK    4  A    between atoms: C7_9  and  C8_10 
REMARK    5  A    between atoms: C8_10  and  C9_11 
REMARK    6  A    between atoms: C11_14  and  C12_15 
REMARK    7  A    between atoms: C14_19  and  O3_20 
ROOT
HETATM    1  C5  UNL     1      23.380   3.528  50.770  1.00  0.00     0.151 C 
ENDROOT
BRANCH   1   2
HETATM    2  N1  UNL     1      24.314   4.082  49.780  1.00  0.00    -0.360 N 
HETATM    3  C4  UNL     1      25.538   3.319  49.800  1.00  0.00     0.088 C 
HETATM    4  C3  UNL     1      26.789   3.603  49.400  1.00  0.00     0.019 C 
HETATM    5  C2  UNL     1      27.256   4.850  48.796  1.00  0.00     0.033 C 
HETATM    6  C1  UNL     1      26.559   5.971  48.701  1.00  0.00     0.047 C 
HETATM    7  C15 UNL     1      25.180   6.295  49.143  1.00  0.00     0.117 C 
HETATM    8  C14 UNL     1      24.194   5.197  48.861  1.00  0.00     0.225 C 
BRANCH   6   9
HETATM    9  O1  UNL     1      27.289   6.987  48.071  1.00  0.00    -0.365 OA
HETATM   10  H1  UNL     1      27.756   6.846  47.186  1.00  0.00     0.217 HD
ENDBRANCH   6   9
BRANCH   8  11
HETATM   11  O3  UNL     1      22.918   5.758  49.077  1.00  0.00    -0.376 OA
HETATM   12  H17 UNL     1      22.789   6.586  48.560  1.00  0.00     0.212 HD
ENDBRANCH   8  11
ENDBRANCH   1   2
BRANCH   1  13
HETATM   13  C6  UNL     1      23.945   3.776  52.100  1.00  0.00    -0.011 C 
HETATM   14  C7  UNL     1      24.236   2.923  53.054  1.00  0.00    -0.023 C 
BRANCH  14  15
HETATM   15  C8  UNL     1      24.104   1.453  53.129  1.00  0.00     0.086 C 
BRANCH  15  16
HETATM   16  C9  UNL     1      25.426   0.760  53.278  1.00  0.00     0.035 A 
HETATM   17  C10 UNL     1      25.631  -0.448  53.821  1.00  0.00     0.167 A 
HETATM   18  O2  UNL     1      26.871  -1.042  53.935  1.00  0.00    -0.321 OA
HETATM   19  C11 UNL     1      28.001  -0.368  53.465  1.00  0.00     0.096 A 
HETATM   20  C13 UNL     1      27.822   0.840  52.919  1.00  0.00     0.123 A 
HETATM   21  N2  UNL     1      26.553   1.477  52.788  1.00  0.00    -0.365 N 
HETATM   22  H15 UNL     1      26.516   2.433  52.342  1.00  0.00     0.165 HD
BRANCH  19  23
HETATM   23  C12 UNL     1      29.349  -0.989  53.578  1.00  0.00     0.288 C 
HETATM   24  F1  UNL     1      30.274   0.039  53.558  1.00  0.00    -0.248 F 
ENDBRANCH  19  23
ENDBRANCH  15  16
ENDBRANCH  14  15
ENDBRANCH   1  13
TORSDOF 7
ENDMDL
MODEL 8
REMARK VINA RESULT:      -6.7      3.457      8.107
REMARK  7 active torsions:
REMARK  status: ('A' for Active; 'I' for Inactive)
REMARK    1  A    between atoms: O1_1  and  C1_2 
REMARK    2  A    between atoms: N1_6  and  C5_7 
REMARK    3  A    between atoms: C5_7  and  C6_8 
REMARK    4  A    between atoms: C7_9  and  C8_10 
REMARK    5  A    between atoms: C8_10  and  C9_11 
REMARK    6  A    between atoms: C11_14  and  C12_15 
REMARK    7  A    between atoms: C14_19  and  O3_20 
ROOT
HETATM    1  C5  UNL     1      24.291   2.613  52.462  1.00  0.00     0.151 C 
ENDROOT
BRANCH   1   2
HETATM    2  N1  UNL     1      23.812   3.656  51.545  1.00  0.00    -0.360 N 
HETATM    3  C4  UNL     1      23.598   3.082  50.239  1.00  0.00     0.088 C 
HETATM    4  C3  UNL     1      23.533   3.625  49.011  1.00  0.00     0.019 C 
HETATM    5  C2  UNL     1      23.672   5.038  48.667  1.00  0.00     0.033 C 
HETATM    6  C1  UNL     1      24.056   6.000  49.491  1.00  0.00     0.047 C 
HETATM    7  C15 UNL     1      24.437   5.954  50.925  1.00  0.00     0.117 C 
HETATM    8  C14 UNL     1      23.545   5.067  51.747  1.00  0.00     0.225 C 
BRANCH   6   9
HETATM    9  O1  UNL     1      24.089   7.249  48.857  1.00  0.00    -0.365 OA
HETATM   10  H1  UNL     1      24.201   7.342  47.857  1.00  0.00     0.217 HD
ENDBRANCH   6   9
BRANCH   8  11
HETATM   11  O3  UNL     1      23.859   5.345  53.093  1.00  0.00    -0.376 OA
HETATM   12  H17 UNL     1      24.144   4.536  53.578  1.00  0.00     0.212 HD
ENDBRANCH   8  11
ENDBRANCH   1   2
BRANCH   1  13
HETATM   13  C6  UNL     1      23.546   1.385  52.165  1.00  0.00    -0.011 C 
HETATM   14  C7  UNL     1      23.512   0.251  52.822  1.00  0.00    -0.023 C 
BRANCH  14  15
HETATM   15  C8  UNL     1      24.191  -0.186  54.061  1.00  0.00     0.086 C 
BRANCH  15  16
HETATM   16  C9  UNL     1      25.656  -0.438  53.858  1.00  0.00     0.035 A 
HETATM   17  C10 UNL     1      26.201  -1.246  52.939  1.00  0.00     0.167 A 
HETATM   18  O2  UNL     1      27.559  -1.444  52.794  1.00  0.00    -0.321 OA
HETATM   19  C11 UNL     1      28.444  -0.775  53.643  1.00  0.00     0.096 A 
HETATM   20  C13 UNL     1      27.924   0.038  54.570  1.00  0.00     0.123 A 
HETATM   21  N2  UNL     1      26.526   0.261  54.741  1.00  0.00    -0.365 N 
HETATM   22  H15 UNL     1      26.214   0.921  55.503  1.00  0.00     0.165 HD
BRANCH  19  23
HETATM   23  C12 UNL     1      29.914  -0.973  53.506  1.00  0.00     0.288 C 
HETATM   24  F1  UNL     1      30.495   0.282  53.502  1.00  0.00    -0.248 F 
ENDBRANCH  19  23
ENDBRANCH  15  16
ENDBRANCH  14  15
ENDBRANCH   1  13
TORSDOF 7
ENDMDL
MODEL 9
REMARK VINA RESULT:      -6.6      4.922      6.818
REMARK  7 active torsions:
REMARK  status: ('A' for Active; 'I' for Inactive)
REMARK    1  A    between atoms: O1_1  and  C1_2 
REMARK    2  A    between atoms: N1_6  and  C5_7 
REMARK    3  A    between atoms: C5_7  and  C6_8 
REMARK    4  A    between atoms: C7_9  and  C8_10 
REMARK    5  A    between atoms: C8_10  and  C9_11 
REMARK    6  A    between atoms: C11_14  and  C12_15 
REMARK    7  A    between atoms: C14_19  and  O3_20 
ROOT
HETATM    1  C5  UNL     1      24.748   3.374  51.385  1.00  0.00     0.151 C 
ENDROOT
BRANCH   1   2
HETATM    2  N1  UNL     1      25.385   2.182  51.963  1.00  0.00    -0.360 N 
HETATM    3  C4  UNL     1      24.367   1.241  52.358  1.00  0.00     0.088 C 
HETATM    4  C3  UNL     1      24.368   0.219  53.230  1.00  0.00     0.019 C 
HETATM    5  C2  UNL     1      25.486  -0.230  54.057  1.00  0.00     0.033 C 
HETATM    6  C1  UNL     1      26.637   0.407  54.210  1.00  0.00     0.047 C 
HETATM    7  C15 UNL     1      27.124   1.683  53.631  1.00  0.00     0.117 C 
HETATM    8  C14 UNL     1      26.779   1.844  52.178  1.00  0.00     0.225 C 
BRANCH   6   9
HETATM    9  O1  UNL     1      27.504  -0.282  55.069  1.00  0.00    -0.365 OA
HETATM   10  H1  UNL     1      27.419  -0.230  56.075  1.00  0.00     0.217 HD
ENDBRANCH   6   9
BRANCH   8  11
HETATM   11  O3  UNL     1      27.533   2.944  51.720  1.00  0.00    -0.376 OA
HETATM   12  H17 UNL     1      27.684   3.607  52.433  1.00  0.00     0.212 HD
ENDBRANCH   8  11
ENDBRANCH   1   2
BRANCH   1  13
HETATM   13  C6  UNL     1      24.463   3.084  49.976  1.00  0.00    -0.011 C 
HETATM   14  C7  UNL     1      23.324   3.139  49.328  1.00  0.00    -0.023 C 
BRANCH  14  15
HETATM   15  C8  UNL     1      21.960   3.501  49.770  1.00  0.00     0.086 C 
BRANCH  15  16
HETATM   16  C9  UNL     1      21.407   2.542  50.781  1.00  0.00     0.035 A 
HETATM   17  C10 UNL     1      20.964   2.852  52.008  1.00  0.00     0.167 A 
HETATM   18  O2  UNL     1      20.463   1.928  52.903  1.00  0.00    -0.321 OA
HETATM   19  C11 UNL     1      20.401   0.582  52.537  1.00  0.00     0.096 A 
HETATM   20  C13 UNL     1      20.837   0.247  51.318  1.00  0.00     0.123 A 
HETATM   21  N2  UNL     1      21.359   1.180  50.373  1.00  0.00    -0.365 N 
HETATM   22  H15 UNL     1      21.678   0.817  49.435  1.00  0.00     0.165 HD
BRANCH  19  23
HETATM   23  C12 UNL     1      19.864  -0.432  53.486  1.00  0.00     0.288 C 
HETATM   24  F1  UNL     1      20.916  -1.259  53.838  1.00  0.00    -0.248 F 
ENDBRANCH  19  23
ENDBRANCH  15  16
ENDBRANCH  14  15
ENDBRANCH   1  13
TORSDOF 7
ENDMDL
