MODEL 1
REMARK VINA RESULT:      -8.7      0.000      0.000
REMARK  5 active torsions:
REMARK  status: ('A' for Active; 'I' for Inactive)
REMARK    1  A    between atoms: C6_8  and  C7_9 
REMARK    2  A    between atoms: C7_9  and  C8_10 
REMARK    3  A    between atoms: C8_10  and  N1_11 
REMARK    4  A    between atoms: N1_11  and  C9_12 
REMARK    5  A    between atoms: N5_20  and  C14_21 
ROOT
HETATM    1  C9  UNL     1      23.237   3.321  52.146  1.00  0.00     0.140 A 
HETATM    2  N2  UNL     1      22.514   4.473  52.089  1.00  0.00    -0.224 NA
HETATM    3  C10 UNL     1      21.150   4.413  52.066  1.00  0.00     0.237 A 
HETATM    4  N3  UNL     1      20.522   3.215  52.100  1.00  0.00    -0.221 NA
HETATM    5  C11 UNL     1      21.212   2.061  52.155  1.00  0.00     0.168 A 
HETATM    6  C12 UNL     1      22.586   2.106  52.179  1.00  0.00     0.077 A 
HETATM    7  C13 UNL     1      23.105   0.824  52.237  1.00  0.00     0.158 A 
HETATM    8  N4  UNL     1      22.015   0.012  52.246  1.00  0.00    -0.177 NA
HETATM    9  N5  UNL     1      20.908   0.751  52.198  1.00  0.00    -0.215 N 
ENDROOT
BRANCH   1  10
HETATM   10  N1  UNL     1      24.674   3.415  52.169  1.00  0.00    -0.374 N 
HETATM   11  H12 UNL     1      25.131   3.403  53.118  1.00  0.00     0.161 HD
BRANCH  10  12
HETATM   12  C8  UNL     1      25.543   3.523  51.026  1.00  0.00     0.125 C 
BRANCH  12  13
HETATM   13  C7  UNL     1      26.544   2.383  50.962  1.00  0.00     0.049 C 
BRANCH  13  14
HETATM   14  C6  UNL     1      27.177   2.261  52.279  1.00  0.00     0.014 C 
HETATM   15  C5  UNL     1      27.531   1.362  53.167  1.00  0.00     0.101 C 
HETATM   16  C3  UNL     1      27.383  -0.084  53.123  1.00  0.00     0.100 C 
HETATM   17  O2  UNL     1      28.148   1.646  54.379  1.00  0.00    -0.323 OA
HETATM   18  C2  UNL     1      26.865  -0.865  52.206  1.00  0.00     0.009 C 
HETATM   19  O1  UNL     1      27.919  -0.588  54.309  1.00  0.00    -0.323 OA
HETATM   20  C1  UNL     1      26.855  -2.335  52.453  1.00  0.00     0.039 C 
HETATM   21  C4  UNL     1      28.740   0.433  54.868  1.00  0.00     0.352 C 
ENDBRANCH  13  14
ENDBRANCH  12  13
ENDBRANCH  10  12
ENDBRANCH   1  10
BRANCH   9  22
HETATM   22  C14 UNL     1      19.581   0.216  52.194  1.00  0.00     0.061 A 
HETATM   23  C15 UNL     1      18.565   0.781  51.450  1.00  0.00     0.032 A 
HETATM   24  C16 UNL     1      17.325   0.180  51.522  1.00  0.00     0.003 A 
HETATM   25  C17 UNL     1      17.005  -0.931  52.268  1.00  0.00     0.007 A 
HETATM   26  C18 UNL     1      18.053  -1.482  53.013  1.00  0.00    -0.060 A 
HETATM   27  C19 UNL     1      17.795  -2.698  53.858  1.00  0.00     0.048 C 
HETATM   28  C20 UNL     1      19.306  -0.910  52.965  1.00  0.00     0.038 A 
ENDBRANCH   9  22
TORSDOF 5
ENDMDL
MODEL 2
REMARK VINA RESULT:      -8.7      2.554      6.483
REMARK  5 active torsions:
REMARK  status: ('A' for Active; 'I' for Inactive)
REMARK    1  A    between atoms: C6_8  and  C7_9 
REMARK    2  A    between atoms: C7_9  and  C8_10 
REMARK    3  A    between atoms: C8_10  and  N1_11 
REMARK    4  A    between atoms: N1_11  and  C9_12 
REMARK    5  A    between atoms: N5_20  and  C14_21 
ROOT
HETATM    1  C9  UNL     1      21.796   1.738  51.145  1.00  0.00     0.140 A 
HETATM    2  N2  UNL     1      21.586   1.136  49.942  1.00  0.00    -0.224 NA
HETATM    3  C10 UNL     1      22.189   1.637  48.823  1.00  0.00     0.237 A 
HETATM    4  N3  UNL     1      22.990   2.723  48.911  1.00  0.00    -0.221 NA
HETATM    5  C11 UNL     1      23.215   3.338  50.088  1.00  0.00     0.168 A 
HETATM    6  C12 UNL     1      22.615   2.845  51.222  1.00  0.00     0.077 A 
HETATM    7  C13 UNL     1      22.969   3.610  52.321  1.00  0.00     0.158 A 
HETATM    8  N4  UNL     1      23.792   4.568  51.820  1.00  0.00    -0.177 NA
HETATM    9  N5  UNL     1      23.929   4.398  50.507  1.00  0.00    -0.215 N 
ENDROOT
BRANCH   1  10
HETATM   10  N1  UNL     1      21.147   1.189  52.308  1.00  0.00    -0.374 N 
HETATM   11  H12 UNL     1      20.096   1.257  52.336  1.00  0.00     0.161 HD
BRANCH  10  12
HETATM   12  C8  UNL     1      21.793   0.559  53.431  1.00  0.00     0.125 C 
BRANCH  12  13
HETATM   13  C7  UNL     1      22.585  -0.667  53.016  1.00  0.00     0.049 C 
BRANCH  13  14
HETATM   14  C6  UNL     1      23.736  -0.790  53.915  1.00  0.00     0.014 C 
HETATM   15  C5  UNL     1      24.987  -0.411  54.037  1.00  0.00     0.101 C 
HETATM   16  C3  UNL     1      25.790   0.412  53.148  1.00  0.00     0.100 C 
HETATM   17  O2  UNL     1      25.816  -0.748  55.100  1.00  0.00    -0.323 OA
HETATM   18  C2  UNL     1      25.492   0.986  52.007  1.00  0.00     0.009 C 
HETATM   19  O1  UNL     1      27.057   0.525  53.725  1.00  0.00    -0.323 OA
HETATM   20  C1  UNL     1      26.548   1.780  51.318  1.00  0.00     0.039 C 
HETATM   21  C4  UNL     1      26.929   0.159  55.095  1.00  0.00     0.352 C 
ENDBRANCH  13  14
ENDBRANCH  12  13
ENDBRANCH  10  12
ENDBRANCH   1  10
BRANCH   9  22
HETATM   22  C14 UNL     1      24.729   5.233  49.664  1.00  0.00     0.061 A 
HETATM   23  C15 UNL     1      24.220   6.360  49.052  1.00  0.00     0.032 A 
HETATM   24  C16 UNL     1      25.083   7.090  48.261  1.00  0.00     0.003 A 
HETATM   25  C17 UNL     1      26.408   6.799  48.025  1.00  0.00     0.007 A 
HETATM   26  C18 UNL     1      26.896   5.652  48.657  1.00  0.00    -0.060 A 
HETATM   27  C19 UNL     1      28.333   5.257  48.455  1.00  0.00     0.048 C 
HETATM   28  C20 UNL     1      26.064   4.897  49.455  1.00  0.00     0.038 A 
ENDBRANCH   9  22
TORSDOF 5
ENDMDL
MODEL 3
REMARK VINA RESULT:      -8.7      3.210      7.878
REMARK  5 active torsions:
REMARK  status: ('A' for Active; 'I' for Inactive)
REMARK    1  A    between atoms: C6_8  and  C7_9 
REMARK    2  A    between atoms: C7_9  and  C8_10 
REMARK    3  A    between atoms: C8_10  and  N1_11 
REMARK    4  A    between atoms: N1_11  and  C9_12 
REMARK    5  A    between atoms: N5_20  and  C14_21 
ROOT
HETATM    1  C9  UNL     1      21.850  -0.196  54.063  1.00  0.00     0.140 A 
HETATM    2  N2  UNL     1      21.872  -1.041  55.130  1.00  0.00    -0.224 NA
HETATM    3  C10 UNL     1      23.067  -1.510  55.596  1.00  0.00     0.237 A 
HETATM    4  N3  UNL     1      24.223  -1.136  55.000  1.00  0.00    -0.221 NA
HETATM    5  C11 UNL     1      24.231  -0.302  53.943  1.00  0.00     0.168 A 
HETATM    6  C12 UNL     1      23.035   0.178  53.463  1.00  0.00     0.077 A 
HETATM    7  C13 UNL     1      23.255   1.014  52.382  1.00  0.00     0.158 A 
HETATM    8  N4  UNL     1      24.606   1.023  52.226  1.00  0.00    -0.177 NA
HETATM    9  N5  UNL     1      25.168   0.246  53.149  1.00  0.00    -0.215 N 
ENDROOT
BRANCH   1  10
HETATM   10  N1  UNL     1      20.576   0.283  53.593  1.00  0.00    -0.374 N 
HETATM   11  H12 UNL     1      20.354   1.294  53.786  1.00  0.00     0.161 HD
BRANCH  10  12
HETATM   12  C8  UNL     1      19.581  -0.483  52.889  1.00  0.00     0.125 C 
BRANCH  12  13
HETATM   13  C7  UNL     1      19.168   0.180  51.588  1.00  0.00     0.049 C 
BRANCH  13  14
HETATM   14  C6  UNL     1      19.403   1.620  51.718  1.00  0.00     0.014 C 
HETATM   15  C5  UNL     1      20.029   2.614  51.132  1.00  0.00     0.101 C 
HETATM   16  C3  UNL     1      20.850   2.606  49.932  1.00  0.00     0.100 C 
HETATM   17  O2  UNL     1      20.019   3.930  51.579  1.00  0.00    -0.323 OA
HETATM   18  C2  UNL     1      21.181   1.625  49.127  1.00  0.00     0.009 C 
HETATM   19  O1  UNL     1      21.286   3.915  49.724  1.00  0.00    -0.323 OA
HETATM   20  C1  UNL     1      22.053   1.934  47.958  1.00  0.00     0.039 C 
HETATM   21  C4  UNL     1      20.445   4.768  50.494  1.00  0.00     0.352 C 
ENDBRANCH  13  14
ENDBRANCH  12  13
ENDBRANCH  10  12
ENDBRANCH   1  10
BRANCH   9  22
HETATM   22  C14 UNL     1      26.577   0.030  53.272  1.00  0.00     0.061 A 
HETATM   23  C15 UNL     1      27.166  -1.173  52.940  1.00  0.00     0.032 A 
HETATM   24  C16 UNL     1      28.534  -1.267  53.099  1.00  0.00     0.003 A 
HETATM   25  C17 UNL     1      29.367  -0.273  53.559  1.00  0.00     0.007 A 
HETATM   26  C18 UNL     1      28.742   0.934  53.889  1.00  0.00    -0.060 A 
HETATM   27  C19 UNL     1      29.575   2.076  54.401  1.00  0.00     0.048 C 
HETATM   28  C20 UNL     1      27.378   1.066  53.743  1.00  0.00     0.038 A 
ENDBRANCH   9  22
TORSDOF 5
ENDMDL
MODEL 4
REMARK VINA RESULT:      -8.7      3.142      7.611
REMARK  5 active torsions:
REMARK  status: ('A' for Active; 'I' for Inactive)
REMARK    1  A    between atoms: C6_8  and  C7_9 
REMARK    2  A    between atoms: C7_9  and  C8_10 
REMARK    3  A    between atoms: C8_10  and  N1_11 
REMARK    4  A    between atoms: N1_11  and  C9_12 
REMARK    5  A    between atoms: N5_20  and  C14_21 
ROOT
HETATM    1  C9  UNL     1      22.190  -0.546  53.820  1.00  0.00     0.140 A 
HETATM    2  N2  UNL     1      22.253  -1.273  54.969  1.00  0.00    -0.224 NA
HETATM    3  C10 UNL     1      23.463  -1.495  55.562  1.00  0.00     0.237 A 
HETATM    4  N3  UNL     1      24.592  -0.993  55.012  1.00  0.00    -0.221 NA
HETATM    5  C11 UNL     1      24.560  -0.270  53.877  1.00  0.00     0.168 A 
HETATM    6  C12 UNL     1      23.348  -0.039  53.268  1.00  0.00     0.077 A 
HETATM    7  C13 UNL     1      23.525   0.719  52.123  1.00  0.00     0.158 A 
HETATM    8  N4  UNL     1      24.866   0.935  52.059  1.00  0.00    -0.177 NA
HETATM    9  N5  UNL     1      25.463   0.350  53.095  1.00  0.00    -0.215 N 
ENDROOT
BRANCH   1  10
HETATM   10  N1  UNL     1      20.901  -0.328  53.216  1.00  0.00    -0.374 N 
HETATM   11  H12 UNL     1      20.569  -1.064  52.539  1.00  0.00     0.161 HD
BRANCH  10  12
HETATM   12  C8  UNL     1      20.026   0.792  53.448  1.00  0.00     0.125 C 
BRANCH  12  13
HETATM   13  C7  UNL     1      19.824   1.624  52.195  1.00  0.00     0.049 C 
BRANCH  13  14
HETATM   14  C6  UNL     1      20.541   2.889  52.370  1.00  0.00     0.014 C 
HETATM   15  C5  UNL     1      21.367   3.696  51.743  1.00  0.00     0.101 C 
HETATM   16  C3  UNL     1      21.946   3.570  50.416  1.00  0.00     0.100 C 
HETATM   17  O2  UNL     1      21.863   4.883  52.266  1.00  0.00    -0.323 OA
HETATM   18  C2  UNL     1      21.806   2.637  49.504  1.00  0.00     0.009 C 
HETATM   19  O1  UNL     1      22.757   4.688  50.214  1.00  0.00    -0.323 OA
HETATM   20  C1  UNL     1      22.544   2.791  48.218  1.00  0.00     0.039 C 
HETATM   21  C4  UNL     1      22.373   5.666  51.176  1.00  0.00     0.352 C 
ENDBRANCH  13  14
ENDBRANCH  12  13
ENDBRANCH  10  12
ENDBRANCH   1  10
BRANCH   9  22
HETATM   22  C14 UNL     1      26.873   0.380  53.337  1.00  0.00     0.061 A 
HETATM   23  C15 UNL     1      27.537   1.548  53.654  1.00  0.00     0.032 A 
HETATM   24  C16 UNL     1      28.897   1.458  53.867  1.00  0.00     0.003 A 
HETATM   25  C17 UNL     1      29.655   0.312  53.793  1.00  0.00     0.007 A 
HETATM   26  C18 UNL     1      28.956  -0.855  53.469  1.00  0.00    -0.060 A 
HETATM   27  C19 UNL     1      29.705  -2.155  53.366  1.00  0.00     0.048 C 
HETATM   28  C20 UNL     1      27.596  -0.805  53.250  1.00  0.00     0.038 A 
ENDBRANCH   9  22
TORSDOF 5
ENDMDL
MODEL 5
REMARK VINA RESULT:      -8.6      3.925      8.156
REMARK  5 active torsions:
REMARK  status: ('A' for Active; 'I' for Inactive)
REMARK    1  A    between atoms: C6_8  and  C7_9 
REMARK    2  A    between atoms: C7_9  and  C8_10 
REMARK    3  A    between atoms: C8_10  and  N1_11 
REMARK    4  A    between atoms: N1_11  and  C9_12 
REMARK    5  A    between atoms: N5_20  and  C14_21 
ROOT
HETATM    1  C9  UNL     1      24.226   5.197  50.875  1.00  0.00     0.140 A 
HETATM    2  N2  UNL     1      23.843   6.481  51.112  1.00  0.00    -0.224 NA
HETATM    3  C10 UNL     1      24.573   7.511  50.591  1.00  0.00     0.237 A 
HETATM    4  N3  UNL     1      25.671   7.255  49.844  1.00  0.00    -0.221 NA
HETATM    5  C11 UNL     1      26.074   5.995  49.593  1.00  0.00     0.168 A 
HETATM    6  C12 UNL     1      25.348   4.948  50.111  1.00  0.00     0.077 A 
HETATM    7  C13 UNL     1      25.919   3.742  49.743  1.00  0.00     0.158 A 
HETATM    8  N4  UNL     1      27.000   4.089  48.996  1.00  0.00    -0.177 NA
HETATM    9  N5  UNL     1      27.081   5.415  48.915  1.00  0.00    -0.215 N 
ENDROOT
BRANCH   1  10
HETATM   10  N1  UNL     1      23.437   4.131  51.437  1.00  0.00    -0.374 N 
HETATM   11  H12 UNL     1      22.717   3.695  50.803  1.00  0.00     0.161 HD
BRANCH  10  12
HETATM   12  C8  UNL     1      23.536   3.606  52.774  1.00  0.00     0.125 C 
BRANCH  12  13
HETATM   13  C7  UNL     1      24.221   2.251  52.803  1.00  0.00     0.049 C 
BRANCH  13  14
HETATM   14  C6  UNL     1      25.558   2.431  53.374  1.00  0.00     0.014 C 
HETATM   15  C5  UNL     1      26.676   1.779  53.593  1.00  0.00     0.101 C 
HETATM   16  C3  UNL     1      27.015   0.401  53.276  1.00  0.00     0.100 C 
HETATM   17  O2  UNL     1      27.803   2.319  54.200  1.00  0.00    -0.323 OA
HETATM   18  C2  UNL     1      26.311  -0.545  52.700  1.00  0.00     0.009 C 
HETATM   19  O1  UNL     1      28.325   0.190  53.709  1.00  0.00    -0.323 OA
HETATM   20  C1  UNL     1      26.944  -1.881  52.511  1.00  0.00     0.039 C 
HETATM   21  C4  UNL     1      28.920   1.471  53.893  1.00  0.00     0.352 C 
ENDBRANCH  13  14
ENDBRANCH  12  13
ENDBRANCH  10  12
ENDBRANCH   1  10
BRANCH   9  22
HETATM   22  C14 UNL     1      28.101   6.120  48.201  1.00  0.00     0.061 A 
HETATM   23  C15 UNL     1      27.831   7.256  47.466  1.00  0.00     0.032 A 
HETATM   24  C16 UNL     1      28.894   7.853  46.819  1.00  0.00     0.003 A 
HETATM   25  C17 UNL     1      30.200   7.421  46.838  1.00  0.00     0.007 A 
HETATM   26  C18 UNL     1      30.444   6.268  47.590  1.00  0.00    -0.060 A 
HETATM   27  C19 UNL     1      31.844   5.723  47.667  1.00  0.00     0.048 C 
HETATM   28  C20 UNL     1      29.408   5.644  48.251  1.00  0.00     0.038 A 
ENDBRANCH   9  22
TORSDOF 5
ENDMDL
MODEL 6
REMARK VINA RESULT:      -8.6      3.037      7.564
REMARK  5 active torsions:
REMARK  status: ('A' for Active; 'I' for Inactive)
REMARK    1  A    between atoms: C6_8  and  C7_9 
REMARK    2  A    between atoms: C7_9  and  C8_10 
REMARK    3  A    between atoms: C8_10  and  N1_11 
REMARK    4  A    between atoms: N1_11  and  C9_12 
REMARK    5  A    between atoms: N5_20  and  C14_21 
ROOT
HETATM    1  C9  UNL     1      24.110   3.239  50.502  1.00  0.00     0.140 A 
HETATM    2  N2  UNL     1      24.961   3.885  49.659  1.00  0.00    -0.224 NA
HETATM    3  C10 UNL     1      26.305   3.662  49.754  1.00  0.00     0.237 A 
HETATM    4  N3  UNL     1      26.787   2.802  50.680  1.00  0.00    -0.221 NA
HETATM    5  C11 UNL     1      25.969   2.149  51.527  1.00  0.00     0.168 A 
HETATM    6  C12 UNL     1      24.614   2.364  51.443  1.00  0.00     0.077 A 
HETATM    7  C13 UNL     1      23.949   1.605  52.391  1.00  0.00     0.158 A 
HETATM    8  N4  UNL     1      24.935   0.933  53.043  1.00  0.00    -0.177 NA
HETATM    9  N5  UNL     1      26.117   1.260  52.526  1.00  0.00    -0.215 N 
ENDROOT
BRANCH   1  10
HETATM   10  N1  UNL     1      22.698   3.494  50.380  1.00  0.00    -0.374 N 
HETATM   11  H12 UNL     1      22.173   2.904  49.682  1.00  0.00     0.161 HD
BRANCH  10  12
HETATM   12  C8  UNL     1      21.938   4.472  51.114  1.00  0.00     0.125 C 
BRANCH  12  13
HETATM   13  C7  UNL     1      21.154   3.845  52.252  1.00  0.00     0.049 C 
BRANCH  13  14
HETATM   14  C6  UNL     1      20.200   2.894  51.677  1.00  0.00     0.014 C 
HETATM   15  C5  UNL     1      19.749   1.671  51.834  1.00  0.00     0.101 C 
HETATM   16  C3  UNL     1      20.120   0.674  52.825  1.00  0.00     0.100 C 
HETATM   17  O2  UNL     1      18.777   1.076  51.039  1.00  0.00    -0.323 OA
HETATM   18  C2  UNL     1      20.989   0.722  53.806  1.00  0.00     0.009 C 
HETATM   19  O1  UNL     1      19.352  -0.464  52.570  1.00  0.00    -0.323 OA
HETATM   20  C1  UNL     1      21.150  -0.484  54.667  1.00  0.00     0.039 C 
HETATM   21  C4  UNL     1      18.262  -0.061  51.747  1.00  0.00     0.352 C 
ENDBRANCH  13  14
ENDBRANCH  12  13
ENDBRANCH  10  12
ENDBRANCH   1  10
BRANCH   9  22
HETATM   22  C14 UNL     1      27.369   0.734  52.978  1.00  0.00     0.061 A 
HETATM   23  C15 UNL     1      28.355   1.541  53.505  1.00  0.00     0.032 A 
HETATM   24  C16 UNL     1      29.522   0.925  53.909  1.00  0.00     0.003 A 
HETATM   25  C17 UNL     1      29.795  -0.422  53.834  1.00  0.00     0.007 A 
HETATM   26  C18 UNL     1      28.777  -1.215  53.295  1.00  0.00    -0.060 A 
HETATM   27  C19 UNL     1      28.988  -2.699  53.175  1.00  0.00     0.048 C 
HETATM   28  C20 UNL     1      27.597  -0.635  52.881  1.00  0.00     0.038 A 
ENDBRANCH   9  22
TORSDOF 5
ENDMDL
MODEL 7
REMARK VINA RESULT:      -8.5      2.808      6.951
REMARK  5 active torsions:
REMARK  status: ('A' for Active; 'I' for Inactive)
REMARK    1  A    between atoms: C6_8  and  C7_9 
REMARK    2  A    between atoms: C7_9  and  C8_10 
REMARK    3  A    between atoms: C8_10  and  N1_11 
REMARK    4  A    between atoms: N1_11  and  C9_12 
REMARK    5  A    between atoms: N5_20  and  C14_21 
ROOT
HETATM    1  C9  UNL     1      21.174   2.283  50.914  1.00  0.00     0.140 A 
HETATM    2  N2  UNL     1      21.001   1.635  49.729  1.00  0.00    -0.224 NA
HETATM    3  C10 UNL     1      21.908   1.813  48.724  1.00  0.00     0.237 A 
HETATM    4  N3  UNL     1      22.972   2.628  48.905  1.00  0.00    -0.221 NA
HETATM    5  C11 UNL     1      23.169   3.281  50.066  1.00  0.00     0.168 A 
HETATM    6  C12 UNL     1      22.263   3.112  51.087  1.00  0.00     0.077 A 
HETATM    7  C13 UNL     1      22.640   3.862  52.188  1.00  0.00     0.158 A 
HETATM    8  N4  UNL     1      23.787   4.482  51.805  1.00  0.00    -0.177 NA
HETATM    9  N5  UNL     1      24.087   4.133  50.556  1.00  0.00    -0.215 N 
ENDROOT
BRANCH   1  10
HETATM   10  N1  UNL     1      20.202   2.077  51.956  1.00  0.00    -0.374 N 
HETATM   11  H12 UNL     1      19.284   2.583  51.849  1.00  0.00     0.161 HD
BRANCH  10  12
HETATM   12  C8  UNL     1      20.362   1.251  53.125  1.00  0.00     0.125 C 
BRANCH  12  13
HETATM   13  C7  UNL     1      20.535  -0.214  52.767  1.00  0.00     0.049 C 
BRANCH  13  14
HETATM   14  C6  UNL     1      21.280  -0.861  53.850  1.00  0.00     0.014 C 
HETATM   15  C5  UNL     1      22.497  -0.985  54.327  1.00  0.00     0.101 C 
HETATM   16  C3  UNL     1      23.739  -0.405  53.842  1.00  0.00     0.100 C 
HETATM   17  O2  UNL     1      22.836  -1.734  55.446  1.00  0.00    -0.323 OA
HETATM   18  C2  UNL     1      23.977   0.379  52.818  1.00  0.00     0.009 C 
HETATM   19  O1  UNL     1      24.755  -0.837  54.696  1.00  0.00    -0.323 OA
HETATM   20  C1  UNL     1      25.381   0.813  52.572  1.00  0.00     0.039 C 
HETATM   21  C4  UNL     1      24.132  -1.303  55.889  1.00  0.00     0.352 C 
ENDBRANCH  13  14
ENDBRANCH  12  13
ENDBRANCH  10  12
ENDBRANCH   1  10
BRANCH   9  22
HETATM   22  C14 UNL     1      25.233   4.604  49.840  1.00  0.00     0.061 A 
HETATM   23  C15 UNL     1      26.351   3.818  49.647  1.00  0.00     0.032 A 
HETATM   24  C16 UNL     1      27.397   4.377  48.941  1.00  0.00     0.003 A 
HETATM   25  C17 UNL     1      27.430   5.646  48.410  1.00  0.00     0.007 A 
HETATM   26  C18 UNL     1      26.285   6.419  48.622  1.00  0.00    -0.060 A 
HETATM   27  C19 UNL     1      26.233   7.820  48.077  1.00  0.00     0.048 C 
HETATM   28  C20 UNL     1      25.219   5.895  49.322  1.00  0.00     0.038 A 
ENDBRANCH   9  22
TORSDOF 5
ENDMDL
MODEL 8
REMARK VINA RESULT:      -8.5      4.160      6.022
REMARK  5 active torsions:
REMARK  status: ('A' for Active; 'I' for Inactive)
REMARK    1  A    between atoms: C6_8  and  C7_9 
REMARK    2  A    between atoms: C7_9  and  C8_10 
REMARK    3  A    between atoms: C8_10  and  N1_11 
REMARK    4  A    between atoms: N1_11  and  C9_12 
REMARK    5  A    between atoms: N5_20  and  C14_21 
ROOT
HETATM    1  C9  UNL     1      26.134   3.173  50.457  1.00  0.00     0.140 A 
HETATM    2  N2  UNL     1      27.200   2.825  51.230  1.00  0.00    -0.224 NA
HETATM    3  C10 UNL     1      27.028   1.947  52.261  1.00  0.00     0.237 A 
HETATM    4  N3  UNL     1      25.806   1.424  52.512  1.00  0.00    -0.221 NA
HETATM    5  C11 UNL     1      24.735   1.749  51.764  1.00  0.00     0.168 A 
HETATM    6  C12 UNL     1      24.893   2.633  50.722  1.00  0.00     0.077 A 
HETATM    7  C13 UNL     1      23.683   2.836  50.080  1.00  0.00     0.158 A 
HETATM    8  N4  UNL     1      22.800   2.056  50.759  1.00  0.00    -0.177 NA
HETATM    9  N5  UNL     1      23.430   1.423  51.746  1.00  0.00    -0.215 N 
ENDROOT
BRANCH   1  10
HETATM   10  N1  UNL     1      26.345   4.101  49.376  1.00  0.00    -0.374 N 
HETATM   11  H12 UNL     1      26.606   3.686  48.444  1.00  0.00     0.161 HD
BRANCH  10  12
HETATM   12  C8  UNL     1      26.233   5.535  49.447  1.00  0.00     0.125 C 
BRANCH  12  13
HETATM   13  C7  UNL     1      27.029   6.222  48.352  1.00  0.00     0.049 C 
BRANCH  13  14
HETATM   14  C6  UNL     1      28.359   5.609  48.305  1.00  0.00     0.014 C 
HETATM   15  C5  UNL     1      29.632   5.913  48.401  1.00  0.00     0.101 C 
HETATM   16  C3  UNL     1      30.255   7.206  48.632  1.00  0.00     0.100 C 
HETATM   17  O2  UNL     1      30.674   5.000  48.295  1.00  0.00    -0.323 OA
HETATM   18  C2  UNL     1      29.727   8.394  48.801  1.00  0.00     0.009 C 
HETATM   19  O1  UNL     1      31.636   6.999  48.652  1.00  0.00    -0.323 OA
HETATM   20  C1  UNL     1      30.642   9.550  49.020  1.00  0.00     0.039 C 
HETATM   21  C4  UNL     1      31.850   5.606  48.853  1.00  0.00     0.352 C 
ENDBRANCH  13  14
ENDBRANCH  12  13
ENDBRANCH  10  12
ENDBRANCH   1  10
BRANCH   9  22
HETATM   22  C14 UNL     1      22.797   0.519  52.657  1.00  0.00     0.061 A 
HETATM   23  C15 UNL     1      23.509  -0.171  53.617  1.00  0.00     0.032 A 
HETATM   24  C16 UNL     1      22.794  -1.015  54.442  1.00  0.00     0.003 A 
HETATM   25  C17 UNL     1      21.436  -1.234  54.398  1.00  0.00     0.007 A 
HETATM   26  C18 UNL     1      20.741  -0.522  53.415  1.00  0.00    -0.060 A 
HETATM   27  C19 UNL     1      19.253  -0.699  53.294  1.00  0.00     0.048 C 
HETATM   28  C20 UNL     1      21.421   0.331  52.573  1.00  0.00     0.038 A 
ENDBRANCH   9  22
TORSDOF 5
ENDMDL
MODEL 9
REMARK VINA RESULT:      -8.3      3.431      7.667
REMARK  5 active torsions:
REMARK  status: ('A' for Active; 'I' for Inactive)
REMARK    1  A    between atoms: C6_8  and  C7_9 
REMARK    2  A    between atoms: C7_9  and  C8_10 
REMARK    3  A    between atoms: C8_10  and  N1_11 
REMARK    4  A    between atoms: N1_11  and  C9_12 
REMARK    5  A    between atoms: N5_20  and  C14_21 
ROOT
HETATM    1  C9  UNL     1      22.182   0.562  52.779  1.00  0.00     0.140 A 
HETATM    2  N2  UNL     1      21.957  -0.324  53.789  1.00  0.00    -0.224 NA
HETATM    3  C10 UNL     1      23.016  -0.871  54.455  1.00  0.00     0.237 A 
HETATM    4  N3  UNL     1      24.281  -0.534  54.115  1.00  0.00    -0.221 NA
HETATM    5  C11 UNL     1      24.533   0.339  53.121  1.00  0.00     0.168 A 
HETATM    6  C12 UNL     1      23.477   0.898  52.441  1.00  0.00     0.077 A 
HETATM    7  C13 UNL     1      23.941   1.763  51.464  1.00  0.00     0.158 A 
HETATM    8  N4  UNL     1      25.295   1.709  51.575  1.00  0.00    -0.177 NA
HETATM    9  N5  UNL     1      25.631   0.869  52.551  1.00  0.00    -0.215 N 
ENDROOT
BRANCH   1  10
HETATM   10  N1  UNL     1      21.047   1.123  52.094  1.00  0.00    -0.374 N 
HETATM   11  H12 UNL     1      20.835   0.734  51.138  1.00  0.00     0.161 HD
BRANCH  10  12
HETATM   12  C8  UNL     1      20.177   2.160  52.586  1.00  0.00     0.125 C 
BRANCH  12  13
HETATM   13  C7  UNL     1      20.707   3.546  52.268  1.00  0.00     0.049 C 
BRANCH  13  14
HETATM   14  C6  UNL     1      20.805   3.671  50.811  1.00  0.00     0.014 C 
HETATM   15  C5  UNL     1      21.537   4.231  49.876  1.00  0.00     0.101 C 
HETATM   16  C3  UNL     1      22.717   5.070  50.011  1.00  0.00     0.100 C 
HETATM   17  O2  UNL     1      21.303   4.116  48.512  1.00  0.00    -0.323 OA
HETATM   18  C2  UNL     1      23.356   5.487  51.078  1.00  0.00     0.009 C 
HETATM   19  O1  UNL     1      23.127   5.412  48.721  1.00  0.00    -0.323 OA
HETATM   20  C1  UNL     1      24.554   6.353  50.891  1.00  0.00     0.039 C 
HETATM   21  C4  UNL     1      22.505   4.496  47.825  1.00  0.00     0.352 C 
ENDBRANCH  13  14
ENDBRANCH  12  13
ENDBRANCH  10  12
ENDBRANCH   1  10
BRANCH   9  22
HETATM   22  C14 UNL     1      26.978   0.577  52.936  1.00  0.00     0.061 A 
HETATM   23  C15 UNL     1      27.858   1.563  53.331  1.00  0.00     0.032 A 
HETATM   24  C16 UNL     1      29.132   1.165  53.681  1.00  0.00     0.003 A 
HETATM   25  C17 UNL     1      29.608  -0.126  53.673  1.00  0.00     0.007 A 
HETATM   26  C18 UNL     1      28.695  -1.105  53.268  1.00  0.00    -0.060 A 
HETATM   27  C19 UNL     1      29.128  -2.544  53.229  1.00  0.00     0.048 C 
HETATM   28  C20 UNL     1      27.412  -0.745  52.912  1.00  0.00     0.038 A 
ENDBRANCH   9  22
TORSDOF 5
ENDMDL
