MODEL 1
REMARK VINA RESULT:      -7.7      0.000      0.000
REMARK  6 active torsions:
REMARK  status: ('A' for Active; 'I' for Inactive)
REMARK    1  A    between atoms: C2_2  and  C3_3 
REMARK    2  A    between atoms: C4_4  and  N1_5 
REMARK    3  A    between atoms: C8_11  and  N4_12 
REMARK       I    between atoms: N4_12  and  C9_13 
REMARK    4  A    between atoms: C9_13  and  C10_15 
REMARK    5  A    between atoms: C11_16  and  C12_17 
REMARK    6  A    between atoms: C12_17  and  N5_18 
ROOT
HETATM    1  N1  UNL     1      24.795  -0.325  53.498  1.00  0.00    -0.242 N 
HETATM    2  N2  UNL     1      25.782  -0.871  54.320  1.00  0.00    -0.161 NA
HETATM    3  C5  UNL     1      26.969  -0.325  54.352  1.00  0.00     0.255 A 
HETATM    4  N3  UNL     1      27.303   0.825  53.567  1.00  0.00    -0.242 NA
HETATM    5  C6  UNL     1      26.431   1.370  52.790  1.00  0.00     0.070 A 
HETATM    6  C7  UNL     1      26.908   2.556  52.034  1.00  0.00     0.118 A 
HETATM    7  C8  UNL     1      25.844   3.110  51.173  1.00  0.00     0.018 A 
HETATM    8  C17 UNL     1      24.629   2.540  51.150  1.00  0.00     0.028 A 
HETATM    9  C18 UNL     1      24.222   1.385  51.910  1.00  0.00     0.036 A 
HETATM   10  C19 UNL     1      25.088   0.817  52.703  1.00  0.00     0.083 A 
ENDROOT
BRANCH   7  11
HETATM   11  N4  UNL     1      26.090   4.236  50.379  1.00  0.00    -0.327 N 
HETATM   12  C9  UNL     1      26.872   4.489  49.249  1.00  0.00     0.245 C 
HETATM   13  O1  UNL     1      27.543   3.542  48.767  1.00  0.00    -0.268 OA
HETATM   14  H9  UNL     1      25.524   5.031  50.789  1.00  0.00     0.169 HD
BRANCH  12  15
HETATM   15  C10 UNL     1      26.878   5.817  48.684  1.00  0.00     0.072 C 
HETATM   16  C11 UNL     1      27.976   6.403  48.248  1.00  0.00     0.008 C 
BRANCH  16  17
HETATM   17  C12 UNL     1      29.418   6.128  48.120  1.00  0.00     0.300 C 
BRANCH  17  18
HETATM   18  N5  UNL     1      30.197   7.340  47.933  1.00  0.00     0.091 N 
HETATM   19  C13 UNL     1      31.525   7.099  48.452  1.00  0.00     0.273 C 
HETATM   20  C14 UNL     1      31.986   8.511  48.767  1.00  0.00     0.032 C 
HETATM   21  C15 UNL     1      30.751   9.116  49.395  1.00  0.00     0.032 C 
HETATM   22  C16 UNL     1      29.633   8.417  48.689  1.00  0.00     0.273 C 
ENDBRANCH  17  18
ENDBRANCH  16  17
ENDBRANCH  12  15
ENDBRANCH   7  11
BRANCH   1  23
HETATM   23  C4  UNL     1      23.508  -0.906  53.461  1.00  0.00     0.119 C 
HETATM   24  C3  UNL     1      22.638  -0.777  54.455  1.00  0.00     0.019 C 
BRANCH  24  25
HETATM   25  C2  UNL     1      21.273  -1.337  54.528  1.00  0.00    -0.009 C 
HETATM   26  C1  UNL     1      20.269  -0.913  53.779  1.00  0.00     0.011 C 
ENDBRANCH  24  25
ENDBRANCH   1  23
TORSDOF 6
ENDMDL
MODEL 2
REMARK VINA RESULT:      -7.6      1.978      3.919
REMARK  6 active torsions:
REMARK  status: ('A' for Active; 'I' for Inactive)
REMARK    1  A    between atoms: C2_2  and  C3_3 
REMARK    2  A    between atoms: C4_4  and  N1_5 
REMARK    3  A    between atoms: C8_11  and  N4_12 
REMARK       I    between atoms: N4_12  and  C9_13 
REMARK    4  A    between atoms: C9_13  and  C10_15 
REMARK    5  A    between atoms: C11_16  and  C12_17 
REMARK    6  A    between atoms: C12_17  and  N5_18 
ROOT
HETATM    1  N1  UNL     1      25.695   0.090  53.210  1.00  0.00    -0.242 N 
HETATM    2  N2  UNL     1      24.632  -0.644  53.741  1.00  0.00    -0.161 NA
HETATM    3  C5  UNL     1      23.411  -0.381  53.356  1.00  0.00     0.255 A 
HETATM    4  N3  UNL     1      23.115   0.643  52.399  1.00  0.00    -0.242 NA
HETATM    5  C6  UNL     1      24.057   1.350  51.877  1.00  0.00     0.070 A 
HETATM    6  C7  UNL     1      23.612   2.376  50.899  1.00  0.00     0.118 A 
HETATM    7  C8  UNL     1      24.756   3.135  50.356  1.00  0.00     0.018 A 
HETATM    8  C17 UNL     1      26.005   2.855  50.760  1.00  0.00     0.028 A 
HETATM    9  C18 UNL     1      26.378   1.843  51.716  1.00  0.00     0.036 A 
HETATM   10  C19 UNL     1      25.441   1.114  52.257  1.00  0.00     0.083 A 
ENDROOT
BRANCH   7  11
HETATM   11  N4  UNL     1      24.550   4.149  49.413  1.00  0.00    -0.327 N 
HETATM   12  C9  UNL     1      24.074   5.461  49.469  1.00  0.00     0.245 C 
HETATM   13  O1  UNL     1      23.728   5.919  50.586  1.00  0.00    -0.268 OA
HETATM   14  H9  UNL     1      24.842   3.758  48.472  1.00  0.00     0.169 HD
BRANCH  12  15
HETATM   15  C10 UNL     1      23.999   6.232  48.251  1.00  0.00     0.072 C 
HETATM   16  C11 UNL     1      24.936   7.085  47.886  1.00  0.00     0.008 C 
BRANCH  16  17
HETATM   17  C12 UNL     1      26.230   7.601  48.366  1.00  0.00     0.300 C 
BRANCH  17  18
HETATM   18  N5  UNL     1      27.357   6.925  47.747  1.00  0.00     0.091 N 
HETATM   19  C13 UNL     1      27.665   5.757  48.543  1.00  0.00     0.273 C 
HETATM   20  C14 UNL     1      29.127   5.535  48.198  1.00  0.00     0.032 C 
HETATM   21  C15 UNL     1      29.676   6.943  48.215  1.00  0.00     0.032 C 
HETATM   22  C16 UNL     1      28.513   7.768  47.760  1.00  0.00     0.273 C 
ENDBRANCH  17  18
ENDBRANCH  16  17
ENDBRANCH  12  15
ENDBRANCH   7  11
BRANCH   1  23
HETATM   23  C4  UNL     1      27.018  -0.191  53.618  1.00  0.00     0.119 C 
HETATM   24  C3  UNL     1      27.761  -1.124  53.037  1.00  0.00     0.019 C 
BRANCH  24  25
HETATM   25  C2  UNL     1      29.148  -1.504  53.376  1.00  0.00    -0.009 C 
HETATM   26  C1  UNL     1      30.125  -0.628  53.540  1.00  0.00     0.011 C 
ENDBRANCH  24  25
ENDBRANCH   1  23
TORSDOF 6
ENDMDL
MODEL 3
REMARK VINA RESULT:      -7.6      2.362      4.111
REMARK  6 active torsions:
REMARK  status: ('A' for Active; 'I' for Inactive)
REMARK    1  A    between atoms: C2_2  and  C3_3 
REMARK    2  A    between atoms: C4_4  and  N1_5 
REMARK    3  A    between atoms: C8_11  and  N4_12 
REMARK       I    between atoms: N4_12  and  C9_13 
REMARK    4  A    between atoms: C9_13  and  C10_15 
REMARK    5  A    between atoms: C11_16  and  C12_17 
REMARK    6  A    between atoms: C12_17  and  N5_18 
ROOT
HETATM    1  N1  UNL     1      25.002  -0.344  53.182  1.00  0.00    -0.242 N 
HETATM    2  N2  UNL     1      26.081  -1.036  53.736  1.00  0.00    -0.161 NA
HETATM    3  C5  UNL     1      27.292  -0.569  53.586  1.00  0.00     0.255 A 
HETATM    4  N3  UNL     1      27.561   0.639  52.867  1.00  0.00    -0.242 NA
HETATM    5  C6  UNL     1      26.604   1.318  52.335  1.00  0.00     0.070 A 
HETATM    6  C7  UNL     1      27.023   2.551  51.619  1.00  0.00     0.118 A 
HETATM    7  C8  UNL     1      25.862   3.260  51.044  1.00  0.00     0.018 A 
HETATM    8  C17 UNL     1      24.623   2.770  51.205  1.00  0.00     0.028 A 
HETATM    9  C18 UNL     1      24.276   1.563  51.913  1.00  0.00     0.036 A 
HETATM   10  C19 UNL     1      25.230   0.860  52.461  1.00  0.00     0.083 A 
ENDROOT
BRANCH   7  11
HETATM   11  N4  UNL     1      26.042   4.451  50.331  1.00  0.00    -0.327 N 
HETATM   12  C9  UNL     1      26.819   4.831  49.234  1.00  0.00     0.245 C 
HETATM   13  O1  UNL     1      27.558   3.966  48.701  1.00  0.00    -0.268 OA
HETATM   14  H9  UNL     1      25.419   5.178  50.784  1.00  0.00     0.169 HD
BRANCH  12  15
HETATM   15  C10 UNL     1      26.744   6.193  48.760  1.00  0.00     0.072 C 
HETATM   16  C11 UNL     1      25.605   6.776  48.441  1.00  0.00     0.008 C 
BRANCH  16  17
HETATM   17  C12 UNL     1      24.164   6.471  48.395  1.00  0.00     0.300 C 
BRANCH  17  18
HETATM   18  N5  UNL     1      23.557   6.477  49.715  1.00  0.00     0.091 N 
HETATM   19  C13 UNL     1      22.451   5.545  49.698  1.00  0.00     0.273 C 
HETATM   20  C14 UNL     1      21.584   6.086  50.821  1.00  0.00     0.032 C 
HETATM   21  C15 UNL     1      21.652   7.577  50.585  1.00  0.00     0.032 C 
HETATM   22  C16 UNL     1      23.021   7.770  50.012  1.00  0.00     0.273 C 
ENDBRANCH  17  18
ENDBRANCH  16  17
ENDBRANCH  12  15
ENDBRANCH   7  11
BRANCH   1  23
HETATM   23  C4  UNL     1      23.689  -0.841  53.343  1.00  0.00     0.119 C 
HETATM   24  C3  UNL     1      23.059  -0.826  54.511  1.00  0.00     0.019 C 
BRANCH  24  25
HETATM   25  C2  UNL     1      21.695  -1.315  54.798  1.00  0.00    -0.009 C 
HETATM   26  C1  UNL     1      20.669  -1.138  53.981  1.00  0.00     0.011 C 
ENDBRANCH  24  25
ENDBRANCH   1  23
TORSDOF 6
ENDMDL
MODEL 4
REMARK VINA RESULT:      -7.6      5.913      9.505
REMARK  6 active torsions:
REMARK  status: ('A' for Active; 'I' for Inactive)
REMARK    1  A    between atoms: C2_2  and  C3_3 
REMARK    2  A    between atoms: C4_4  and  N1_5 
REMARK    3  A    between atoms: C8_11  and  N4_12 
REMARK       I    between atoms: N4_12  and  C9_13 
REMARK    4  A    between atoms: C9_13  and  C10_15 
REMARK    5  A    between atoms: C11_16  and  C12_17 
REMARK    6  A    between atoms: C12_17  and  N5_18 
ROOT
HETATM    1  N1  UNL     1      25.317  -0.519  54.300  1.00  0.00    -0.242 N 
HETATM    2  N2  UNL     1      25.044  -1.277  55.441  1.00  0.00    -0.161 NA
HETATM    3  C5  UNL     1      23.803  -1.494  55.789  1.00  0.00     0.255 A 
HETATM    4  N3  UNL     1      22.698  -0.979  55.038  1.00  0.00    -0.242 NA
HETATM    5  C6  UNL     1      22.891  -0.274  53.978  1.00  0.00     0.070 A 
HETATM    6  C7  UNL     1      21.658   0.196  53.295  1.00  0.00     0.118 A 
HETATM    7  C8  UNL     1      21.979   0.994  52.094  1.00  0.00     0.018 A 
HETATM    8  C17 UNL     1      23.257   1.210  51.748  1.00  0.00     0.028 A 
HETATM    9  C18 UNL     1      24.418   0.726  52.452  1.00  0.00     0.036 A 
HETATM   10  C19 UNL     1      24.245   0.009  53.529  1.00  0.00     0.083 A 
ENDROOT
BRANCH   7  11
HETATM   11  N4  UNL     1      20.953   1.528  51.305  1.00  0.00    -0.327 N 
HETATM   12  C9  UNL     1      19.958   2.488  51.505  1.00  0.00     0.245 C 
HETATM   13  O1  UNL     1      19.896   3.054  52.625  1.00  0.00    -0.268 OA
HETATM   14  H9  UNL     1      21.008   1.047  50.363  1.00  0.00     0.169 HD
BRANCH  12  15
HETATM   15  C10 UNL     1      19.048   2.789  50.426  1.00  0.00     0.072 C 
HETATM   16  C11 UNL     1      18.218   1.897  49.921  1.00  0.00     0.008 C 
BRANCH  16  17
HETATM   17  C12 UNL     1      17.844   0.484  50.107  1.00  0.00     0.300 C 
BRANCH  17  18
HETATM   18  N5  UNL     1      17.288   0.230  51.425  1.00  0.00     0.091 N 
HETATM   19  C13 UNL     1      18.199  -0.645  52.130  1.00  0.00     0.273 C 
HETATM   20  C14 UNL     1      17.271  -1.297  53.138  1.00  0.00     0.032 C 
HETATM   21  C15 UNL     1      16.043  -1.580  52.304  1.00  0.00     0.032 C 
HETATM   22  C16 UNL     1      16.037  -0.458  51.315  1.00  0.00     0.273 C 
ENDBRANCH  17  18
ENDBRANCH  16  17
ENDBRANCH  12  15
ENDBRANCH   7  11
BRANCH   1  23
HETATM   23  C4  UNL     1      26.656  -0.283  53.915  1.00  0.00     0.119 C 
HETATM   24  C3  UNL     1      27.556   0.232  54.743  1.00  0.00     0.019 C 
BRANCH  24  25
HETATM   25  C2  UNL     1      28.976   0.521  54.453  1.00  0.00    -0.009 C 
HETATM   26  C1  UNL     1      29.727  -0.229  53.664  1.00  0.00     0.011 C 
ENDBRANCH  24  25
ENDBRANCH   1  23
TORSDOF 6
ENDMDL
MODEL 5
REMARK VINA RESULT:      -7.5      5.366      6.992
REMARK  6 active torsions:
REMARK  status: ('A' for Active; 'I' for Inactive)
REMARK    1  A    between atoms: C2_2  and  C3_3 
REMARK    2  A    between atoms: C4_4  and  N1_5 
REMARK    3  A    between atoms: C8_11  and  N4_12 
REMARK       I    between atoms: N4_12  and  C9_13 
REMARK    4  A    between atoms: C9_13  and  C10_15 
REMARK    5  A    between atoms: C11_16  and  C12_17 
REMARK    6  A    between atoms: C12_17  and  N5_18 
ROOT
HETATM    1  N1  UNL     1      25.206  -0.557  54.243  1.00  0.00    -0.242 N 
HETATM    2  N2  UNL     1      24.894  -1.343  55.354  1.00  0.00    -0.161 NA
HETATM    3  C5  UNL     1      23.643  -1.526  55.684  1.00  0.00     0.255 A 
HETATM    4  N3  UNL     1      22.564  -0.946  54.942  1.00  0.00    -0.242 NA
HETATM    5  C6  UNL     1      22.794  -0.211  53.908  1.00  0.00     0.070 A 
HETATM    6  C7  UNL     1      21.586   0.327  53.231  1.00  0.00     0.118 A 
HETATM    7  C8  UNL     1      21.948   1.154  52.063  1.00  0.00     0.018 A 
HETATM    8  C17 UNL     1      23.236   1.334  51.735  1.00  0.00     0.028 A 
HETATM    9  C18 UNL     1      24.371   0.784  52.432  1.00  0.00     0.036 A 
HETATM   10  C19 UNL     1      24.162   0.036  53.481  1.00  0.00     0.083 A 
ENDROOT
BRANCH   7  11
HETATM   11  N4  UNL     1      20.950   1.753  51.283  1.00  0.00    -0.327 N 
HETATM   12  C9  UNL     1      19.985   2.737  51.510  1.00  0.00     0.245 C 
HETATM   13  O1  UNL     1      19.929   3.261  52.650  1.00  0.00    -0.268 OA
HETATM   14  H9  UNL     1      21.001   1.307  50.324  1.00  0.00     0.169 HD
BRANCH  12  15
HETATM   15  C10 UNL     1      19.099   3.110  50.433  1.00  0.00     0.072 C 
HETATM   16  C11 UNL     1      19.345   4.120  49.622  1.00  0.00     0.008 C 
BRANCH  16  17
HETATM   17  C12 UNL     1      20.369   5.156  49.401  1.00  0.00     0.300 C 
BRANCH  17  18
HETATM   18  N5  UNL     1      21.380   4.738  48.445  1.00  0.00     0.091 N 
HETATM   19  C13 UNL     1      20.788   3.740  47.581  1.00  0.00     0.273 C 
HETATM   20  C14 UNL     1      22.017   2.985  47.107  1.00  0.00     0.032 C 
HETATM   21  C15 UNL     1      22.829   2.869  48.377  1.00  0.00     0.032 C 
HETATM   22  C16 UNL     1      22.480   4.120  49.120  1.00  0.00     0.273 C 
ENDBRANCH  17  18
ENDBRANCH  16  17
ENDBRANCH  12  15
ENDBRANCH   7  11
BRANCH   1  23
HETATM   23  C4  UNL     1      26.556  -0.358  53.878  1.00  0.00     0.119 C 
HETATM   24  C3  UNL     1      27.457   0.136  54.718  1.00  0.00     0.019 C 
BRANCH  24  25
HETATM   25  C2  UNL     1      28.888   0.387  54.449  1.00  0.00    -0.009 C 
HETATM   26  C1  UNL     1      29.644  -0.413  53.716  1.00  0.00     0.011 C 
ENDBRANCH  24  25
ENDBRANCH   1  23
TORSDOF 6
ENDMDL
MODEL 6
REMARK VINA RESULT:      -7.4      2.157      8.742
REMARK  6 active torsions:
REMARK  status: ('A' for Active; 'I' for Inactive)
REMARK    1  A    between atoms: C2_2  and  C3_3 
REMARK    2  A    between atoms: C4_4  and  N1_5 
REMARK    3  A    between atoms: C8_11  and  N4_12 
REMARK       I    between atoms: N4_12  and  C9_13 
REMARK    4  A    between atoms: C9_13  and  C10_15 
REMARK    5  A    between atoms: C11_16  and  C12_17 
REMARK    6  A    between atoms: C12_17  and  N5_18 
ROOT
HETATM    1  N1  UNL     1      27.076   6.587  48.039  1.00  0.00    -0.242 N 
HETATM    2  N2  UNL     1      26.282   7.625  47.548  1.00  0.00    -0.161 NA
HETATM    3  C5  UNL     1      24.997   7.623  47.788  1.00  0.00     0.255 A 
HETATM    4  N3  UNL     1      24.363   6.586  48.544  1.00  0.00    -0.242 NA
HETATM    5  C6  UNL     1      25.047   5.604  49.022  1.00  0.00     0.070 A 
HETATM    6  C7  UNL     1      24.266   4.599  49.787  1.00  0.00     0.118 A 
HETATM    7  C8  UNL     1      25.132   3.515  50.293  1.00  0.00     0.018 A 
HETATM    8  C17 UNL     1      26.449   3.529  50.039  1.00  0.00     0.028 A 
HETATM    9  C18 UNL     1      27.156   4.535  49.288  1.00  0.00     0.036 A 
HETATM   10  C19 UNL     1      26.483   5.539  48.795  1.00  0.00     0.083 A 
ENDROOT
BRANCH   7  11
HETATM   11  N4  UNL     1      24.588   2.467  51.045  1.00  0.00    -0.327 N 
HETATM   12  C9  UNL     1      24.126   2.335  52.357  1.00  0.00     0.245 C 
HETATM   13  O1  UNL     1      24.173   3.343  53.106  1.00  0.00    -0.268 OA
HETATM   14  H9  UNL     1      24.552   1.619  50.411  1.00  0.00     0.169 HD
BRANCH  12  15
HETATM   15  C10 UNL     1      23.618   1.058  52.797  1.00  0.00     0.072 C 
HETATM   16  C11 UNL     1      24.403   0.039  53.090  1.00  0.00     0.008 C 
BRANCH  16  17
HETATM   17  C12 UNL     1      25.838  -0.295  53.130  1.00  0.00     0.300 C 
BRANCH  17  18
HETATM   18  N5  UNL     1      26.629   0.746  53.763  1.00  0.00     0.091 N 
HETATM   19  C13 UNL     1      27.497   1.319  52.757  1.00  0.00     0.273 C 
HETATM   20  C14 UNL     1      28.621   1.876  53.612  1.00  0.00     0.032 C 
HETATM   21  C15 UNL     1      28.834   0.769  54.619  1.00  0.00     0.032 C 
HETATM   22  C16 UNL     1      27.466   0.187  54.781  1.00  0.00     0.273 C 
ENDBRANCH  17  18
ENDBRANCH  16  17
ENDBRANCH  12  15
ENDBRANCH   7  11
BRANCH   1  23
HETATM   23  C4  UNL     1      28.467   6.584  47.787  1.00  0.00     0.119 C 
HETATM   24  C3  UNL     1      29.292   7.471  48.330  1.00  0.00     0.019 C 
BRANCH  24  25
HETATM   25  C2  UNL     1      30.754   7.565  48.141  1.00  0.00    -0.009 C 
HETATM   26  C1  UNL     1      31.604   7.802  49.126  1.00  0.00     0.011 C 
ENDBRANCH  24  25
ENDBRANCH   1  23
TORSDOF 6
ENDMDL
MODEL 7
REMARK VINA RESULT:      -7.3      2.176      3.688
REMARK  6 active torsions:
REMARK  status: ('A' for Active; 'I' for Inactive)
REMARK    1  A    between atoms: C2_2  and  C3_3 
REMARK    2  A    between atoms: C4_4  and  N1_5 
REMARK    3  A    between atoms: C8_11  and  N4_12 
REMARK       I    between atoms: N4_12  and  C9_13 
REMARK    4  A    between atoms: C9_13  and  C10_15 
REMARK    5  A    between atoms: C11_16  and  C12_17 
REMARK    6  A    between atoms: C12_17  and  N5_18 
ROOT
HETATM    1  N1  UNL     1      25.438   1.066  52.118  1.00  0.00    -0.242 N 
HETATM    2  N2  UNL     1      24.302   0.908  52.913  1.00  0.00    -0.161 NA
HETATM    3  C5  UNL     1      23.355   1.807  52.871  1.00  0.00     0.255 A 
HETATM    4  N3  UNL     1      23.436   2.963  52.030  1.00  0.00    -0.242 NA
HETATM    5  C6  UNL     1      24.462   3.160  51.275  1.00  0.00     0.070 A 
HETATM    6  C7  UNL     1      24.418   4.397  50.453  1.00  0.00     0.118 A 
HETATM    7  C8  UNL     1      25.631   4.536  49.624  1.00  0.00     0.018 A 
HETATM    8  C17 UNL     1      26.597   3.606  49.677  1.00  0.00     0.028 A 
HETATM    9  C18 UNL     1      26.584   2.420  50.497  1.00  0.00     0.036 A 
HETATM   10  C19 UNL     1      25.555   2.201  51.269  1.00  0.00     0.083 A 
ENDROOT
BRANCH   7  11
HETATM   11  N4  UNL     1      25.784   5.637  48.772  1.00  0.00    -0.327 N 
HETATM   12  C9  UNL     1      26.071   6.991  48.959  1.00  0.00     0.245 C 
HETATM   13  O1  UNL     1      26.249   7.404  50.132  1.00  0.00    -0.268 OA
HETATM   14  H9  UNL     1      25.632   5.285  47.785  1.00  0.00     0.169 HD
BRANCH  12  15
HETATM   15  C10 UNL     1      26.152   7.856  47.806  1.00  0.00     0.072 C 
HETATM   16  C11 UNL     1      27.286   8.116  47.185  1.00  0.00     0.008 C 
BRANCH  16  17
HETATM   17  C12 UNL     1      28.717   7.777  47.277  1.00  0.00     0.300 C 
BRANCH  17  18
HETATM   18  N5  UNL     1      29.302   8.195  48.540  1.00  0.00     0.091 N 
HETATM   19  C13 UNL     1      29.512   9.625  48.479  1.00  0.00     0.273 C 
HETATM   20  C14 UNL     1      30.625   9.809  49.496  1.00  0.00     0.032 C 
HETATM   21  C15 UNL     1      31.533   8.641  49.188  1.00  0.00     0.032 C 
HETATM   22  C16 UNL     1      30.584   7.584  48.723  1.00  0.00     0.273 C 
ENDBRANCH  17  18
ENDBRANCH  16  17
ENDBRANCH  12  15
ENDBRANCH   7  11
BRANCH   1  23
HETATM   23  C4  UNL     1      26.465   0.095  52.155  1.00  0.00     0.119 C 
HETATM   24  C3  UNL     1      27.343   0.023  53.148  1.00  0.00     0.019 C 
BRANCH  24  25
HETATM   25  C2  UNL     1      28.452  -0.942  53.293  1.00  0.00    -0.009 C 
HETATM   26  C1  UNL     1      29.683  -0.595  53.628  1.00  0.00     0.011 C 
ENDBRANCH  24  25
ENDBRANCH   1  23
TORSDOF 6
ENDMDL
MODEL 8
REMARK VINA RESULT:      -7.3      6.000     10.072
REMARK  6 active torsions:
REMARK  status: ('A' for Active; 'I' for Inactive)
REMARK    1  A    between atoms: C2_2  and  C3_3 
REMARK    2  A    between atoms: C4_4  and  N1_5 
REMARK    3  A    between atoms: C8_11  and  N4_12 
REMARK       I    between atoms: N4_12  and  C9_13 
REMARK    4  A    between atoms: C9_13  and  C10_15 
REMARK    5  A    between atoms: C11_16  and  C12_17 
REMARK    6  A    between atoms: C12_17  and  N5_18 
ROOT
HETATM    1  N1  UNL     1      24.999  -0.420  54.304  1.00  0.00    -0.242 N 
HETATM    2  N2  UNL     1      24.968  -1.197  55.464  1.00  0.00    -0.161 NA
HETATM    3  C5  UNL     1      23.821  -1.613  55.931  1.00  0.00     0.255 A 
HETATM    4  N3  UNL     1      22.578  -1.300  55.293  1.00  0.00    -0.242 NA
HETATM    5  C6  UNL     1      22.547  -0.586  54.221  1.00  0.00     0.070 A 
HETATM    6  C7  UNL     1      21.193  -0.337  53.663  1.00  0.00     0.118 A 
HETATM    7  C8  UNL     1      21.257   0.487  52.440  1.00  0.00     0.018 A 
HETATM    8  C17 UNL     1      22.442   0.908  51.971  1.00  0.00     0.028 A 
HETATM    9  C18 UNL     1      23.730   0.633  52.557  1.00  0.00     0.036 A 
HETATM   10  C19 UNL     1      23.785  -0.088  53.643  1.00  0.00     0.083 A 
ENDROOT
BRANCH   7  11
HETATM   11  N4  UNL     1      20.085   0.832  51.756  1.00  0.00    -0.327 N 
HETATM   12  C9  UNL     1      19.270   1.966  51.714  1.00  0.00     0.245 C 
HETATM   13  O1  UNL     1      19.589   2.952  52.425  1.00  0.00    -0.268 OA
HETATM   14  H9  UNL     1      19.819  -0.002  51.161  1.00  0.00     0.169 HD
BRANCH  12  15
HETATM   15  C10 UNL     1      18.103   1.960  50.865  1.00  0.00     0.072 C 
HETATM   16  C11 UNL     1      17.059   2.736  51.079  1.00  0.00     0.008 C 
BRANCH  16  17
HETATM   17  C12 UNL     1      16.603   3.762  52.032  1.00  0.00     0.300 C 
BRANCH  17  18
HETATM   18  N5  UNL     1      15.154   3.848  52.099  1.00  0.00     0.091 N 
HETATM   19  C13 UNL     1      14.800   4.389  53.393  1.00  0.00     0.273 C 
HETATM   20  C14 UNL     1      13.388   3.858  53.565  1.00  0.00     0.032 C 
HETATM   21  C15 UNL     1      13.519   2.437  53.065  1.00  0.00     0.032 C 
HETATM   22  C16 UNL     1      14.571   2.544  52.008  1.00  0.00     0.273 C 
ENDBRANCH  17  18
ENDBRANCH  16  17
ENDBRANCH  12  15
ENDBRANCH   7  11
BRANCH   1  23
HETATM   23  C4  UNL     1      26.236   0.030  53.790  1.00  0.00     0.119 C 
HETATM   24  C3  UNL     1      27.359  -0.013  54.495  1.00  0.00     0.019 C 
BRANCH  24  25
HETATM   25  C2  UNL     1      28.703   0.426  54.065  1.00  0.00    -0.009 C 
HETATM   26  C1  UNL     1      29.645  -0.404  53.652  1.00  0.00     0.011 C 
ENDBRANCH  24  25
ENDBRANCH   1  23
TORSDOF 6
ENDMDL
MODEL 9
REMARK VINA RESULT:      -7.1      2.624      4.367
REMARK  6 active torsions:
REMARK  status: ('A' for Active; 'I' for Inactive)
REMARK    1  A    between atoms: C2_2  and  C3_3 
REMARK    2  A    between atoms: C4_4  and  N1_5 
REMARK    3  A    between atoms: C8_11  and  N4_12 
REMARK       I    between atoms: N4_12  and  C9_13 
REMARK    4  A    between atoms: C9_13  and  C10_15 
REMARK    5  A    between atoms: C11_16  and  C12_17 
REMARK    6  A    between atoms: C12_17  and  N5_18 
ROOT
HETATM    1  N1  UNL     1      23.876   3.324  51.411  1.00  0.00    -0.242 N 
HETATM    2  N2  UNL     1      22.864   4.141  51.918  1.00  0.00    -0.161 NA
HETATM    3  C5  UNL     1      22.867   5.418  51.641  1.00  0.00     0.255 A 
HETATM    4  N3  UNL     1      23.881   6.021  50.828  1.00  0.00    -0.242 NA
HETATM    5  C6  UNL     1      24.838   5.314  50.334  1.00  0.00     0.070 A 
HETATM    6  C7  UNL     1      25.820   6.064  49.510  1.00  0.00     0.118 A 
HETATM    7  C8  UNL     1      26.877   5.175  48.989  1.00  0.00     0.018 A 
HETATM    8  C17 UNL     1      26.863   3.865  49.281  1.00  0.00     0.028 A 
HETATM    9  C18 UNL     1      25.879   3.190  50.090  1.00  0.00     0.036 A 
HETATM   10  C19 UNL     1      24.900   3.886  50.600  1.00  0.00     0.083 A 
ENDROOT
BRANCH   7  11
HETATM   11  N4  UNL     1      27.901   5.687  48.183  1.00  0.00    -0.327 N 
HETATM   12  C9  UNL     1      28.644   6.870  48.173  1.00  0.00     0.245 C 
HETATM   13  O1  UNL     1      28.403   7.730  49.057  1.00  0.00    -0.268 OA
HETATM   14  H9  UNL     1      28.100   4.960  47.439  1.00  0.00     0.169 HD
BRANCH  12  15
HETATM   15  C10 UNL     1      29.650   7.057  47.155  1.00  0.00     0.072 C 
HETATM   16  C11 UNL     1      30.855   6.527  47.235  1.00  0.00     0.008 C 
BRANCH  16  17
HETATM   17  C12 UNL     1      31.649   5.682  48.145  1.00  0.00     0.300 C 
BRANCH  17  18
HETATM   18  N5  UNL     1      32.833   5.139  47.501  1.00  0.00     0.091 N 
HETATM   19  C13 UNL     1      32.793   3.700  47.640  1.00  0.00     0.273 C 
HETATM   20  C14 UNL     1      34.264   3.345  47.520  1.00  0.00     0.032 C 
HETATM   21  C15 UNL     1      34.920   4.423  48.352  1.00  0.00     0.032 C 
HETATM   22  C16 UNL     1      34.016   5.599  48.161  1.00  0.00     0.273 C 
ENDBRANCH  17  18
ENDBRANCH  16  17
ENDBRANCH  12  15
ENDBRANCH   7  11
BRANCH   1  23
HETATM   23  C4  UNL     1      23.877   1.941  51.703  1.00  0.00     0.119 C 
HETATM   24  C3  UNL     1      23.789   1.473  52.942  1.00  0.00     0.019 C 
BRANCH  24  25
HETATM   25  C2  UNL     1      23.781   0.057  53.365  1.00  0.00    -0.009 C 
HETATM   26  C1  UNL     1      22.742  -0.745  53.208  1.00  0.00     0.011 C 
ENDBRANCH  24  25
ENDBRANCH   1  23
TORSDOF 6
ENDMDL
