MODEL 1
REMARK VINA RESULT:      -7.8      0.000      0.000
REMARK  5 active torsions:
REMARK  status: ('A' for Active; 'I' for Inactive)
REMARK    1  A    between atoms: O1_2  and  C2_3 
REMARK    2  A    between atoms: C5_7  and  C6_8 
REMARK    3  A    between atoms: C6_8  and  N1_9 
REMARK    4  A    between atoms: C10_13  and  C11_14 
REMARK    5  A    between atoms: C17_22  and  N3_23 
ROOT
HETATM    1  N1  UNL     1      25.125   1.851  52.913  1.00  0.00    -0.377 N 
HETATM    2  C7  UNL     1      24.832   0.885  51.901  1.00  0.00     0.083 C 
HETATM    3  C8  UNL     1      23.502   0.675  51.900  1.00  0.00    -0.000 C 
HETATM    4  C9  UNL     1      22.854   1.500  52.921  1.00  0.00     0.069 C 
HETATM    5  C10 UNL     1      21.730   2.360  52.452  1.00  0.00     0.153 C 
HETATM    6  N2  UNL     1      22.355   3.250  51.543  1.00  0.00    -0.264 NA
HETATM    7  C17 UNL     1      23.583   3.416  51.879  1.00  0.00     0.117 C 
HETATM    8  C18 UNL     1      23.906   2.608  53.087  1.00  0.00     0.162 C 
ENDROOT
BRANCH   1   9
HETATM    9  C6  UNL     1      26.289   2.151  53.694  1.00  0.00     0.136 C 
BRANCH   9  10
HETATM   10  C5  UNL     1      27.558   1.528  53.214  1.00  0.00     0.086 C 
HETATM   11  C2  UNL     1      27.808   0.283  53.963  1.00  0.00     0.075 C 
HETATM   12  C3  UNL     1      28.741   0.432  54.888  1.00  0.00     0.167 C 
HETATM   13  O2  UNL     1      29.166   1.740  54.827  1.00  0.00    -0.360 OA
HETATM   14  C4  UNL     1      28.682   2.430  53.712  1.00  0.00     0.187 C 
BRANCH  11  15
HETATM   15  O1  UNL     1      27.321  -1.016  53.955  1.00  0.00    -0.358 OA
HETATM   16  C1  UNL     1      27.216  -1.728  52.753  1.00  0.00     0.209 C 
ENDBRANCH  11  15
ENDBRANCH   9  10
ENDBRANCH   1   9
BRANCH   7  17
HETATM   17  N3  UNL     1      24.676   4.173  51.364  1.00  0.00    -0.386 N 
HETATM   18  H18 UNL     1      25.592   3.679  51.250  1.00  0.00     0.157 HD
HETATM   19  H19 UNL     1      24.782   5.171  51.056  1.00  0.00     0.157 HD
ENDBRANCH   7  17
BRANCH   5  20
HETATM   20  C11 UNL     1      20.566   1.636  51.906  1.00  0.00    -0.031 A 
HETATM   21  C12 UNL     1      20.077   1.871  50.655  1.00  0.00     0.009 A 
HETATM   22  C13 UNL     1      18.989   1.216  50.102  1.00  0.00     0.002 A 
HETATM   23  C14 UNL     1      18.332   0.252  50.840  1.00  0.00     0.019 A 
HETATM   24  C15 UNL     1      18.809  -0.006  52.112  1.00  0.00     0.011 A 
HETATM   25 BR1  UNL     1      17.911  -1.338  53.149  1.00  0.00    -0.051 Br
HETATM   26  C16 UNL     1      19.901   0.666  52.641  1.00  0.00     0.028 A 
ENDBRANCH   5  20
TORSDOF 5
ENDMDL
MODEL 2
REMARK VINA RESULT:      -7.4      1.994      2.250
REMARK  5 active torsions:
REMARK  status: ('A' for Active; 'I' for Inactive)
REMARK    1  A    between atoms: O1_2  and  C2_3 
REMARK    2  A    between atoms: C5_7  and  C6_8 
REMARK    3  A    between atoms: C6_8  and  N1_9 
REMARK    4  A    between atoms: C10_13  and  C11_14 
REMARK    5  A    between atoms: C17_22  and  N3_23 
ROOT
HETATM    1  N1  UNL     1      25.112   2.117  52.833  1.00  0.00    -0.377 N 
HETATM    2  C7  UNL     1      24.547   1.151  51.942  1.00  0.00     0.083 C 
HETATM    3  C8  UNL     1      23.248   1.461  51.766  1.00  0.00    -0.000 C 
HETATM    4  C9  UNL     1      22.897   2.653  52.539  1.00  0.00     0.069 C 
HETATM    5  C10 UNL     1      22.251   3.761  51.779  1.00  0.00     0.153 C 
HETATM    6  N2  UNL     1      23.253   4.152  50.856  1.00  0.00    -0.264 NA
HETATM    7  C17 UNL     1      24.413   3.908  51.350  1.00  0.00     0.117 C 
HETATM    8  C18 UNL     1      24.285   3.294  52.700  1.00  0.00     0.162 C 
ENDROOT
BRANCH   1   9
HETATM    9  C6  UNL     1      26.229   2.106  53.731  1.00  0.00     0.136 C 
BRANCH   9  10
HETATM   10  C5  UNL     1      27.476   1.484  53.194  1.00  0.00     0.086 C 
HETATM   11  C2  UNL     1      27.739   0.219  53.903  1.00  0.00     0.075 C 
HETATM   12  C3  UNL     1      28.703   0.336  54.800  1.00  0.00     0.167 C 
HETATM   13  O2  UNL     1      29.138   1.642  54.756  1.00  0.00    -0.360 OA
HETATM   14  C4  UNL     1      28.624   2.364  53.675  1.00  0.00     0.187 C 
BRANCH  11  15
HETATM   15  O1  UNL     1      27.240  -1.076  53.880  1.00  0.00    -0.358 OA
HETATM   16  C1  UNL     1      26.904  -1.685  52.665  1.00  0.00     0.209 C 
ENDBRANCH  11  15
ENDBRANCH   9  10
ENDBRANCH   1   9
BRANCH   7  17
HETATM   17  N3  UNL     1      25.756   4.081  50.905  1.00  0.00    -0.386 N 
HETATM   18  H18 UNL     1      26.412   3.274  51.027  1.00  0.00     0.157 HD
HETATM   19  H19 UNL     1      26.271   4.879  50.456  1.00  0.00     0.157 HD
ENDBRANCH   7  17
BRANCH   5  20
HETATM   20  C11 UNL     1      20.947   3.434  51.172  1.00  0.00    -0.031 A 
HETATM   21  C12 UNL     1      19.870   3.047  51.913  1.00  0.00     0.009 A 
HETATM   22  C13 UNL     1      18.628   2.731  51.387  1.00  0.00     0.002 A 
HETATM   23  C14 UNL     1      18.433   2.803  50.023  1.00  0.00     0.019 A 
HETATM   24  C15 UNL     1      19.509   3.193  49.249  1.00  0.00     0.011 A 
HETATM   25 BR1  UNL     1      19.256   3.299  47.356  1.00  0.00    -0.051 Br
HETATM   26  C16 UNL     1      20.742   3.504  49.803  1.00  0.00     0.028 A 
ENDBRANCH   5  20
TORSDOF 5
ENDMDL
MODEL 3
REMARK VINA RESULT:      -7.3      4.945      7.276
REMARK  5 active torsions:
REMARK  status: ('A' for Active; 'I' for Inactive)
REMARK    1  A    between atoms: O1_2  and  C2_3 
REMARK    2  A    between atoms: C5_7  and  C6_8 
REMARK    3  A    between atoms: C6_8  and  N1_9 
REMARK    4  A    between atoms: C10_13  and  C11_14 
REMARK    5  A    between atoms: C17_22  and  N3_23 
ROOT
HETATM    1  N1  UNL     1      24.425   2.275  51.227  1.00  0.00    -0.377 N 
HETATM    2  C7  UNL     1      25.761   2.470  51.698  1.00  0.00     0.083 C 
HETATM    3  C8  UNL     1      26.424   3.193  50.776  1.00  0.00    -0.000 C 
HETATM    4  C9  UNL     1      25.547   3.509  49.647  1.00  0.00     0.069 C 
HETATM    5  C10 UNL     1      25.447   4.951  49.279  1.00  0.00     0.153 C 
HETATM    6  N2  UNL     1      24.863   5.542  50.428  1.00  0.00    -0.264 NA
HETATM    7  C17 UNL     1      24.133   4.678  51.034  1.00  0.00     0.117 C 
HETATM    8  C18 UNL     1      24.173   3.372  50.320  1.00  0.00     0.162 C 
ENDROOT
BRANCH   1   9
HETATM    9  C6  UNL     1      23.418   1.285  51.475  1.00  0.00     0.136 C 
BRANCH   9  10
HETATM   10  C5  UNL     1      23.033   1.109  52.907  1.00  0.00     0.086 C 
HETATM   11  C2  UNL     1      23.432  -0.235  53.362  1.00  0.00     0.075 C 
HETATM   12  C3  UNL     1      22.406  -1.065  53.436  1.00  0.00     0.167 C 
HETATM   13  O2  UNL     1      21.288  -0.361  53.050  1.00  0.00    -0.360 OA
HETATM   14  C4  UNL     1      21.511   1.012  52.923  1.00  0.00     0.187 C 
BRANCH  11  15
HETATM   15  O1  UNL     1      24.609  -0.867  53.738  1.00  0.00    -0.358 OA
HETATM   16  C1  UNL     1      25.682  -0.124  54.248  1.00  0.00     0.209 C 
ENDBRANCH  11  15
ENDBRANCH   9  10
ENDBRANCH   1   9
BRANCH   7  17
HETATM   17  N3  UNL     1      23.321   4.687  52.206  1.00  0.00    -0.386 N 
HETATM   18  H18 UNL     1      22.638   3.902  52.324  1.00  0.00     0.157 HD
HETATM   19  H19 UNL     1      23.246   5.336  53.027  1.00  0.00     0.157 HD
ENDBRANCH   7  17
BRANCH   5  20
HETATM   20  C11 UNL     1      26.705   5.578  48.833  1.00  0.00    -0.031 A 
HETATM   21  C12 UNL     1      27.828   4.855  48.561  1.00  0.00     0.009 A 
HETATM   22  C13 UNL     1      29.030   5.401  48.140  1.00  0.00     0.002 A 
HETATM   23  C14 UNL     1      29.131   6.767  47.973  1.00  0.00     0.019 A 
HETATM   24  C15 UNL     1      28.006   7.523  48.241  1.00  0.00     0.011 A 
HETATM   25 BR1  UNL     1      28.127   9.418  48.015  1.00  0.00    -0.051 Br
HETATM   26  C16 UNL     1      26.814   6.950  48.662  1.00  0.00     0.028 A 
ENDBRANCH   5  20
TORSDOF 5
ENDMDL
MODEL 4
REMARK VINA RESULT:      -7.3      3.593      4.253
REMARK  5 active torsions:
REMARK  status: ('A' for Active; 'I' for Inactive)
REMARK    1  A    between atoms: O1_2  and  C2_3 
REMARK    2  A    between atoms: C5_7  and  C6_8 
REMARK    3  A    between atoms: C6_8  and  N1_9 
REMARK    4  A    between atoms: C10_13  and  C11_14 
REMARK    5  A    between atoms: C17_22  and  N3_23 
ROOT
HETATM    1  N1  UNL     1      25.595   2.519  51.901  1.00  0.00    -0.377 N 
HETATM    2  C7  UNL     1      26.214   3.276  50.859  1.00  0.00     0.083 C 
HETATM    3  C8  UNL     1      25.354   3.339  49.825  1.00  0.00    -0.000 C 
HETATM    4  C9  UNL     1      24.120   2.619  50.142  1.00  0.00     0.069 C 
HETATM    5  C10 UNL     1      22.852   3.384  49.971  1.00  0.00     0.153 C 
HETATM    6  N2  UNL     1      22.971   4.431  50.920  1.00  0.00    -0.264 NA
HETATM    7  C17 UNL     1      23.705   4.043  51.899  1.00  0.00     0.117 C 
HETATM    8  C18 UNL     1      24.173   2.647  51.678  1.00  0.00     0.162 C 
ENDROOT
BRANCH   1   9
HETATM    9  C6  UNL     1      26.095   1.741  52.997  1.00  0.00     0.136 C 
BRANCH   9  10
HETATM   10  C5  UNL     1      27.488   1.227  52.832  1.00  0.00     0.086 C 
HETATM   11  C2  UNL     1      27.679   0.044  53.690  1.00  0.00     0.075 C 
HETATM   12  C3  UNL     1      28.376   0.320  54.779  1.00  0.00     0.167 C 
HETATM   13  O2  UNL     1      28.688   1.660  54.730  1.00  0.00    -0.360 OA
HETATM   14  C4  UNL     1      28.396   2.255  53.499  1.00  0.00     0.187 C 
BRANCH  11  15
HETATM   15  O1  UNL     1      27.321  -1.297  53.658  1.00  0.00    -0.358 OA
HETATM   16  C1  UNL     1      26.831  -1.873  52.479  1.00  0.00     0.209 C 
ENDBRANCH  11  15
ENDBRANCH   9  10
ENDBRANCH   1   9
BRANCH   7  17
HETATM   17  N3  UNL     1      24.165   4.635  53.112  1.00  0.00    -0.386 N 
HETATM   18  H18 UNL     1      24.545   5.610  53.058  1.00  0.00     0.157 HD
HETATM   19  H19 UNL     1      24.215   4.301  54.106  1.00  0.00     0.157 HD
ENDBRANCH   7  17
BRANCH   5  20
HETATM   20  C11 UNL     1      22.564   3.829  48.594  1.00  0.00    -0.031 A 
HETATM   21  C12 UNL     1      22.194   2.965  47.607  1.00  0.00     0.009 A 
HETATM   22  C13 UNL     1      21.914   3.337  46.302  1.00  0.00     0.002 A 
HETATM   23  C14 UNL     1      22.004   4.667  45.944  1.00  0.00     0.019 A 
HETATM   24  C15 UNL     1      22.376   5.564  46.927  1.00  0.00     0.011 A 
HETATM   25 BR1  UNL     1      22.506   7.411  46.448  1.00  0.00    -0.051 Br
HETATM   26  C16 UNL     1      22.651   5.163  48.227  1.00  0.00     0.028 A 
ENDBRANCH   5  20
TORSDOF 5
ENDMDL
MODEL 5
REMARK VINA RESULT:      -7.2      3.905      5.305
REMARK  5 active torsions:
REMARK  status: ('A' for Active; 'I' for Inactive)
REMARK    1  A    between atoms: O1_2  and  C2_3 
REMARK    2  A    between atoms: C5_7  and  C6_8 
REMARK    3  A    between atoms: C6_8  and  N1_9 
REMARK    4  A    between atoms: C10_13  and  C11_14 
REMARK    5  A    between atoms: C17_22  and  N3_23 
ROOT
HETATM    1  N1  UNL     1      25.408   2.121  51.282  1.00  0.00    -0.377 N 
HETATM    2  C7  UNL     1      26.358   3.002  50.678  1.00  0.00     0.083 C 
HETATM    3  C8  UNL     1      25.727   3.685  49.704  1.00  0.00    -0.000 C 
HETATM    4  C9  UNL     1      24.323   3.280  49.622  1.00  0.00     0.069 C 
HETATM    5  C10 UNL     1      23.319   4.380  49.692  1.00  0.00     0.153 C 
HETATM    6  N2  UNL     1      23.514   4.919  50.989  1.00  0.00    -0.264 NA
HETATM    7  C17 UNL     1      23.957   4.004  51.774  1.00  0.00     0.117 C 
HETATM    8  C18 UNL     1      24.116   2.720  51.038  1.00  0.00     0.162 C 
ENDROOT
BRANCH   1   9
HETATM    9  C6  UNL     1      25.516   0.885  52.000  1.00  0.00     0.136 C 
BRANCH   9  10
HETATM   10  C5  UNL     1      25.339   0.987  53.480  1.00  0.00     0.086 C 
HETATM   11  C2  UNL     1      26.638   1.282  54.111  1.00  0.00     0.075 C 
HETATM   12  C3  UNL     1      27.171   0.217  54.686  1.00  0.00     0.167 C 
HETATM   13  O2  UNL     1      26.297  -0.828  54.487  1.00  0.00    -0.360 OA
HETATM   14  C4  UNL     1      25.063  -0.431  53.968  1.00  0.00     0.187 C 
BRANCH  11  15
HETATM   15  O1  UNL     1      27.459   2.390  54.265  1.00  0.00    -0.358 OA
HETATM   16  C1  UNL     1      28.696   2.454  53.609  1.00  0.00     0.209 C 
ENDBRANCH  11  15
ENDBRANCH   9  10
ENDBRANCH   1   9
BRANCH   7  17
HETATM   17  N3  UNL     1      24.327   3.947  53.149  1.00  0.00    -0.386 N 
HETATM   18  H18 UNL     1      24.155   4.801  53.730  1.00  0.00     0.157 HD
HETATM   19  H19 UNL     1      24.759   3.203  53.750  1.00  0.00     0.157 HD
ENDBRANCH   7  17
BRANCH   5  20
HETATM   20  C11 UNL     1      23.383   5.366  48.597  1.00  0.00    -0.031 A 
HETATM   21  C12 UNL     1      24.186   6.467  48.648  1.00  0.00     0.009 A 
HETATM   22  C13 UNL     1      24.279   7.417  47.645  1.00  0.00     0.002 A 
HETATM   23  C14 UNL     1      23.521   7.270  46.501  1.00  0.00     0.019 A 
HETATM   24  C15 UNL     1      22.699   6.162  46.424  1.00  0.00     0.011 A 
HETATM   25 BR1  UNL     1      21.641   5.942  44.846  1.00  0.00    -0.051 Br
HETATM   26  C16 UNL     1      22.626   5.225  47.445  1.00  0.00     0.028 A 
ENDBRANCH   5  20
TORSDOF 5
ENDMDL
MODEL 6
REMARK VINA RESULT:      -7.1      2.447      3.346
REMARK  5 active torsions:
REMARK  status: ('A' for Active; 'I' for Inactive)
REMARK    1  A    between atoms: O1_2  and  C2_3 
REMARK    2  A    between atoms: C5_7  and  C6_8 
REMARK    3  A    between atoms: C6_8  and  N1_9 
REMARK    4  A    between atoms: C10_13  and  C11_14 
REMARK    5  A    between atoms: C17_22  and  N3_23 
ROOT
HETATM    1  N1  UNL     1      25.125   2.343  53.197  1.00  0.00    -0.377 N 
HETATM    2  C7  UNL     1      24.220   3.444  53.304  1.00  0.00     0.083 C 
HETATM    3  C8  UNL     1      23.793   3.752  52.065  1.00  0.00    -0.000 C 
HETATM    4  C9  UNL     1      24.404   2.861  51.078  1.00  0.00     0.069 C 
HETATM    5  C10 UNL     1      23.464   2.151  50.164  1.00  0.00     0.153 C 
HETATM    6  N2  UNL     1      22.709   1.333  51.042  1.00  0.00    -0.264 NA
HETATM    7  C17 UNL     1      23.418   1.035  52.070  1.00  0.00     0.117 C 
HETATM    8  C18 UNL     1      24.764   1.665  51.974  1.00  0.00     0.162 C 
ENDROOT
BRANCH   1   9
HETATM    9  C6  UNL     1      26.207   1.864  54.007  1.00  0.00     0.136 C 
BRANCH   9  10
HETATM   10  C5  UNL     1      27.436   1.461  53.258  1.00  0.00     0.086 C 
HETATM   11  C2  UNL     1      27.915   0.162  53.763  1.00  0.00     0.075 C 
HETATM   12  C3  UNL     1      28.966   0.288  54.555  1.00  0.00     0.167 C 
HETATM   13  O2  UNL     1      29.254   1.632  54.634  1.00  0.00    -0.360 OA
HETATM   14  C4  UNL     1      28.537   2.409  53.720  1.00  0.00     0.187 C 
BRANCH  11  15
HETATM   15  O1  UNL     1      27.555  -1.171  53.627  1.00  0.00    -0.358 OA
HETATM   16  C1  UNL     1      26.657  -1.565  52.626  1.00  0.00     0.209 C 
ENDBRANCH  11  15
ENDBRANCH   9  10
ENDBRANCH   1   9
BRANCH   7  17
HETATM   17  N3  UNL     1      23.208   0.266  53.252  1.00  0.00    -0.386 N 
HETATM   18  H18 UNL     1      23.230  -0.776  53.159  1.00  0.00     0.157 HD
HETATM   19  H19 UNL     1      23.025   0.519  54.255  1.00  0.00     0.157 HD
ENDBRANCH   7  17
BRANCH   5  20
HETATM   20  C11 UNL     1      22.659   3.022  49.286  1.00  0.00    -0.031 A 
HETATM   21  C12 UNL     1      23.213   4.003  48.519  1.00  0.00     0.009 A 
HETATM   22  C13 UNL     1      22.497   4.843  47.681  1.00  0.00     0.002 A 
HETATM   23  C14 UNL     1      21.128   4.702  47.592  1.00  0.00     0.019 A 
HETATM   24  C15 UNL     1      20.541   3.714  48.359  1.00  0.00     0.011 A 
HETATM   25 BR1  UNL     1      18.643   3.505  48.248  1.00  0.00    -0.051 Br
HETATM   26  C16 UNL     1      21.283   2.887  49.190  1.00  0.00     0.028 A 
ENDBRANCH   5  20
TORSDOF 5
ENDMDL
MODEL 7
REMARK VINA RESULT:      -7.1      4.002      5.418
REMARK  5 active torsions:
REMARK  status: ('A' for Active; 'I' for Inactive)
REMARK    1  A    between atoms: O1_2  and  C2_3 
REMARK    2  A    between atoms: C5_7  and  C6_8 
REMARK    3  A    between atoms: C6_8  and  N1_9 
REMARK    4  A    between atoms: C10_13  and  C11_14 
REMARK    5  A    between atoms: C17_22  and  N3_23 
ROOT
HETATM    1  N1  UNL     1      24.190   5.322  50.816  1.00  0.00    -0.377 N 
HETATM    2  C7  UNL     1      23.681   5.188  52.146  1.00  0.00     0.083 C 
HETATM    3  C8  UNL     1      22.859   4.122  52.170  1.00  0.00    -0.000 C 
HETATM    4  C9  UNL     1      22.789   3.501  50.846  1.00  0.00     0.069 C 
HETATM    5  C10 UNL     1      23.082   2.040  50.791  1.00  0.00     0.153 C 
HETATM    6  N2  UNL     1      24.435   1.961  51.209  1.00  0.00    -0.264 NA
HETATM    7  C17 UNL     1      25.043   3.050  50.905  1.00  0.00     0.117 C 
HETATM    8  C18 UNL     1      24.110   3.999  50.239  1.00  0.00     0.162 C 
ENDROOT
BRANCH   1   9
HETATM    9  C6  UNL     1      24.701   6.423  50.054  1.00  0.00     0.136 C 
BRANCH   9  10
HETATM   10  C5  UNL     1      25.063   6.107  48.639  1.00  0.00     0.086 C 
HETATM   11  C2  UNL     1      26.530   6.103  48.497  1.00  0.00     0.075 C 
HETATM   12  C3  UNL     1      26.981   7.198  47.910  1.00  0.00     0.167 C 
HETATM   13  O2  UNL     1      25.887   7.985  47.629  1.00  0.00    -0.360 OA
HETATM   14  C4  UNL     1      24.667   7.332  47.822  1.00  0.00     0.187 C 
BRANCH  11  15
HETATM   15  O1  UNL     1      27.575   5.247  48.817  1.00  0.00    -0.358 OA
HETATM   16  C1  UNL     1      28.859   5.472  48.305  1.00  0.00     0.209 C 
ENDBRANCH  11  15
ENDBRANCH   9  10
ENDBRANCH   1   9
BRANCH   7  17
HETATM   17  N3  UNL     1      26.372   3.542  51.064  1.00  0.00    -0.386 N 
HETATM   18  H18 UNL     1      26.939   3.689  50.196  1.00  0.00     0.157 HD
HETATM   19  H19 UNL     1      26.949   3.806  51.901  1.00  0.00     0.157 HD
ENDBRANCH   7  17
BRANCH   5  20
HETATM   20  C11 UNL     1      22.151   1.180  51.547  1.00  0.00    -0.031 A 
HETATM   21  C12 UNL     1      20.845   1.023  51.191  1.00  0.00     0.009 A 
HETATM   22  C13 UNL     1      19.937   0.227  51.870  1.00  0.00     0.002 A 
HETATM   23  C14 UNL     1      20.350  -0.469  52.987  1.00  0.00     0.019 A 
HETATM   24  C15 UNL     1      21.670  -0.327  53.370  1.00  0.00     0.011 A 
HETATM   25 BR1  UNL     1      22.260  -1.285  54.916  1.00  0.00    -0.051 Br
HETATM   26  C16 UNL     1      22.559   0.477  52.670  1.00  0.00     0.028 A 
ENDBRANCH   5  20
TORSDOF 5
ENDMDL
MODEL 8
REMARK VINA RESULT:      -7.1      3.465      4.835
REMARK  5 active torsions:
REMARK  status: ('A' for Active; 'I' for Inactive)
REMARK    1  A    between atoms: O1_2  and  C2_3 
REMARK    2  A    between atoms: C5_7  and  C6_8 
REMARK    3  A    between atoms: C6_8  and  N1_9 
REMARK    4  A    between atoms: C10_13  and  C11_14 
REMARK    5  A    between atoms: C17_22  and  N3_23 
ROOT
HETATM    1  N1  UNL     1      25.578   2.833  51.615  1.00  0.00    -0.377 N 
HETATM    2  C7  UNL     1      24.421   3.426  52.211  1.00  0.00     0.083 C 
HETATM    3  C8  UNL     1      23.471   2.477  52.304  1.00  0.00    -0.000 C 
HETATM    4  C9  UNL     1      23.962   1.206  51.769  1.00  0.00     0.069 C 
HETATM    5  C10 UNL     1      23.846   0.026  52.672  1.00  0.00     0.153 C 
HETATM    6  N2  UNL     1      24.687   0.363  53.762  1.00  0.00    -0.264 NA
HETATM    7  C17 UNL     1      25.623   1.144  53.359  1.00  0.00     0.117 C 
HETATM    8  C18 UNL     1      25.478   1.420  51.903  1.00  0.00     0.162 C 
ENDROOT
BRANCH   1   9
HETATM    9  C6  UNL     1      26.684   3.350  50.864  1.00  0.00     0.136 C 
BRANCH   9  10
HETATM   10  C5  UNL     1      26.431   3.544  49.405  1.00  0.00     0.086 C 
HETATM   11  C2  UNL     1      27.251   4.664  48.909  1.00  0.00     0.075 C 
HETATM   12  C3  UNL     1      26.542   5.767  48.735  1.00  0.00     0.167 C 
HETATM   13  O2  UNL     1      25.245   5.474  49.091  1.00  0.00    -0.360 OA
HETATM   14  C4  UNL     1      25.019   4.111  49.297  1.00  0.00     0.187 C 
BRANCH  11  15
HETATM   15  O1  UNL     1      28.581   4.872  48.571  1.00  0.00    -0.358 OA
HETATM   16  C1  UNL     1      28.995   6.101  48.043  1.00  0.00     0.209 C 
ENDBRANCH  11  15
ENDBRANCH   9  10
ENDBRANCH   1   9
BRANCH   7  17
HETATM   17  N3  UNL     1      26.732   1.793  53.977  1.00  0.00    -0.386 N 
HETATM   18  H18 UNL     1      27.606   1.897  53.409  1.00  0.00     0.157 HD
HETATM   19  H19 UNL     1      26.884   2.215  54.926  1.00  0.00     0.157 HD
ENDBRANCH   7  17
BRANCH   5  20
HETATM   20  C11 UNL     1      22.469  -0.349  53.047  1.00  0.00    -0.031 A 
HETATM   21  C12 UNL     1      22.188  -1.097  54.151  1.00  0.00     0.009 A 
HETATM   22  C13 UNL     1      20.912  -1.472  54.541  1.00  0.00     0.002 A 
HETATM   23  C14 UNL     1      19.830  -1.078  53.782  1.00  0.00     0.019 A 
HETATM   24  C15 UNL     1      20.087  -0.319  52.656  1.00  0.00     0.011 A 
HETATM   25 BR1  UNL     1      18.598   0.236  51.592  1.00  0.00    -0.051 Br
HETATM   26  C16 UNL     1      21.376   0.043  52.289  1.00  0.00     0.028 A 
ENDBRANCH   5  20
TORSDOF 5
ENDMDL
MODEL 9
REMARK VINA RESULT:      -7.0      4.061      4.937
REMARK  5 active torsions:
REMARK  status: ('A' for Active; 'I' for Inactive)
REMARK    1  A    between atoms: O1_2  and  C2_3 
REMARK    2  A    between atoms: C5_7  and  C6_8 
REMARK    3  A    between atoms: C6_8  and  N1_9 
REMARK    4  A    between atoms: C10_13  and  C11_14 
REMARK    5  A    between atoms: C17_22  and  N3_23 
ROOT
HETATM    1  N1  UNL     1      25.508   2.684  51.455  1.00  0.00    -0.377 N 
HETATM    2  C7  UNL     1      26.146   3.455  50.434  1.00  0.00     0.083 C 
HETATM    3  C8  UNL     1      25.296   3.551  49.394  1.00  0.00    -0.000 C 
HETATM    4  C9  UNL     1      24.050   2.841  49.686  1.00  0.00     0.069 C 
HETATM    5  C10 UNL     1      22.794   3.626  49.520  1.00  0.00     0.153 C 
HETATM    6  N2  UNL     1      22.918   4.651  50.492  1.00  0.00    -0.264 NA
HETATM    7  C17 UNL     1      23.638   4.234  51.469  1.00  0.00     0.117 C 
HETATM    8  C18 UNL     1      24.089   2.837  51.222  1.00  0.00     0.162 C 
ENDROOT
BRANCH   1   9
HETATM    9  C6  UNL     1      25.988   1.878  52.538  1.00  0.00     0.136 C 
BRANCH   9  10
HETATM   10  C5  UNL     1      25.775   0.408  52.384  1.00  0.00     0.086 C 
HETATM   11  C2  UNL     1      24.783  -0.051  53.374  1.00  0.00     0.075 C 
HETATM   12  C3  UNL     1      25.344  -0.680  54.393  1.00  0.00     0.167 C 
HETATM   13  O2  UNL     1      26.702  -0.686  54.166  1.00  0.00    -0.360 OA
HETATM   14  C4  UNL     1      27.054  -0.256  52.883  1.00  0.00     0.187 C 
BRANCH  11  15
HETATM   15  O1  UNL     1      23.405  -0.000  53.522  1.00  0.00    -0.358 OA
HETATM   16  C1  UNL     1      22.743  -0.932  54.332  1.00  0.00     0.209 C 
ENDBRANCH  11  15
ENDBRANCH   9  10
ENDBRANCH   1   9
BRANCH   7  17
HETATM   17  N3  UNL     1      24.095   4.795  52.697  1.00  0.00    -0.386 N 
HETATM   18  H18 UNL     1      23.945   5.821  52.844  1.00  0.00     0.157 HD
HETATM   19  H19 UNL     1      24.577   4.393  53.539  1.00  0.00     0.157 HD
ENDBRANCH   7  17
BRANCH   5  20
HETATM   20  C11 UNL     1      22.523   4.103  48.151  1.00  0.00    -0.031 A 
HETATM   21  C12 UNL     1      22.100   3.273  47.155  1.00  0.00     0.009 A 
HETATM   22  C13 UNL     1      21.834   3.677  45.857  1.00  0.00     0.002 A 
HETATM   23  C14 UNL     1      21.997   5.003  45.514  1.00  0.00     0.019 A 
HETATM   24  C15 UNL     1      22.424   5.866  46.505  1.00  0.00     0.011 A 
HETATM   25 BR1  UNL     1      22.655   7.709  46.047  1.00  0.00    -0.051 Br
HETATM   26  C16 UNL     1      22.683   5.435  47.798  1.00  0.00     0.028 A 
ENDBRANCH   5  20
TORSDOF 5
ENDMDL
