MODEL 1
REMARK VINA RESULT:      -7.9      0.000      0.000
REMARK  3 active torsions:
REMARK  status: ('A' for Active; 'I' for Inactive)
REMARK    1  A    between atoms: O1_2  and  C2_3 
REMARK    2  A    between atoms: C7_8  and  O2_9 
REMARK    3  A    between atoms: N3_14  and  C10_15 
ROOT
HETATM    1  C2  UNL     1      26.973   0.108  53.396  1.00  0.00     0.102 A 
HETATM    2  C3  UNL     1      27.134   0.981  52.338  1.00  0.00     0.054 A 
HETATM    3  C4  UNL     1      26.062   1.648  51.780  1.00  0.00     0.013 A 
HETATM    4  C5  UNL     1      24.813   1.378  52.354  1.00  0.00     0.091 A 
HETATM    5  C6  UNL     1      24.655   0.509  53.408  1.00  0.00     0.074 A 
HETATM    6  C7  UNL     1      25.738  -0.148  53.953  1.00  0.00     0.103 A 
HETATM    7  N1  UNL     1      23.669   1.865  52.012  1.00  0.00    -0.177 NA
HETATM    8  N2  UNL     1      23.412   2.777  50.984  1.00  0.00    -0.295 N 
HETATM    9  C9  UNL     1      24.147   3.004  49.759  1.00  0.00     0.271 C 
HETATM   10  N3  UNL     1      25.529   3.285  49.968  1.00  0.00    -0.338 N 
HETATM   11  C16 UNL     1      26.325   2.453  50.779  1.00  0.00     0.107 C 
HETATM   12  H9  UNL     1      22.543   3.357  51.186  1.00  0.00     0.184 HD
ENDROOT
BRANCH  10  13
HETATM   13  C10 UNL     1      26.194   4.392  49.382  1.00  0.00     0.035 A 
HETATM   14  C11 UNL     1      27.501   4.383  48.947  1.00  0.00     0.029 A 
HETATM   15  C12 UNL     1      28.168   5.441  48.365  1.00  0.00     0.002 A 
HETATM   16  C13 UNL     1      27.478   6.623  48.194  1.00  0.00     0.000 A 
HETATM   17  C14 UNL     1      26.166   6.685  48.613  1.00  0.00     0.002 A 
HETATM   18  C15 UNL     1      25.553   5.593  49.188  1.00  0.00     0.029 A 
ENDBRANCH  10  13
BRANCH   1  19
HETATM   19  O1  UNL     1      28.060  -0.556  53.948  1.00  0.00    -0.353 OA
HETATM   20  C1  UNL     1      29.390  -0.073  53.868  1.00  0.00     0.210 C 
ENDBRANCH   1  19
BRANCH   6  21
HETATM   21  O2  UNL     1      25.594  -1.020  55.006  1.00  0.00    -0.353 OA
HETATM   22  C8  UNL     1      24.266  -1.329  55.437  1.00  0.00     0.210 C 
ENDBRANCH   6  21
TORSDOF 3
ENDMDL
MODEL 2
REMARK VINA RESULT:      -7.8      3.317      5.882
REMARK  3 active torsions:
REMARK  status: ('A' for Active; 'I' for Inactive)
REMARK    1  A    between atoms: O1_2  and  C2_3 
REMARK    2  A    between atoms: C7_8  and  O2_9 
REMARK    3  A    between atoms: N3_14  and  C10_15 
ROOT
HETATM    1  C2  UNL     1      21.542   0.702  52.969  1.00  0.00     0.102 A 
HETATM    2  C3  UNL     1      22.853   0.281  52.880  1.00  0.00     0.054 A 
HETATM    3  C4  UNL     1      23.866   1.142  52.510  1.00  0.00     0.013 A 
HETATM    4  C5  UNL     1      23.473   2.459  52.234  1.00  0.00     0.091 A 
HETATM    5  C6  UNL     1      22.166   2.876  52.325  1.00  0.00     0.074 A 
HETATM    6  C7  UNL     1      21.167   2.000  52.697  1.00  0.00     0.103 A 
HETATM    7  N1  UNL     1      24.223   3.442  51.867  1.00  0.00    -0.177 NA
HETATM    8  N2  UNL     1      25.606   3.419  51.659  1.00  0.00    -0.295 N 
HETATM    9  C9  UNL     1      26.453   2.313  51.272  1.00  0.00     0.271 C 
HETATM   10  N3  UNL     1      26.337   1.180  52.130  1.00  0.00    -0.338 N 
HETATM   11  C16 UNL     1      25.077   0.641  52.455  1.00  0.00     0.107 C 
HETATM   12  H9  UNL     1      26.040   4.378  51.822  1.00  0.00     0.184 HD
ENDROOT
BRANCH  10  13
HETATM   13  C10 UNL     1      27.454   0.520  52.700  1.00  0.00     0.035 A 
HETATM   14  C11 UNL     1      27.622  -0.847  52.743  1.00  0.00     0.029 A 
HETATM   15  C12 UNL     1      28.702  -1.514  53.281  1.00  0.00     0.002 A 
HETATM   16  C13 UNL     1      29.718  -0.760  53.830  1.00  0.00     0.000 A 
HETATM   17  C14 UNL     1      29.599   0.614  53.814  1.00  0.00     0.002 A 
HETATM   18  C15 UNL     1      28.494   1.223  53.261  1.00  0.00     0.029 A 
ENDBRANCH  10  13
BRANCH   1  19
HETATM   19  O1  UNL     1      20.532  -0.177  53.342  1.00  0.00    -0.353 OA
HETATM   20  C1  UNL     1      20.756  -1.325  54.141  1.00  0.00     0.210 C 
ENDBRANCH   1  19
BRANCH   6  21
HETATM   21  O2  UNL     1      19.857   2.403  52.790  1.00  0.00    -0.353 OA
HETATM   22  C8  UNL     1      19.280   3.061  51.658  1.00  0.00     0.210 C 
ENDBRANCH   6  21
TORSDOF 3
ENDMDL
MODEL 3
REMARK VINA RESULT:      -7.8      1.851      4.009
REMARK  3 active torsions:
REMARK  status: ('A' for Active; 'I' for Inactive)
REMARK    1  A    between atoms: O1_2  and  C2_3 
REMARK    2  A    between atoms: C7_8  and  O2_9 
REMARK    3  A    between atoms: N3_14  and  C10_15 
ROOT
HETATM    1  C2  UNL     1      25.981  -0.196  53.887  1.00  0.00     0.102 A 
HETATM    2  C3  UNL     1      25.026   0.397  53.086  1.00  0.00     0.054 A 
HETATM    3  C4  UNL     1      25.346   1.415  52.211  1.00  0.00     0.013 A 
HETATM    4  C5  UNL     1      26.693   1.800  52.194  1.00  0.00     0.091 A 
HETATM    5  C6  UNL     1      27.643   1.207  52.991  1.00  0.00     0.074 A 
HETATM    6  C7  UNL     1      27.304   0.190  53.860  1.00  0.00     0.103 A 
HETATM    7  N1  UNL     1      27.238   2.722  51.475  1.00  0.00    -0.177 NA
HETATM    8  N2  UNL     1      26.606   3.552  50.544  1.00  0.00    -0.295 N 
HETATM    9  C9  UNL     1      25.230   3.996  50.501  1.00  0.00     0.271 C 
HETATM   10  N3  UNL     1      24.287   2.926  50.525  1.00  0.00    -0.338 N 
HETATM   11  C16 UNL     1      24.363   1.911  51.498  1.00  0.00     0.107 C 
HETATM   12  H9  UNL     1      27.281   3.872  49.786  1.00  0.00     0.184 HD
ENDROOT
BRANCH  10  13
HETATM   13  C10 UNL     1      23.220   2.812  49.598  1.00  0.00     0.035 A 
HETATM   14  C11 UNL     1      22.995   3.675  48.548  1.00  0.00     0.029 A 
HETATM   15  C12 UNL     1      21.973   3.581  47.627  1.00  0.00     0.002 A 
HETATM   16  C13 UNL     1      21.085   2.532  47.753  1.00  0.00     0.000 A 
HETATM   17  C14 UNL     1      21.265   1.639  48.788  1.00  0.00     0.002 A 
HETATM   18  C15 UNL     1      22.307   1.786  49.677  1.00  0.00     0.029 A 
ENDBRANCH  10  13
BRANCH   1  19
HETATM   19  O1  UNL     1      25.645  -1.220  54.763  1.00  0.00    -0.353 OA
HETATM   20  C1  UNL     1      24.456  -1.225  55.535  1.00  0.00     0.210 C 
ENDBRANCH   1  19
BRANCH   6  21
HETATM   21  O2  UNL     1      28.243  -0.411  54.663  1.00  0.00    -0.353 OA
HETATM   22  C8  UNL     1      29.523  -0.697  54.093  1.00  0.00     0.210 C 
ENDBRANCH   6  21
TORSDOF 3
ENDMDL
MODEL 4
REMARK VINA RESULT:      -7.6      2.994      6.491
REMARK  3 active torsions:
REMARK  status: ('A' for Active; 'I' for Inactive)
REMARK    1  A    between atoms: O1_2  and  C2_3 
REMARK    2  A    between atoms: C7_8  and  O2_9 
REMARK    3  A    between atoms: N3_14  and  C10_15 
ROOT
HETATM    1  C2  UNL     1      25.850   4.226  49.424  1.00  0.00     0.102 A 
HETATM    2  C3  UNL     1      26.517   3.349  50.256  1.00  0.00     0.054 A 
HETATM    3  C4  UNL     1      25.838   2.450  51.054  1.00  0.00     0.013 A 
HETATM    4  C5  UNL     1      24.441   2.492  50.961  1.00  0.00     0.091 A 
HETATM    5  C6  UNL     1      23.779   3.365  50.131  1.00  0.00     0.074 A 
HETATM    6  C7  UNL     1      24.475   4.257  49.341  1.00  0.00     0.103 A 
HETATM    7  N1  UNL     1      23.589   1.765  51.602  1.00  0.00    -0.177 NA
HETATM    8  N2  UNL     1      23.867   0.766  52.540  1.00  0.00    -0.295 N 
HETATM    9  C9  UNL     1      25.008   0.627  53.416  1.00  0.00     0.271 C 
HETATM   10  N3  UNL     1      26.258   0.644  52.730  1.00  0.00    -0.338 N 
HETATM   11  C16 UNL     1      26.567   1.663  51.807  1.00  0.00     0.107 C 
HETATM   12  H9  UNL     1      23.094   0.033  52.568  1.00  0.00     0.184 HD
ENDROOT
BRANCH  10  13
HETATM   13  C10 UNL     1      27.265  -0.335  52.926  1.00  0.00     0.035 A 
HETATM   14  C11 UNL     1      27.125  -1.675  52.638  1.00  0.00     0.029 A 
HETATM   15  C12 UNL     1      28.090  -2.645  52.809  1.00  0.00     0.002 A 
HETATM   16  C13 UNL     1      29.314  -2.256  53.312  1.00  0.00     0.000 A 
HETATM   17  C14 UNL     1      29.506  -0.926  53.618  1.00  0.00     0.002 A 
HETATM   18  C15 UNL     1      28.502  -0.002  53.425  1.00  0.00     0.029 A 
ENDBRANCH  10  13
BRANCH   1  19
HETATM   19  O1  UNL     1      26.547   5.126  48.627  1.00  0.00    -0.353 OA
HETATM   20  C1  UNL     1      27.962   5.173  48.560  1.00  0.00     0.210 C 
ENDBRANCH   1  19
BRANCH   6  21
HETATM   21  O2  UNL     1      23.826   5.136  48.508  1.00  0.00    -0.353 OA
HETATM   22  C8  UNL     1      22.650   5.780  49.006  1.00  0.00     0.210 C 
ENDBRANCH   6  21
TORSDOF 3
ENDMDL
MODEL 5
REMARK VINA RESULT:      -7.5      3.675      6.296
REMARK  3 active torsions:
REMARK  status: ('A' for Active; 'I' for Inactive)
REMARK    1  A    between atoms: O1_2  and  C2_3 
REMARK    2  A    between atoms: C7_8  and  O2_9 
REMARK    3  A    between atoms: N3_14  and  C10_15 
ROOT
HETATM    1  C2  UNL     1      23.084   4.118  52.231  1.00  0.00     0.102 A 
HETATM    2  C3  UNL     1      24.202   3.455  52.696  1.00  0.00     0.054 A 
HETATM    3  C4  UNL     1      24.179   2.103  52.973  1.00  0.00     0.013 A 
HETATM    4  C5  UNL     1      22.955   1.459  52.750  1.00  0.00     0.091 A 
HETATM    5  C6  UNL     1      21.843   2.121  52.285  1.00  0.00     0.074 A 
HETATM    6  C7  UNL     1      21.886   3.473  52.015  1.00  0.00     0.103 A 
HETATM    7  N1  UNL     1      22.678   0.213  52.936  1.00  0.00    -0.177 NA
HETATM    8  N2  UNL     1      23.540  -0.784  53.405  1.00  0.00    -0.295 N 
HETATM    9  C9  UNL     1      24.694  -0.663  54.268  1.00  0.00     0.271 C 
HETATM   10  N3  UNL     1      25.665   0.267  53.793  1.00  0.00    -0.338 N 
HETATM   11  C16 UNL     1      25.295   1.572  53.412  1.00  0.00     0.107 C 
HETATM   12  H9  UNL     1      23.256  -1.745  53.043  1.00  0.00     0.184 HD
ENDROOT
BRANCH  10  13
HETATM   13  C10 UNL     1      27.043  -0.040  53.679  1.00  0.00     0.035 A 
HETATM   14  C11 UNL     1      28.070   0.807  54.039  1.00  0.00     0.029 A 
HETATM   15  C12 UNL     1      29.418   0.530  53.949  1.00  0.00     0.002 A 
HETATM   16  C13 UNL     1      29.792  -0.704  53.458  1.00  0.00     0.000 A 
HETATM   17  C14 UNL     1      28.803  -1.589  53.083  1.00  0.00     0.002 A 
HETATM   18  C15 UNL     1      27.471  -1.254  53.196  1.00  0.00     0.029 A 
ENDBRANCH  10  13
BRANCH   1  19
HETATM   19  O1  UNL     1      23.122   5.480  51.957  1.00  0.00    -0.353 OA
HETATM   20  C1  UNL     1      24.141   6.091  51.185  1.00  0.00     0.210 C 
ENDBRANCH   1  19
BRANCH   6  21
HETATM   21  O2  UNL     1      20.782   4.147  51.551  1.00  0.00    -0.353 OA
HETATM   22  C8  UNL     1      19.521   3.471  51.595  1.00  0.00     0.210 C 
ENDBRANCH   6  21
TORSDOF 3
ENDMDL
MODEL 6
REMARK VINA RESULT:      -7.2      3.666      6.543
REMARK  3 active torsions:
REMARK  status: ('A' for Active; 'I' for Inactive)
REMARK    1  A    between atoms: O1_2  and  C2_3 
REMARK    2  A    between atoms: C7_8  and  O2_9 
REMARK    3  A    between atoms: N3_14  and  C10_15 
ROOT
HETATM    1  C2  UNL     1      26.198   1.181  53.041  1.00  0.00     0.102 A 
HETATM    2  C3  UNL     1      24.924   0.875  52.605  1.00  0.00     0.054 A 
HETATM    3  C4  UNL     1      24.071   0.090  53.354  1.00  0.00     0.013 A 
HETATM    4  C5  UNL     1      24.585  -0.371  54.573  1.00  0.00     0.091 A 
HETATM    5  C6  UNL     1      25.853  -0.065  55.006  1.00  0.00     0.074 A 
HETATM    6  C7  UNL     1      26.691   0.722  54.244  1.00  0.00     0.103 A 
HETATM    7  N1  UNL     1      23.993  -1.118  55.442  1.00  0.00    -0.177 NA
HETATM    8  N2  UNL     1      22.698  -1.642  55.365  1.00  0.00    -0.295 N 
HETATM    9  C9  UNL     1      21.910  -1.963  54.196  1.00  0.00     0.271 C 
HETATM   10  N3  UNL     1      21.764  -0.870  53.291  1.00  0.00    -0.338 N 
HETATM   11  C16 UNL     1      22.884  -0.140  52.847  1.00  0.00     0.107 C 
HETATM   12  H9  UNL     1      22.287  -1.807  56.334  1.00  0.00     0.184 HD
ENDROOT
BRANCH  10  13
HETATM   13  C10 UNL     1      20.512  -0.452  52.775  1.00  0.00     0.035 A 
HETATM   14  C11 UNL     1      20.348   0.432  51.730  1.00  0.00     0.029 A 
HETATM   15  C12 UNL     1      19.144   0.847  51.202  1.00  0.00     0.002 A 
HETATM   16  C13 UNL     1      17.987   0.341  51.757  1.00  0.00     0.000 A 
HETATM   17  C14 UNL     1      18.095  -0.548  52.806  1.00  0.00     0.002 A 
HETATM   18  C15 UNL     1      19.328  -0.925  53.291  1.00  0.00     0.029 A 
ENDBRANCH  10  13
BRANCH   1  19
HETATM   19  O1  UNL     1      27.046   1.972  52.276  1.00  0.00    -0.353 OA
HETATM   20  C1  UNL     1      26.684   2.508  51.015  1.00  0.00     0.210 C 
ENDBRANCH   1  19
BRANCH   6  21
HETATM   21  O2  UNL     1      27.962   1.034  54.664  1.00  0.00    -0.353 OA
HETATM   22  C8  UNL     1      28.955   0.006  54.603  1.00  0.00     0.210 C 
ENDBRANCH   6  21
TORSDOF 3
ENDMDL
MODEL 7
REMARK VINA RESULT:      -7.1      3.347      7.332
REMARK  3 active torsions:
REMARK  status: ('A' for Active; 'I' for Inactive)
REMARK    1  A    between atoms: O1_2  and  C2_3 
REMARK    2  A    between atoms: C7_8  and  O2_9 
REMARK    3  A    between atoms: N3_14  and  C10_15 
ROOT
HETATM    1  C2  UNL     1      24.257   4.737  49.031  1.00  0.00     0.102 A 
HETATM    2  C3  UNL     1      23.787   3.667  49.766  1.00  0.00     0.054 A 
HETATM    3  C4  UNL     1      24.624   2.911  50.561  1.00  0.00     0.013 A 
HETATM    4  C5  UNL     1      25.970   3.301  50.568  1.00  0.00     0.091 A 
HETATM    5  C6  UNL     1      26.436   4.367  49.836  1.00  0.00     0.074 A 
HETATM    6  C7  UNL     1      25.583   5.111  49.047  1.00  0.00     0.103 A 
HETATM    7  N1  UNL     1      26.942   2.757  51.220  1.00  0.00    -0.177 NA
HETATM    8  N2  UNL     1      26.874   1.649  52.070  1.00  0.00    -0.295 N 
HETATM    9  C9  UNL     1      25.946   0.541  52.056  1.00  0.00     0.271 C 
HETATM   10  N3  UNL     1      24.578   0.944  52.104  1.00  0.00    -0.338 N 
HETATM   11  C16 UNL     1      24.076   1.916  51.217  1.00  0.00     0.107 C 
HETATM   12  H9  UNL     1      27.639   1.680  52.810  1.00  0.00     0.184 HD
ENDROOT
BRANCH  10  13
HETATM   13  C10 UNL     1      23.642   0.404  53.020  1.00  0.00     0.035 A 
HETATM   14  C11 UNL     1      23.925  -0.574  53.949  1.00  0.00     0.029 A 
HETATM   15  C12 UNL     1      23.037  -1.110  54.858  1.00  0.00     0.002 A 
HETATM   16  C13 UNL     1      21.741  -0.635  54.851  1.00  0.00     0.000 A 
HETATM   17  C14 UNL     1      21.405   0.344  53.940  1.00  0.00     0.002 A 
HETATM   18  C15 UNL     1      22.338   0.840  53.056  1.00  0.00     0.029 A 
ENDBRANCH  10  13
BRANCH   1  19
HETATM   19  O1  UNL     1      23.402   5.489  48.235  1.00  0.00    -0.353 OA
HETATM   20  C1  UNL     1      22.432   6.379  48.759  1.00  0.00     0.210 C 
ENDBRANCH   1  19
BRANCH   6  21
HETATM   21  O2  UNL     1      26.036   6.178  48.310  1.00  0.00    -0.353 OA
HETATM   22  C8  UNL     1      27.104   6.960  48.854  1.00  0.00     0.210 C 
ENDBRANCH   6  21
TORSDOF 3
ENDMDL
MODEL 8
REMARK VINA RESULT:      -6.9      3.489      6.422
REMARK  3 active torsions:
REMARK  status: ('A' for Active; 'I' for Inactive)
REMARK    1  A    between atoms: O1_2  and  C2_3 
REMARK    2  A    between atoms: C7_8  and  O2_9 
REMARK    3  A    between atoms: N3_14  and  C10_15 
ROOT
HETATM    1  C2  UNL     1      21.658   3.786  51.959  1.00  0.00     0.102 A 
HETATM    2  C3  UNL     1      22.750   2.970  52.174  1.00  0.00     0.054 A 
HETATM    3  C4  UNL     1      23.991   3.269  51.648  1.00  0.00     0.013 A 
HETATM    4  C5  UNL     1      24.061   4.443  50.888  1.00  0.00     0.091 A 
HETATM    5  C6  UNL     1      22.972   5.255  50.675  1.00  0.00     0.074 A 
HETATM    6  C7  UNL     1      21.740   4.940  51.210  1.00  0.00     0.103 A 
HETATM    7  N1  UNL     1      25.095   4.932  50.290  1.00  0.00    -0.177 NA
HETATM    8  N2  UNL     1      26.387   4.399  50.265  1.00  0.00    -0.295 N 
HETATM    9  C9  UNL     1      26.810   3.022  50.388  1.00  0.00     0.271 C 
HETATM   10  N3  UNL     1      26.327   2.381  51.567  1.00  0.00    -0.338 N 
HETATM   11  C16 UNL     1      24.962   2.427  51.911  1.00  0.00     0.107 C 
HETATM   12  H9  UNL     1      27.120   5.160  50.133  1.00  0.00     0.184 HD
ENDROOT
BRANCH  10  13
HETATM   13  C10 UNL     1      27.162   1.660  52.457  1.00  0.00     0.035 A 
HETATM   14  C11 UNL     1      27.089   0.302  52.676  1.00  0.00     0.029 A 
HETATM   15  C12 UNL     1      27.895  -0.426  53.527  1.00  0.00     0.002 A 
HETATM   16  C13 UNL     1      28.869   0.252  54.230  1.00  0.00     0.000 A 
HETATM   17  C14 UNL     1      28.985   1.613  54.047  1.00  0.00     0.002 A 
HETATM   18  C15 UNL     1      28.149   2.286  53.182  1.00  0.00     0.029 A 
ENDBRANCH  10  13
BRANCH   1  19
HETATM   19  O1  UNL     1      20.415   3.473  52.495  1.00  0.00    -0.353 OA
HETATM   20  C1  UNL     1      19.749   2.246  52.251  1.00  0.00     0.210 C 
ENDBRANCH   1  19
BRANCH   6  21
HETATM   21  O2  UNL     1      20.642   5.741  51.004  1.00  0.00    -0.353 OA
HETATM   22  C8  UNL     1      20.671   6.637  49.890  1.00  0.00     0.210 C 
ENDBRANCH   6  21
TORSDOF 3
ENDMDL
MODEL 9
REMARK VINA RESULT:      -6.9      4.080      6.944
REMARK  3 active torsions:
REMARK  status: ('A' for Active; 'I' for Inactive)
REMARK    1  A    between atoms: O1_2  and  C2_3 
REMARK    2  A    between atoms: C7_8  and  O2_9 
REMARK    3  A    between atoms: N3_14  and  C10_15 
ROOT
HETATM    1  C2  UNL     1      25.027  -0.015  53.309  1.00  0.00     0.102 A 
HETATM    2  C3  UNL     1      23.660  -0.144  53.448  1.00  0.00     0.054 A 
HETATM    3  C4  UNL     1      22.781   0.547  52.637  1.00  0.00     0.013 A 
HETATM    4  C5  UNL     1      23.369   1.379  51.676  1.00  0.00     0.091 A 
HETATM    5  C6  UNL     1      24.732   1.505  51.538  1.00  0.00     0.074 A 
HETATM    6  C7  UNL     1      25.594   0.806  52.358  1.00  0.00     0.103 A 
HETATM    7  N1  UNL     1      22.770   2.125  50.810  1.00  0.00    -0.177 NA
HETATM    8  N2  UNL     1      21.391   2.276  50.635  1.00  0.00    -0.295 N 
HETATM    9  C9  UNL     1      20.325   2.123  51.599  1.00  0.00     0.271 C 
HETATM   10  N3  UNL     1      20.330   0.857  52.257  1.00  0.00    -0.338 N 
HETATM   11  C16 UNL     1      21.503   0.353  52.854  1.00  0.00     0.107 C 
HETATM   12  H9  UNL     1      21.154   2.542  49.631  1.00  0.00     0.184 HD
ENDROOT
BRANCH  10  13
HETATM   13  C10 UNL     1      19.181   0.035  52.366  1.00  0.00     0.035 A 
HETATM   14  C11 UNL     1      19.001  -0.941  53.322  1.00  0.00     0.029 A 
HETATM   15  C12 UNL     1      17.891  -1.748  53.458  1.00  0.00     0.002 A 
HETATM   16  C13 UNL     1      16.855  -1.575  52.563  1.00  0.00     0.000 A 
HETATM   17  C14 UNL     1      16.985  -0.611  51.585  1.00  0.00     0.002 A 
HETATM   18  C15 UNL     1      18.120   0.165  51.501  1.00  0.00     0.029 A 
ENDBRANCH  10  13
BRANCH   1  19
HETATM   19  O1  UNL     1      25.899  -0.716  54.133  1.00  0.00    -0.353 OA
HETATM   20  C1  UNL     1      26.306  -0.253  55.409  1.00  0.00     0.210 C 
ENDBRANCH   1  19
BRANCH   6  21
HETATM   21  O2  UNL     1      26.957   0.924  52.233  1.00  0.00    -0.353 OA
HETATM   22  C8  UNL     1      27.577   2.095  52.773  1.00  0.00     0.210 C 
ENDBRANCH   6  21
TORSDOF 3
ENDMDL
