MODEL 1
REMARK VINA RESULT:      -8.1      0.000      0.000
REMARK  6 active torsions:
REMARK  status: ('A' for Active; 'I' for Inactive)
REMARK    1  A    between atoms: O1_2  and  C2_3 
REMARK    2  A    between atoms: C7_8  and  O2_9 
REMARK    3  A    between atoms: O2_9  and  C8_10 
REMARK    4  A    between atoms: C8_10  and  C9_11 
REMARK    5  A    between atoms: C9_11  and  N1_12 
REMARK    6  A    between atoms: N2_16  and  C13_17 
ROOT
HETATM    1  C2  UNL     1      26.333   3.158  50.448  1.00  0.00     0.103 A 
HETATM    2  C3  UNL     1      25.073   3.066  49.916  1.00  0.00     0.074 A 
HETATM    3  C4  UNL     1      24.115   2.295  50.542  1.00  0.00     0.094 A 
HETATM    4  C5  UNL     1      24.374   1.593  51.711  1.00  0.00     0.015 A 
HETATM    5  C6  UNL     1      25.655   1.714  52.210  1.00  0.00     0.055 A 
HETATM    6  C7  UNL     1      26.641   2.476  51.614  1.00  0.00     0.103 A 
HETATM    7  C12 UNL     1      23.450   0.838  52.328  1.00  0.00     0.128 A 
HETATM    8  N2  UNL     1      22.128   0.745  51.765  1.00  0.00    -0.257 N 
HETATM    9  N3  UNL     1      21.912   1.456  50.608  1.00  0.00    -0.105 N 
HETATM   10 CL1  UNL     1      20.315   1.327  49.961  1.00  0.00     0.057 Cl
HETATM   11  N4  UNL     1      22.944   2.212  50.044  1.00  0.00    -0.139 NA
ENDROOT
BRANCH   6  12
HETATM   12  O2  UNL     1      27.933   2.575  52.150  1.00  0.00    -0.347 OA
BRANCH  12  13
HETATM   13  C8  UNL     1      28.075   2.291  53.524  1.00  0.00     0.206 C 
BRANCH  13  14
HETATM   14  C9  UNL     1      29.318   1.545  53.878  1.00  0.00     0.297 C 
BRANCH  14  15
HETATM   15  N1  UNL     1      29.035   0.311  54.553  1.00  0.00     0.082 N 
HETATM   16  C10 UNL     1      27.624   0.172  54.752  1.00  0.00     0.309 C 
HETATM   17  C11 UNL     1      29.560  -0.818  53.806  1.00  0.00     0.309 C 
ENDBRANCH  14  15
ENDBRANCH  13  14
ENDBRANCH  12  13
ENDBRANCH   6  12
BRANCH   1  18
HETATM   18  O1  UNL     1      27.261   3.946  49.785  1.00  0.00    -0.353 OA
HETATM   19  C1  UNL     1      26.825   4.958  48.926  1.00  0.00     0.210 C 
ENDBRANCH   1  18
BRANCH   8  20
HETATM   20  C13 UNL     1      21.270  -0.096  52.554  1.00  0.00     0.159 A 
HETATM   21  C14 UNL     1      20.624   0.552  53.696  1.00  0.00     0.007 A 
HETATM   22  C15 UNL     1      20.974  -0.025  54.857  1.00  0.00     0.040 A 
HETATM   23  C16 UNL     1      21.895  -1.121  54.566  1.00  0.00     0.114 A 
HETATM   24  F1  UNL     1      22.534  -2.012  55.389  1.00  0.00    -0.206 F 
HETATM   25  C17 UNL     1      22.066  -1.166  53.254  1.00  0.00     0.046 A 
ENDBRANCH   8  20
TORSDOF 6
ENDMDL
MODEL 2
REMARK VINA RESULT:      -7.5      3.371      5.437
REMARK  6 active torsions:
REMARK  status: ('A' for Active; 'I' for Inactive)
REMARK    1  A    between atoms: O1_2  and  C2_3 
REMARK    2  A    between atoms: C7_8  and  O2_9 
REMARK    3  A    between atoms: O2_9  and  C8_10 
REMARK    4  A    between atoms: C8_10  and  C9_11 
REMARK    5  A    between atoms: C9_11  and  N1_12 
REMARK    6  A    between atoms: N2_16  and  C13_17 
ROOT
HETATM    1  C2  UNL     1      24.536   4.250  49.426  1.00  0.00     0.103 A 
HETATM    2  C3  UNL     1      23.800   3.371  50.177  1.00  0.00     0.074 A 
HETATM    3  C4  UNL     1      24.438   2.453  50.986  1.00  0.00     0.094 A 
HETATM    4  C5  UNL     1      25.821   2.377  51.076  1.00  0.00     0.015 A 
HETATM    5  C6  UNL     1      26.521   3.281  50.302  1.00  0.00     0.055 A 
HETATM    6  C7  UNL     1      25.920   4.215  49.480  1.00  0.00     0.103 A 
HETATM    7  C12 UNL     1      26.453   1.487  51.859  1.00  0.00     0.128 A 
HETATM    8  N2  UNL     1      25.675   0.566  52.646  1.00  0.00    -0.257 N 
HETATM    9  N3  UNL     1      24.309   0.675  52.529  1.00  0.00    -0.105 N 
HETATM   10 CL1  UNL     1      23.405  -0.441  53.490  1.00  0.00     0.057 Cl
HETATM   11  N4  UNL     1      23.750   1.637  51.683  1.00  0.00    -0.139 NA
ENDROOT
BRANCH   6  12
HETATM   12  O2  UNL     1      26.665   5.117  48.708  1.00  0.00    -0.347 OA
BRANCH  12  13
HETATM   13  C8  UNL     1      28.051   4.876  48.607  1.00  0.00     0.206 C 
BRANCH  13  14
HETATM   14  C9  UNL     1      28.863   6.073  48.239  1.00  0.00     0.297 C 
BRANCH  14  15
HETATM   15  N1  UNL     1      30.241   5.926  48.611  1.00  0.00     0.082 N 
HETATM   16  C10 UNL     1      30.923   5.107  47.657  1.00  0.00     0.309 C 
HETATM   17  C11 UNL     1      30.885   7.223  48.724  1.00  0.00     0.309 C 
ENDBRANCH  14  15
ENDBRANCH  13  14
ENDBRANCH  12  13
ENDBRANCH   6  12
BRANCH   1  18
HETATM   18  O1  UNL     1      23.851   5.155  48.629  1.00  0.00    -0.353 OA
HETATM   19  C1  UNL     1      23.013   6.105  49.221  1.00  0.00     0.210 C 
ENDBRANCH   1  18
BRANCH   8  20
HETATM   20  C13 UNL     1      26.510  -0.307  53.425  1.00  0.00     0.159 A 
HETATM   21  C14 UNL     1      26.883   0.189  54.750  1.00  0.00     0.007 A 
HETATM   22  C15 UNL     1      28.213   0.313  54.877  1.00  0.00     0.040 A 
HETATM   23  C16 UNL     1      28.835  -0.100  53.621  1.00  0.00     0.114 A 
HETATM   24  F1  UNL     1      30.150  -0.160  53.237  1.00  0.00    -0.206 F 
HETATM   25  C17 UNL     1      27.868  -0.455  52.790  1.00  0.00     0.046 A 
ENDBRANCH   8  20
TORSDOF 6
ENDMDL
MODEL 3
REMARK VINA RESULT:      -7.4      3.651      6.553
REMARK  6 active torsions:
REMARK  status: ('A' for Active; 'I' for Inactive)
REMARK    1  A    between atoms: O1_2  and  C2_3 
REMARK    2  A    between atoms: C7_8  and  O2_9 
REMARK    3  A    between atoms: O2_9  and  C8_10 
REMARK    4  A    between atoms: C8_10  and  C9_11 
REMARK    5  A    between atoms: C9_11  and  N1_12 
REMARK    6  A    between atoms: N2_16  and  C13_17 
ROOT
HETATM    1  C2  UNL     1      25.847  -0.076  52.901  1.00  0.00     0.103 A 
HETATM    2  C3  UNL     1      26.629   0.633  52.026  1.00  0.00     0.074 A 
HETATM    3  C4  UNL     1      26.151   1.797  51.462  1.00  0.00     0.094 A 
HETATM    4  C5  UNL     1      24.887   2.296  51.746  1.00  0.00     0.015 A 
HETATM    5  C6  UNL     1      24.135   1.550  52.631  1.00  0.00     0.055 A 
HETATM    6  C7  UNL     1      24.577   0.380  53.217  1.00  0.00     0.103 A 
HETATM    7  C12 UNL     1      24.410   3.428  51.202  1.00  0.00     0.128 A 
HETATM    8  N2  UNL     1      25.236   4.169  50.283  1.00  0.00    -0.257 N 
HETATM    9  N3  UNL     1      26.480   3.642  50.030  1.00  0.00    -0.105 N 
HETATM   10 CL1  UNL     1      27.447   4.557  48.928  1.00  0.00     0.057 Cl
HETATM   11  N4  UNL     1      26.881   2.454  50.648  1.00  0.00    -0.139 NA
ENDROOT
BRANCH   6  12
HETATM   12  O2  UNL     1      23.784  -0.352  54.111  1.00  0.00    -0.347 OA
BRANCH  12  13
HETATM   13  C8  UNL     1      22.556  -0.841  53.621  1.00  0.00     0.206 C 
BRANCH  13  14
HETATM   14  C9  UNL     1      21.352  -0.325  54.335  1.00  0.00     0.297 C 
BRANCH  14  15
HETATM   15  N1  UNL     1      20.313   0.071  53.429  1.00  0.00     0.082 N 
HETATM   16  C10 UNL     1      20.836   0.188  52.102  1.00  0.00     0.309 C 
HETATM   17  C11 UNL     1      19.212  -0.876  53.463  1.00  0.00     0.309 C 
ENDBRANCH  14  15
ENDBRANCH  13  14
ENDBRANCH  12  13
ENDBRANCH   6  12
BRANCH   1  18
HETATM   18  O1  UNL     1      26.371  -1.240  53.443  1.00  0.00    -0.353 OA
HETATM   19  C1  UNL     1      27.080  -2.127  52.627  1.00  0.00     0.210 C 
ENDBRANCH   1  18
BRANCH   8  20
HETATM   20  C13 UNL     1      24.572   5.351  49.805  1.00  0.00     0.159 A 
HETATM   21  C14 UNL     1      25.025   6.613  50.392  1.00  0.00     0.007 A 
HETATM   22  C15 UNL     1      24.030   7.245  51.033  1.00  0.00     0.040 A 
HETATM   23  C16 UNL     1      22.819   6.437  50.916  1.00  0.00     0.114 A 
HETATM   24  F1  UNL     1      21.547   6.634  51.388  1.00  0.00    -0.206 F 
HETATM   25  C17 UNL     1      23.123   5.355  50.216  1.00  0.00     0.046 A 
ENDBRANCH   8  20
TORSDOF 6
ENDMDL
MODEL 4
REMARK VINA RESULT:      -7.3      3.187      5.621
REMARK  6 active torsions:
REMARK  status: ('A' for Active; 'I' for Inactive)
REMARK    1  A    between atoms: O1_2  and  C2_3 
REMARK    2  A    between atoms: C7_8  and  O2_9 
REMARK    3  A    between atoms: O2_9  and  C8_10 
REMARK    4  A    between atoms: C8_10  and  C9_11 
REMARK    5  A    between atoms: C9_11  and  N1_12 
REMARK    6  A    between atoms: N2_16  and  C13_17 
ROOT
HETATM    1  C2  UNL     1      23.293  -0.105  53.658  1.00  0.00     0.103 A 
HETATM    2  C3  UNL     1      22.310   0.777  53.294  1.00  0.00     0.074 A 
HETATM    3  C4  UNL     1      22.597   1.811  52.428  1.00  0.00     0.094 A 
HETATM    4  C5  UNL     1      23.864   2.003  51.895  1.00  0.00     0.015 A 
HETATM    5  C6  UNL     1      24.823   1.091  52.288  1.00  0.00     0.055 A 
HETATM    6  C7  UNL     1      24.575   0.043  53.153  1.00  0.00     0.103 A 
HETATM    7  C12 UNL     1      24.156   3.007  51.050  1.00  0.00     0.128 A 
HETATM    8  N2  UNL     1      23.118   3.931  50.672  1.00  0.00    -0.257 N 
HETATM    9  N3  UNL     1      21.878   3.706  51.221  1.00  0.00    -0.105 N 
HETATM   10 CL1  UNL     1      20.655   4.830  50.743  1.00  0.00     0.057 Cl
HETATM   11  N4  UNL     1      21.679   2.631  52.092  1.00  0.00    -0.139 NA
ENDROOT
BRANCH   6  12
HETATM   12  O2  UNL     1      25.575  -0.863  53.531  1.00  0.00    -0.347 OA
BRANCH  12  13
HETATM   13  C8  UNL     1      26.911  -0.434  53.390  1.00  0.00     0.206 C 
BRANCH  13  14
HETATM   14  C9  UNL     1      27.527   0.097  54.642  1.00  0.00     0.297 C 
BRANCH  14  15
HETATM   15  N1  UNL     1      28.780   0.749  54.393  1.00  0.00     0.082 N 
HETATM   16  C10 UNL     1      29.654  -0.124  53.670  1.00  0.00     0.309 C 
HETATM   17  C11 UNL     1      28.580   1.990  53.666  1.00  0.00     0.309 C 
ENDBRANCH  14  15
ENDBRANCH  13  14
ENDBRANCH  12  13
ENDBRANCH   6  12
BRANCH   1  18
HETATM   18  O1  UNL     1      22.957  -1.129  54.530  1.00  0.00    -0.353 OA
HETATM   19  C1  UNL     1      21.638  -1.591  54.582  1.00  0.00     0.210 C 
ENDBRANCH   1  18
BRANCH   8  20
HETATM   20  C13 UNL     1      23.603   4.934  49.763  1.00  0.00     0.159 A 
HETATM   21  C14 UNL     1      24.815   4.583  49.021  1.00  0.00     0.007 A 
HETATM   22  C15 UNL     1      25.820   5.433  49.283  1.00  0.00     0.040 A 
HETATM   23  C16 UNL     1      25.342   6.431  50.236  1.00  0.00     0.114 A 
HETATM   24  F1  UNL     1      25.967   7.504  50.817  1.00  0.00    -0.206 F 
HETATM   25  C17 UNL     1      24.078   6.151  50.513  1.00  0.00     0.046 A 
ENDBRANCH   8  20
TORSDOF 6
ENDMDL
MODEL 5
REMARK VINA RESULT:      -7.3      2.571      4.827
REMARK  6 active torsions:
REMARK  status: ('A' for Active; 'I' for Inactive)
REMARK    1  A    between atoms: O1_2  and  C2_3 
REMARK    2  A    between atoms: C7_8  and  O2_9 
REMARK    3  A    between atoms: O2_9  and  C8_10 
REMARK    4  A    between atoms: C8_10  and  C9_11 
REMARK    5  A    between atoms: C9_11  and  N1_12 
REMARK    6  A    between atoms: N2_16  and  C13_17 
ROOT
HETATM    1  C2  UNL     1      27.125   1.735  52.539  1.00  0.00     0.103 A 
HETATM    2  C3  UNL     1      26.419   0.876  53.341  1.00  0.00     0.074 A 
HETATM    3  C4  UNL     1      25.071   0.681  53.124  1.00  0.00     0.094 A 
HETATM    4  C5  UNL     1      24.381   1.328  52.108  1.00  0.00     0.015 A 
HETATM    5  C6  UNL     1      25.131   2.184  51.326  1.00  0.00     0.055 A 
HETATM    6  C7  UNL     1      26.482   2.405  51.511  1.00  0.00     0.103 A 
HETATM    7  C12 UNL     1      23.068   1.147  51.888  1.00  0.00     0.128 A 
HETATM    8  N2  UNL     1      22.332   0.244  52.734  1.00  0.00    -0.257 N 
HETATM    9  N3  UNL     1      23.052  -0.377  53.727  1.00  0.00    -0.105 N 
HETATM   10 CL1  UNL     1      22.140  -1.458  54.720  1.00  0.00     0.057 Cl
HETATM   11  N4  UNL     1      24.418  -0.118  53.873  1.00  0.00    -0.139 NA
ENDROOT
BRANCH   6  12
HETATM   12  O2  UNL     1      27.211   3.282  50.696  1.00  0.00    -0.347 OA
BRANCH  12  13
HETATM   13  C8  UNL     1      26.657   3.591  49.437  1.00  0.00     0.206 C 
BRANCH  13  14
HETATM   14  C9  UNL     1      26.648   5.045  49.102  1.00  0.00     0.297 C 
BRANCH  14  15
HETATM   15  N1  UNL     1      25.317   5.579  49.045  1.00  0.00     0.082 N 
HETATM   16  C10 UNL     1      24.806   5.768  50.368  1.00  0.00     0.309 C 
HETATM   17  C11 UNL     1      25.294   6.828  48.304  1.00  0.00     0.309 C 
ENDBRANCH  14  15
ENDBRANCH  13  14
ENDBRANCH  12  13
ENDBRANCH   6  12
BRANCH   1  18
HETATM   18  O1  UNL     1      28.478   1.898  52.795  1.00  0.00    -0.353 OA
HETATM   19  C1  UNL     1      29.105   1.094  53.751  1.00  0.00     0.210 C 
ENDBRANCH   1  18
BRANCH   8  20
HETATM   20  C13 UNL     1      20.947   0.167  52.354  1.00  0.00     0.159 A 
HETATM   21  C14 UNL     1      20.678   0.260  50.919  1.00  0.00     0.007 A 
HETATM   22  C15 UNL     1      19.904   1.317  50.627  1.00  0.00     0.040 A 
HETATM   23  C16 UNL     1      19.595   2.018  51.871  1.00  0.00     0.114 A 
HETATM   24  F1  UNL     1      18.851   3.143  52.117  1.00  0.00    -0.206 F 
HETATM   25  C17 UNL     1      20.187   1.366  52.859  1.00  0.00     0.046 A 
ENDBRANCH   8  20
TORSDOF 6
ENDMDL
MODEL 6
REMARK VINA RESULT:      -7.2      3.279      5.845
REMARK  6 active torsions:
REMARK  status: ('A' for Active; 'I' for Inactive)
REMARK    1  A    between atoms: O1_2  and  C2_3 
REMARK    2  A    between atoms: C7_8  and  O2_9 
REMARK    3  A    between atoms: O2_9  and  C8_10 
REMARK    4  A    between atoms: C8_10  and  C9_11 
REMARK    5  A    between atoms: C9_11  and  N1_12 
REMARK    6  A    between atoms: N2_16  and  C13_17 
ROOT
HETATM    1  C2  UNL     1      24.419   3.827  49.564  1.00  0.00     0.103 A 
HETATM    2  C3  UNL     1      23.708   2.958  50.351  1.00  0.00     0.074 A 
HETATM    3  C4  UNL     1      24.370   2.103  51.207  1.00  0.00     0.094 A 
HETATM    4  C5  UNL     1      25.754   2.082  51.311  1.00  0.00     0.015 A 
HETATM    5  C6  UNL     1      26.429   2.972  50.501  1.00  0.00     0.055 A 
HETATM    6  C7  UNL     1      25.803   3.844  49.631  1.00  0.00     0.103 A 
HETATM    7  C12 UNL     1      26.411   1.253  52.141  1.00  0.00     0.128 A 
HETATM    8  N2  UNL     1      25.658   0.343  52.965  1.00  0.00    -0.257 N 
HETATM    9  N3  UNL     1      24.291   0.397  52.832  1.00  0.00    -0.105 N 
HETATM   10 CL1  UNL     1      23.418  -0.705  53.838  1.00  0.00     0.057 Cl
HETATM   11  N4  UNL     1      23.705   1.296  51.937  1.00  0.00    -0.139 NA
ENDROOT
BRANCH   6  12
HETATM   12  O2  UNL     1      26.522   4.735  48.822  1.00  0.00    -0.347 OA
BRANCH  12  13
HETATM   13  C8  UNL     1      26.591   6.075  49.255  1.00  0.00     0.206 C 
BRANCH  13  14
HETATM   14  C9  UNL     1      26.345   7.086  48.185  1.00  0.00     0.297 C 
BRANCH  14  15
HETATM   15  N1  UNL     1      26.000   8.370  48.723  1.00  0.00     0.082 N 
HETATM   16  C10 UNL     1      24.644   8.364  49.180  1.00  0.00     0.309 C 
HETATM   17  C11 UNL     1      26.902   8.736  49.802  1.00  0.00     0.309 C 
ENDBRANCH  14  15
ENDBRANCH  13  14
ENDBRANCH  12  13
ENDBRANCH   6  12
BRANCH   1  18
HETATM   18  O1  UNL     1      23.710   4.668  48.720  1.00  0.00    -0.353 OA
HETATM   19  C1  UNL     1      22.408   4.329  48.337  1.00  0.00     0.210 C 
ENDBRANCH   1  18
BRANCH   8  20
HETATM   20  C13 UNL     1      26.517  -0.462  53.791  1.00  0.00     0.159 A 
HETATM   21  C14 UNL     1      27.176   0.241  54.892  1.00  0.00     0.007 A 
HETATM   22  C15 UNL     1      28.513   0.187  54.784  1.00  0.00     0.040 A 
HETATM   23  C16 UNL     1      28.847  -0.570  53.581  1.00  0.00     0.114 A 
HETATM   24  F1  UNL     1      30.055  -0.907  53.027  1.00  0.00    -0.206 F 
HETATM   25  C17 UNL     1      27.713  -0.943  53.011  1.00  0.00     0.046 A 
ENDBRANCH   8  20
TORSDOF 6
ENDMDL
MODEL 7
REMARK VINA RESULT:      -7.0      1.945      2.348
REMARK  6 active torsions:
REMARK  status: ('A' for Active; 'I' for Inactive)
REMARK    1  A    between atoms: O1_2  and  C2_3 
REMARK    2  A    between atoms: C7_8  and  O2_9 
REMARK    3  A    between atoms: O2_9  and  C8_10 
REMARK    4  A    between atoms: C8_10  and  C9_11 
REMARK    5  A    between atoms: C9_11  and  N1_12 
REMARK    6  A    between atoms: N2_16  and  C13_17 
ROOT
HETATM    1  C2  UNL     1      25.992   2.895  50.756  1.00  0.00     0.103 A 
HETATM    2  C3  UNL     1      24.834   3.599  50.549  1.00  0.00     0.074 A 
HETATM    3  C4  UNL     1      23.655   3.171  51.123  1.00  0.00     0.094 A 
HETATM    4  C5  UNL     1      23.586   2.036  51.918  1.00  0.00     0.015 A 
HETATM    5  C6  UNL     1      24.774   1.358  52.098  1.00  0.00     0.055 A 
HETATM    6  C7  UNL     1      25.975   1.754  51.542  1.00  0.00     0.103 A 
HETATM    7  C12 UNL     1      22.443   1.608  52.481  1.00  0.00     0.128 A 
HETATM    8  N2  UNL     1      21.230   2.352  52.260  1.00  0.00    -0.257 N 
HETATM    9  N3  UNL     1      21.342   3.470  51.468  1.00  0.00    -0.105 N 
HETATM   10 CL1  UNL     1      19.869   4.342  51.227  1.00  0.00     0.057 Cl
HETATM   11  N4  UNL     1      22.580   3.829  50.928  1.00  0.00    -0.139 NA
ENDROOT
BRANCH   6  12
HETATM   12  O2  UNL     1      27.163   1.040  51.747  1.00  0.00    -0.347 OA
BRANCH  12  13
HETATM   13  C8  UNL     1      27.057  -0.192  52.425  1.00  0.00     0.206 C 
BRANCH  13  14
HETATM   14  C9  UNL     1      28.280  -0.592  53.181  1.00  0.00     0.297 C 
BRANCH  14  15
HETATM   15  N1  UNL     1      28.286  -0.069  54.517  1.00  0.00     0.082 N 
HETATM   16  C10 UNL     1      29.110   1.099  54.584  1.00  0.00     0.309 C 
HETATM   17  C11 UNL     1      26.935   0.232  54.958  1.00  0.00     0.309 C 
ENDBRANCH  14  15
ENDBRANCH  13  14
ENDBRANCH  12  13
ENDBRANCH   6  12
BRANCH   1  18
HETATM   18  O1  UNL     1      27.153   3.365  50.159  1.00  0.00    -0.353 OA
HETATM   19  C1  UNL     1      27.074   4.349  49.170  1.00  0.00     0.210 C 
ENDBRANCH   1  18
BRANCH   8  20
HETATM   20  C13 UNL     1      20.109   1.758  52.939  1.00  0.00     0.159 A 
HETATM   21  C14 UNL     1      20.419   0.598  53.775  1.00  0.00     0.007 A 
HETATM   22  C15 UNL     1      19.766  -0.499  53.361  1.00  0.00     0.040 A 
HETATM   23  C16 UNL     1      18.959  -0.143  52.197  1.00  0.00     0.114 A 
HETATM   24  F1  UNL     1      18.120  -0.890  51.412  1.00  0.00    -0.206 F 
HETATM   25  C17 UNL     1      19.151   1.143  51.952  1.00  0.00     0.046 A 
ENDBRANCH   8  20
TORSDOF 6
ENDMDL
MODEL 8
REMARK VINA RESULT:      -6.9      3.445      5.874
REMARK  6 active torsions:
REMARK  status: ('A' for Active; 'I' for Inactive)
REMARK    1  A    between atoms: O1_2  and  C2_3 
REMARK    2  A    between atoms: C7_8  and  O2_9 
REMARK    3  A    between atoms: O2_9  and  C8_10 
REMARK    4  A    between atoms: C8_10  and  C9_11 
REMARK    5  A    between atoms: C9_11  and  N1_12 
REMARK    6  A    between atoms: N2_16  and  C13_17 
ROOT
HETATM    1  C2  UNL     1      20.844   3.500  51.555  1.00  0.00     0.103 A 
HETATM    2  C3  UNL     1      20.666   2.418  52.378  1.00  0.00     0.074 A 
HETATM    3  C4  UNL     1      21.747   1.642  52.740  1.00  0.00     0.094 A 
HETATM    4  C5  UNL     1      23.036   1.912  52.300  1.00  0.00     0.015 A 
HETATM    5  C6  UNL     1      23.168   3.009  51.473  1.00  0.00     0.055 A 
HETATM    6  C7  UNL     1      22.111   3.811  51.088  1.00  0.00     0.103 A 
HETATM    7  C12 UNL     1      24.096   1.162  52.644  1.00  0.00     0.128 A 
HETATM    8  N2  UNL     1      23.904   0.027  53.509  1.00  0.00    -0.257 N 
HETATM    9  N3  UNL     1      22.613  -0.205  53.923  1.00  0.00    -0.105 N 
HETATM   10 CL1  UNL     1      22.417  -1.571  54.964  1.00  0.00     0.057 Cl
HETATM   11  N4  UNL     1      21.578   0.636  53.505  1.00  0.00    -0.139 NA
ENDROOT
BRANCH   6  12
HETATM   12  O2  UNL     1      22.283   4.918  50.246  1.00  0.00    -0.347 OA
BRANCH  12  13
HETATM   13  C8  UNL     1      22.973   4.697  49.036  1.00  0.00     0.206 C 
BRANCH  13  14
HETATM   14  C9  UNL     1      24.105   5.637  48.786  1.00  0.00     0.297 C 
BRANCH  14  15
HETATM   15  N1  UNL     1      25.058   5.632  49.859  1.00  0.00     0.082 N 
HETATM   16  C10 UNL     1      26.062   4.640  49.620  1.00  0.00     0.309 C 
HETATM   17  C11 UNL     1      25.663   6.943  50.017  1.00  0.00     0.309 C 
ENDBRANCH  14  15
ENDBRANCH  13  14
ENDBRANCH  12  13
ENDBRANCH   6  12
BRANCH   1  18
HETATM   18  O1  UNL     1      19.727   4.251  51.220  1.00  0.00    -0.353 OA
HETATM   19  C1  UNL     1      18.451   3.704  51.378  1.00  0.00     0.210 C 
ENDBRANCH   1  18
BRANCH   8  20
HETATM   20  C13 UNL     1      25.141  -0.655  53.778  1.00  0.00     0.159 A 
HETATM   21  C14 UNL     1      25.788  -0.315  55.045  1.00  0.00     0.007 A 
HETATM   22  C15 UNL     1      27.009   0.209  54.853  1.00  0.00     0.040 A 
HETATM   23  C16 UNL     1      27.268   0.256  53.416  1.00  0.00     0.114 A 
HETATM   24  F1  UNL     1      28.354   0.697  52.704  1.00  0.00    -0.206 F 
HETATM   25  C17 UNL     1      26.206  -0.235  52.799  1.00  0.00     0.046 A 
ENDBRANCH   8  20
TORSDOF 6
ENDMDL
MODEL 9
REMARK VINA RESULT:      -6.7      6.965     10.321
REMARK  6 active torsions:
REMARK  status: ('A' for Active; 'I' for Inactive)
REMARK    1  A    between atoms: O1_2  and  C2_3 
REMARK    2  A    between atoms: C7_8  and  O2_9 
REMARK    3  A    between atoms: O2_9  and  C8_10 
REMARK    4  A    between atoms: C8_10  and  C9_11 
REMARK    5  A    between atoms: C9_11  and  N1_12 
REMARK    6  A    between atoms: N2_16  and  C13_17 
ROOT
HETATM    1  C2  UNL     1      29.059   8.300  48.930  1.00  0.00     0.103 A 
HETATM    2  C3  UNL     1      30.429   8.339  48.976  1.00  0.00     0.074 A 
HETATM    3  C4  UNL     1      31.165   7.269  48.511  1.00  0.00     0.094 A 
HETATM    4  C5  UNL     1      30.570   6.130  47.987  1.00  0.00     0.015 A 
HETATM    5  C6  UNL     1      29.190   6.134  47.961  1.00  0.00     0.055 A 
HETATM    6  C7  UNL     1      28.417   7.185  48.416  1.00  0.00     0.103 A 
HETATM    7  C12 UNL     1      31.276   5.081  47.533  1.00  0.00     0.128 A 
HETATM    8  N2  UNL     1      32.715   5.127  47.584  1.00  0.00    -0.257 N 
HETATM    9  N3  UNL     1      33.264   6.273  48.109  1.00  0.00    -0.105 N 
HETATM   10 CL1  UNL     1      34.992   6.299  48.151  1.00  0.00     0.057 Cl
HETATM   11  N4  UNL     1      32.439   7.309  48.556  1.00  0.00    -0.139 NA
ENDROOT
BRANCH   6  12
HETATM   12  O2  UNL     1      27.017   7.153  48.374  1.00  0.00    -0.347 OA
BRANCH  12  13
HETATM   13  C8  UNL     1      26.387   6.031  48.950  1.00  0.00     0.206 C 
BRANCH  13  14
HETATM   14  C9  UNL     1      24.940   6.222  49.260  1.00  0.00     0.297 C 
BRANCH  14  15
HETATM   15  N1  UNL     1      24.734   6.730  50.586  1.00  0.00     0.082 N 
HETATM   16  C10 UNL     1      24.187   8.051  50.528  1.00  0.00     0.309 C 
HETATM   17  C11 UNL     1      23.863   5.849  51.346  1.00  0.00     0.309 C 
ENDBRANCH  14  15
ENDBRANCH  13  14
ENDBRANCH  12  13
ENDBRANCH   6  12
BRANCH   1  18
HETATM   18  O1  UNL     1      28.362   9.399  49.408  1.00  0.00    -0.353 OA
HETATM   19  C1  UNL     1      28.621  10.668  48.879  1.00  0.00     0.210 C 
ENDBRANCH   1  18
BRANCH   8  20
HETATM   20  C13 UNL     1      33.306   3.929  47.054  1.00  0.00     0.159 A 
HETATM   21  C14 UNL     1      32.420   3.091  46.244  1.00  0.00     0.007 A 
HETATM   22  C15 UNL     1      32.276   1.866  46.775  1.00  0.00     0.040 A 
HETATM   23  C16 UNL     1      33.071   1.798  47.998  1.00  0.00     0.114 A 
HETATM   24  F1  UNL     1      33.262   0.784  48.900  1.00  0.00    -0.206 F 
HETATM   25  C17 UNL     1      33.660   2.972  48.162  1.00  0.00     0.046 A 
ENDBRANCH   8  20
TORSDOF 6
ENDMDL
