MODEL 1
REMARK VINA RESULT:      -8.5      0.000      0.000
REMARK  3 active torsions:
REMARK  status: ('A' for Active; 'I' for Inactive)
REMARK    1  A    between atoms: C2_2  and  N1_3 
REMARK    2  A    between atoms: N5_16  and  C11_17 
REMARK    3  A    between atoms: C13_20  and  N6_21 
ROOT
HETATM    1  N1  UNL     1      21.805   2.360  50.788  1.00  0.00    -0.327 N 
HETATM    2  C3  UNL     1      21.218   3.530  50.272  1.00  0.00     0.207 A 
HETATM    3  N2  UNL     1      21.636   4.566  50.871  1.00  0.00    -0.251 NA
HETATM    4  C4  UNL     1      22.585   4.224  51.903  1.00  0.00     0.277 A 
HETATM    5  N3  UNL     1      23.871   4.884  51.684  1.00  0.00    -0.359 N 
HETATM    6  C5  UNL     1      24.966   4.513  50.861  1.00  0.00     0.059 A 
HETATM    7  C6  UNL     1      25.266   5.564  50.021  1.00  0.00     0.055 A 
HETATM    8  C7  UNL     1      26.282   5.573  49.071  1.00  0.00     0.036 A 
HETATM    9 CL1  UNL     1      26.642   6.924  48.015  1.00  0.00    -0.084 Cl
HETATM   10  C8  UNL     1      27.049   4.433  48.966  1.00  0.00     0.026 A 
HETATM   11  C9  UNL     1      26.747   3.384  49.807  1.00  0.00     0.034 A 
HETATM   12  C10 UNL     1      25.742   3.382  50.743  1.00  0.00     0.069 A 
HETATM   13  N4  UNL     1      25.725   2.136  51.423  1.00  0.00    -0.315 N 
HETATM   14  N5  UNL     1      25.633   1.750  52.761  1.00  0.00    -0.204 NA
HETATM   15  C15 UNL     1      24.226   1.450  53.080  1.00  0.00     0.264 C 
HETATM   16  N7  UNL     1      23.539   2.634  52.688  1.00  0.00    -0.257 NA
HETATM   17  C16 UNL     1      22.681   2.767  51.820  1.00  0.00     0.148 A 
HETATM   18  H8  UNL     1      23.982   5.784  52.244  1.00  0.00     0.162 HD
HETATM   19  H12 UNL     1      25.786   1.241  50.876  1.00  0.00     0.181 HD
ENDROOT
BRANCH  14  20
HETATM   20  C11 UNL     1      26.550   0.749  53.130  1.00  0.00     0.109 C 
HETATM   21  C12 UNL     1      26.395   0.140  54.488  1.00  0.00     0.192 C 
HETATM   22  O1  UNL     1      27.653  -0.481  54.649  1.00  0.00    -0.356 OA
HETATM   23  C13 UNL     1      28.604   0.430  54.203  1.00  0.00     0.355 C 
HETATM   24  C14 UNL     1      27.972   1.184  53.031  1.00  0.00     0.087 C 
BRANCH  23  25
HETATM   25  N6  UNL     1      29.799  -0.212  53.689  1.00  0.00     0.107 N 
HETATM   26  H17 UNL     1      30.564   0.070  54.376  1.00  0.00     0.316 HD
HETATM   27  H18 UNL     1      30.051   0.271  52.797  1.00  0.00     0.316 HD
ENDBRANCH  23  25
ENDBRANCH  14  20
BRANCH   1  28
HETATM   28  C2  UNL     1      21.620   0.988  50.410  1.00  0.00     0.127 C 
HETATM   29  C1  UNL     1      20.938   0.289  51.573  1.00  0.00     0.027 C 
ENDBRANCH   1  28
TORSDOF 3
ENDMDL
MODEL 2
REMARK VINA RESULT:      -8.3      3.241      5.249
REMARK  3 active torsions:
REMARK  status: ('A' for Active; 'I' for Inactive)
REMARK    1  A    between atoms: C2_2  and  N1_3 
REMARK    2  A    between atoms: N5_16  and  C11_17 
REMARK    3  A    between atoms: C13_20  and  N6_21 
ROOT
HETATM    1  N1  UNL     1      22.768   3.861  51.640  1.00  0.00    -0.327 N 
HETATM    2  C3  UNL     1      21.524   4.087  51.023  1.00  0.00     0.207 A 
HETATM    3  N2  UNL     1      21.199   3.127  50.262  1.00  0.00    -0.251 NA
HETATM    4  C4  UNL     1      22.210   2.097  50.261  1.00  0.00     0.277 A 
HETATM    5  N3  UNL     1      21.661   0.811  50.686  1.00  0.00    -0.359 N 
HETATM    6  C5  UNL     1      21.444   0.290  51.987  1.00  0.00     0.059 A 
HETATM    7  C6  UNL     1      20.124  -0.092  52.099  1.00  0.00     0.055 A 
HETATM    8  C7  UNL     1      19.538  -0.649  53.231  1.00  0.00     0.036 A 
HETATM    9 CL1  UNL     1      17.856  -1.127  53.345  1.00  0.00    -0.084 Cl
HETATM   10  C8  UNL     1      20.350  -0.833  54.329  1.00  0.00     0.026 A 
HETATM   11  C9  UNL     1      21.670  -0.451  54.215  1.00  0.00     0.034 A 
HETATM   12  C10 UNL     1      22.242   0.099  53.094  1.00  0.00     0.069 A 
HETATM   13  N4  UNL     1      23.614   0.367  53.341  1.00  0.00    -0.315 N 
HETATM   14  N5  UNL     1      24.798   0.146  52.636  1.00  0.00    -0.204 NA
HETATM   15  C15 UNL     1      25.144   1.364  51.882  1.00  0.00     0.264 C 
HETATM   16  N7  UNL     1      23.967   1.629  51.125  1.00  0.00    -0.257 NA
HETATM   17  C16 UNL     1      23.226   2.606  51.182  1.00  0.00     0.148 A 
HETATM   18  H8  UNL     1      21.389   0.180  49.871  1.00  0.00     0.162 HD
HETATM   19  H12 UNL     1      23.901   0.844  54.231  1.00  0.00     0.181 HD
ENDROOT
BRANCH  14  20
HETATM   20  C11 UNL     1      25.840  -0.379  53.423  1.00  0.00     0.109 C 
HETATM   21  C12 UNL     1      26.391   0.494  54.506  1.00  0.00     0.192 C 
HETATM   22  O1  UNL     1      27.609  -0.164  54.786  1.00  0.00    -0.356 OA
HETATM   23  C13 UNL     1      28.172  -0.497  53.559  1.00  0.00     0.355 C 
HETATM   24  C14 UNL     1      27.010  -0.838  52.624  1.00  0.00     0.087 C 
BRANCH  23  25
HETATM   25  N6  UNL     1      29.012  -1.677  53.628  1.00  0.00     0.107 N 
HETATM   26  H17 UNL     1      28.604  -2.332  52.893  1.00  0.00     0.316 HD
HETATM   27  H18 UNL     1      28.815  -2.145  54.542  1.00  0.00     0.316 HD
ENDBRANCH  23  25
ENDBRANCH  14  20
BRANCH   1  28
HETATM   28  C2  UNL     1      23.504   4.678  52.563  1.00  0.00     0.127 C 
HETATM   29  C1  UNL     1      23.916   5.937  51.821  1.00  0.00     0.027 C 
ENDBRANCH   1  28
TORSDOF 3
ENDMDL
MODEL 3
REMARK VINA RESULT:      -8.3      3.159      5.359
REMARK  3 active torsions:
REMARK  status: ('A' for Active; 'I' for Inactive)
REMARK    1  A    between atoms: C2_2  and  N1_3 
REMARK    2  A    between atoms: N5_16  and  C11_17 
REMARK    3  A    between atoms: C13_20  and  N6_21 
ROOT
HETATM    1  N1  UNL     1      23.097   2.779  49.812  1.00  0.00    -0.327 N 
HETATM    2  C3  UNL     1      24.219   3.550  49.457  1.00  0.00     0.207 A 
HETATM    3  N2  UNL     1      24.690   4.175  50.454  1.00  0.00    -0.251 NA
HETATM    4  C4  UNL     1      23.925   3.905  51.648  1.00  0.00     0.277 A 
HETATM    5  N3  UNL     1      24.764   3.337  52.701  1.00  0.00    -0.359 N 
HETATM    6  C5  UNL     1      25.175   1.998  52.926  1.00  0.00     0.059 A 
HETATM    7  C6  UNL     1      26.550   1.963  53.011  1.00  0.00     0.055 A 
HETATM    8  C7  UNL     1      27.317   0.823  53.228  1.00  0.00     0.036 A 
HETATM    9 CL1  UNL     1      29.066   0.808  53.333  1.00  0.00    -0.084 Cl
HETATM   10  C8  UNL     1      26.639  -0.369  53.370  1.00  0.00     0.026 A 
HETATM   11  C9  UNL     1      25.264  -0.331  53.285  1.00  0.00     0.034 A 
HETATM   12  C10 UNL     1      24.513   0.799  53.070  1.00  0.00     0.069 A 
HETATM   13  N4  UNL     1      23.135   0.458  53.041  1.00  0.00    -0.315 N 
HETATM   14  N5  UNL     1      21.981   0.991  53.616  1.00  0.00    -0.204 NA
HETATM   15  C15 UNL     1      21.332   1.893  52.647  1.00  0.00     0.264 C 
HETATM   16  N7  UNL     1      22.372   2.800  52.294  1.00  0.00    -0.257 NA
HETATM   17  C16 UNL     1      22.888   2.979  51.195  1.00  0.00     0.148 A 
HETATM   18  H8  UNL     1      25.109   4.063  53.401  1.00  0.00     0.162 HD
HETATM   19  H12 UNL     1      22.813  -0.369  52.479  1.00  0.00     0.181 HD
ENDROOT
BRANCH  14  20
HETATM   20  C11 UNL     1      21.131   0.027  54.188  1.00  0.00     0.109 C 
HETATM   21  C12 UNL     1      21.719  -1.315  54.493  1.00  0.00     0.192 C 
HETATM   22  O1  UNL     1      20.550  -2.089  54.657  1.00  0.00    -0.356 OA
HETATM   23  C13 UNL     1      19.686  -1.726  53.629  1.00  0.00     0.355 C 
HETATM   24  C14 UNL     1      19.904  -0.231  53.383  1.00  0.00     0.087 C 
BRANCH  23  25
HETATM   25  N6  UNL     1      18.290  -1.891  53.984  1.00  0.00     0.107 N 
HETATM   26  H17 UNL     1      18.316  -2.281  54.976  1.00  0.00     0.316 HD
HETATM   27  H18 UNL     1      17.912  -2.672  53.401  1.00  0.00     0.316 HD
ENDBRANCH  23  25
ENDBRANCH  14  20
BRANCH   1  28
HETATM   28  C2  UNL     1      22.268   1.929  49.006  1.00  0.00     0.127 C 
HETATM   29  C1  UNL     1      22.609   2.213  47.554  1.00  0.00     0.027 C 
ENDBRANCH   1  28
TORSDOF 3
ENDMDL
MODEL 4
REMARK VINA RESULT:      -8.1      1.587      1.887
REMARK  3 active torsions:
REMARK  status: ('A' for Active; 'I' for Inactive)
REMARK    1  A    between atoms: C2_2  and  N1_3 
REMARK    2  A    between atoms: N5_16  and  C11_17 
REMARK    3  A    between atoms: C13_20  and  N6_21 
ROOT
HETATM    1  N1  UNL     1      21.684   4.187  49.602  1.00  0.00    -0.327 N 
HETATM    2  C3  UNL     1      21.509   5.463  49.035  1.00  0.00     0.207 A 
HETATM    3  N2  UNL     1      22.089   6.360  49.717  1.00  0.00    -0.251 NA
HETATM    4  C4  UNL     1      22.747   5.795  50.871  1.00  0.00     0.277 A 
HETATM    5  N3  UNL     1      24.178   6.090  50.864  1.00  0.00    -0.359 N 
HETATM    6  C5  UNL     1      25.249   5.433  50.205  1.00  0.00     0.059 A 
HETATM    7  C6  UNL     1      25.938   6.356  49.448  1.00  0.00     0.055 A 
HETATM    8  C7  UNL     1      27.052   6.084  48.661  1.00  0.00     0.036 A 
HETATM    9 CL1  UNL     1      27.910   7.278  47.708  1.00  0.00    -0.084 Cl
HETATM   10  C8  UNL     1      27.501   4.781  48.642  1.00  0.00     0.026 A 
HETATM   11  C9  UNL     1      26.810   3.860  49.400  1.00  0.00     0.034 A 
HETATM   12  C10 UNL     1      25.710   4.136  50.175  1.00  0.00     0.069 A 
HETATM   13  N4  UNL     1      25.264   2.947  50.811  1.00  0.00    -0.315 N 
HETATM   14  N5  UNL     1      24.873   2.618  52.109  1.00  0.00    -0.204 NA
HETATM   15  C15 UNL     1      23.404   2.703  52.205  1.00  0.00     0.264 C 
HETATM   16  N7  UNL     1      23.120   4.021  51.746  1.00  0.00    -0.257 NA
HETATM   17  C16 UNL     1      22.468   4.363  50.763  1.00  0.00     0.148 A 
HETATM   18  H8  UNL     1      24.435   6.937  51.459  1.00  0.00     0.162 HD
HETATM   19  H12 UNL     1      25.170   2.061  50.255  1.00  0.00     0.181 HD
ENDROOT
BRANCH  14  20
HETATM   20  C11 UNL     1      25.428   1.415  52.584  1.00  0.00     0.109 C 
HETATM   21  C12 UNL     1      24.483   0.383  53.113  1.00  0.00     0.192 C 
HETATM   22  O1  UNL     1      25.370  -0.450  53.829  1.00  0.00    -0.356 OA
HETATM   23  C13 UNL     1      26.227   0.392  54.530  1.00  0.00     0.355 C 
HETATM   24  C14 UNL     1      26.457   1.617  53.643  1.00  0.00     0.087 C 
BRANCH  23  25
HETATM   25  N6  UNL     1      27.529  -0.202  54.767  1.00  0.00     0.107 N 
HETATM   26  H17 UNL     1      28.123   0.137  53.950  1.00  0.00     0.316 HD
HETATM   27  H18 UNL     1      27.432  -1.231  54.616  1.00  0.00     0.316 HD
ENDBRANCH  23  25
ENDBRANCH  14  20
BRANCH   1  28
HETATM   28  C2  UNL     1      21.204   2.907  49.163  1.00  0.00     0.127 C 
HETATM   29  C1  UNL     1      22.391   2.156  48.587  1.00  0.00     0.027 C 
ENDBRANCH   1  28
TORSDOF 3
ENDMDL
MODEL 5
REMARK VINA RESULT:      -7.6      2.378      3.157
REMARK  3 active torsions:
REMARK  status: ('A' for Active; 'I' for Inactive)
REMARK    1  A    between atoms: C2_2  and  N1_3 
REMARK    2  A    between atoms: N5_16  and  C11_17 
REMARK    3  A    between atoms: C13_20  and  N6_21 
ROOT
HETATM    1  N1  UNL     1      20.974   3.658  48.693  1.00  0.00    -0.327 N 
HETATM    2  C3  UNL     1      21.106   4.781  47.856  1.00  0.00     0.207 A 
HETATM    3  N2  UNL     1      21.560   5.783  48.487  1.00  0.00    -0.251 NA
HETATM    4  C4  UNL     1      21.797   5.461  49.874  1.00  0.00     0.277 A 
HETATM    5  N3  UNL     1      23.194   5.685  50.241  1.00  0.00    -0.359 N 
HETATM    6  C5  UNL     1      24.331   4.852  50.081  1.00  0.00     0.059 A 
HETATM    7  C6  UNL     1      25.303   5.553  49.399  1.00  0.00     0.055 A 
HETATM    8  C7  UNL     1      26.559   5.064  49.056  1.00  0.00     0.036 A 
HETATM    9 CL1  UNL     1      27.777   5.977  48.187  1.00  0.00    -0.084 Cl
HETATM   10  C8  UNL     1      26.852   3.771  49.434  1.00  0.00     0.026 A 
HETATM   11  C9  UNL     1      25.879   3.074  50.117  1.00  0.00     0.034 A 
HETATM   12  C10 UNL     1      24.640   3.562  50.452  1.00  0.00     0.069 A 
HETATM   13  N4  UNL     1      23.906   2.566  51.148  1.00  0.00    -0.315 N 
HETATM   14  N5  UNL     1      23.127   2.552  52.306  1.00  0.00    -0.204 NA
HETATM   15  C15 UNL     1      21.710   2.720  51.936  1.00  0.00     0.264 C 
HETATM   16  N7  UNL     1      21.712   3.913  51.158  1.00  0.00    -0.257 NA
HETATM   17  C16 UNL     1      21.409   4.055  49.977  1.00  0.00     0.148 A 
HETATM   18  H8  UNL     1      23.360   6.632  50.703  1.00  0.00     0.162 HD
HETATM   19  H12 UNL     1      23.879   1.583  50.780  1.00  0.00     0.181 HD
ENDROOT
BRANCH  14  20
HETATM   20  C11 UNL     1      23.391   1.464  53.158  1.00  0.00     0.109 C 
HETATM   21  C12 UNL     1      24.481   0.522  52.752  1.00  0.00     0.192 C 
HETATM   22  O1  UNL     1      24.195  -0.589  53.575  1.00  0.00    -0.356 OA
HETATM   23  C13 UNL     1      22.817  -0.773  53.528  1.00  0.00     0.355 C 
HETATM   24  C14 UNL     1      22.193   0.620  53.428  1.00  0.00     0.087 C 
BRANCH  23  25
HETATM   25  N6  UNL     1      22.289  -1.381  54.735  1.00  0.00     0.107 N 
HETATM   26  H17 UNL     1      21.290  -1.647  54.478  1.00  0.00     0.316 HD
HETATM   27  H18 UNL     1      22.189  -0.621  55.445  1.00  0.00     0.316 HD
ENDBRANCH  23  25
ENDBRANCH  14  20
BRANCH   1  28
HETATM   28  C2  UNL     1      20.504   2.334  48.396  1.00  0.00     0.127 C 
HETATM   29  C1  UNL     1      21.711   1.413  48.424  1.00  0.00     0.027 C 
ENDBRANCH   1  28
TORSDOF 3
ENDMDL
MODEL 6
REMARK VINA RESULT:      -7.2      3.889      5.731
REMARK  3 active torsions:
REMARK  status: ('A' for Active; 'I' for Inactive)
REMARK    1  A    between atoms: C2_2  and  N1_3 
REMARK    2  A    between atoms: N5_16  and  C11_17 
REMARK    3  A    between atoms: C13_20  and  N6_21 
ROOT
HETATM    1  N1  UNL     1      20.554   4.976  49.367  1.00  0.00    -0.327 N 
HETATM    2  C3  UNL     1      19.568   3.980  49.480  1.00  0.00     0.207 A 
HETATM    3  N2  UNL     1      19.974   2.867  49.027  1.00  0.00    -0.251 NA
HETATM    4  C4  UNL     1      21.326   2.969  48.531  1.00  0.00     0.277 A 
HETATM    5  N3  UNL     1      22.216   2.035  49.217  1.00  0.00    -0.359 N 
HETATM    6  C5  UNL     1      22.897   2.156  50.456  1.00  0.00     0.059 A 
HETATM    7  C6  UNL     1      22.572   1.075  51.248  1.00  0.00     0.055 A 
HETATM    8  C7  UNL     1      23.047   0.847  52.535  1.00  0.00     0.036 A 
HETATM    9 CL1  UNL     1      22.618  -0.537  53.521  1.00  0.00    -0.084 Cl
HETATM   10  C8  UNL     1      23.915   1.782  53.057  1.00  0.00     0.026 A 
HETATM   11  C9  UNL     1      24.239   2.861  52.262  1.00  0.00     0.034 A 
HETATM   12  C10 UNL     1      23.765   3.081  50.991  1.00  0.00     0.069 A 
HETATM   13  N4  UNL     1      24.310   4.288  50.481  1.00  0.00    -0.315 N 
HETATM   14  N5  UNL     1      24.892   4.667  49.270  1.00  0.00    -0.204 NA
HETATM   15  C15 UNL     1      23.861   5.277  48.411  1.00  0.00     0.264 C 
HETATM   16  N7  UNL     1      22.838   4.287  48.369  1.00  0.00    -0.257 NA
HETATM   17  C16 UNL     1      21.682   4.366  48.774  1.00  0.00     0.148 A 
HETATM   18  H8  UNL     1      22.366   1.126  48.680  1.00  0.00     0.162 HD
HETATM   19  H12 UNL     1      24.315   5.153  51.078  1.00  0.00     0.181 HD
ENDROOT
BRANCH  14  20
HETATM   20  C11 UNL     1      26.067   5.426  49.416  1.00  0.00     0.109 C 
HETATM   21  C12 UNL     1      26.058   6.820  48.871  1.00  0.00     0.192 C 
HETATM   22  O1  UNL     1      27.441   7.102  48.833  1.00  0.00    -0.356 OA
HETATM   23  C13 UNL     1      28.063   5.968  48.323  1.00  0.00     0.355 C 
HETATM   24  C14 UNL     1      27.273   4.765  48.843  1.00  0.00     0.087 C 
BRANCH  23  25
HETATM   25  N6  UNL     1      29.424   5.810  48.801  1.00  0.00     0.107 N 
HETATM   26  H17 UNL     1      29.346   5.087  49.580  1.00  0.00     0.316 HD
HETATM   27  H18 UNL     1      29.686   6.698  49.287  1.00  0.00     0.316 HD
ENDBRANCH  23  25
ENDBRANCH  14  20
BRANCH   1  28
HETATM   28  C2  UNL     1      20.519   6.360  49.749  1.00  0.00     0.127 C 
HETATM   29  C1  UNL     1      21.499   6.535  50.895  1.00  0.00     0.027 C 
ENDBRANCH   1  28
TORSDOF 3
ENDMDL
MODEL 7
REMARK VINA RESULT:      -7.0      3.547      5.571
REMARK  3 active torsions:
REMARK  status: ('A' for Active; 'I' for Inactive)
REMARK    1  A    between atoms: C2_2  and  N1_3 
REMARK    2  A    between atoms: N5_16  and  C11_17 
REMARK    3  A    between atoms: C13_20  and  N6_21 
ROOT
HETATM    1  N1  UNL     1      20.978   4.788  49.404  1.00  0.00    -0.327 N 
HETATM    2  C3  UNL     1      19.754   4.731  48.712  1.00  0.00     0.207 A 
HETATM    3  N2  UNL     1      19.638   3.651  48.058  1.00  0.00    -0.251 NA
HETATM    4  C4  UNL     1      20.802   2.814  48.223  1.00  0.00     0.277 A 
HETATM    5  N3  UNL     1      20.444   1.509  48.774  1.00  0.00    -0.359 N 
HETATM    6  C5  UNL     1      20.235   1.105  50.118  1.00  0.00     0.059 A 
HETATM    7  C6  UNL     1      18.991   0.520  50.217  1.00  0.00     0.055 A 
HETATM    8  C7  UNL     1      18.434  -0.000  51.382  1.00  0.00     0.036 A 
HETATM    9 CL1  UNL     1      16.849  -0.740  51.480  1.00  0.00    -0.084 Cl
HETATM   10  C8  UNL     1      19.195   0.079  52.528  1.00  0.00     0.026 A 
HETATM   11  C9  UNL     1      20.440   0.663  52.425  1.00  0.00     0.034 A 
HETATM   12  C10 UNL     1      20.983   1.175  51.273  1.00  0.00     0.069 A 
HETATM   13  N4  UNL     1      22.275   1.697  51.544  1.00  0.00    -0.315 N 
HETATM   14  N5  UNL     1      23.521   1.603  50.922  1.00  0.00    -0.204 NA
HETATM   15  C15 UNL     1      23.710   2.772  50.044  1.00  0.00     0.264 C 
HETATM   16  N7  UNL     1      22.554   2.748  49.211  1.00  0.00    -0.257 NA
HETATM   17  C16 UNL     1      21.662   3.586  49.119  1.00  0.00     0.148 A 
HETATM   18  H8  UNL     1      20.331   0.754  48.029  1.00  0.00     0.162 HD
HETATM   19  H12 UNL     1      22.425   2.311  52.383  1.00  0.00     0.181 HD
ENDROOT
BRANCH  14  20
HETATM   20  C11 UNL     1      24.583   1.352  51.810  1.00  0.00     0.109 C 
HETATM   21  C12 UNL     1      24.281   0.549  53.035  1.00  0.00     0.192 C 
HETATM   22  O1  UNL     1      25.411   0.837  53.831  1.00  0.00    -0.356 OA
HETATM   23  C13 UNL     1      25.639   2.204  53.715  1.00  0.00     0.355 C 
HETATM   24  C14 UNL     1      25.263   2.590  52.283  1.00  0.00     0.087 C 
BRANCH  23  25
HETATM   25  N6  UNL     1      27.034   2.559  53.890  1.00  0.00     0.107 N 
HETATM   26  H17 UNL     1      27.301   2.122  54.825  1.00  0.00     0.316 HD
HETATM   27  H18 UNL     1      27.073   3.590  54.058  1.00  0.00     0.316 HD
ENDBRANCH  23  25
ENDBRANCH  14  20
BRANCH   1  28
HETATM   28  C2  UNL     1      21.512   5.814  50.254  1.00  0.00     0.127 C 
HETATM   29  C1  UNL     1      21.610   5.233  51.653  1.00  0.00     0.027 C 
ENDBRANCH   1  28
TORSDOF 3
ENDMDL
MODEL 8
REMARK VINA RESULT:      -7.0      8.983     11.314
REMARK  3 active torsions:
REMARK  status: ('A' for Active; 'I' for Inactive)
REMARK    1  A    between atoms: C2_2  and  N1_3 
REMARK    2  A    between atoms: N5_16  and  C11_17 
REMARK    3  A    between atoms: C13_20  and  N6_21 
ROOT
HETATM    1  N1  UNL     1      34.510   4.488  48.227  1.00  0.00    -0.327 N 
HETATM    2  C3  UNL     1      35.042   3.383  47.537  1.00  0.00     0.207 A 
HETATM    3  N2  UNL     1      34.174   2.835  46.793  1.00  0.00    -0.251 NA
HETATM    4  C4  UNL     1      32.904   3.513  46.888  1.00  0.00     0.277 A 
HETATM    5  N3  UNL     1      32.460   3.997  45.582  1.00  0.00    -0.359 N 
HETATM    6  C5  UNL     1      32.792   5.185  44.881  1.00  0.00     0.059 A 
HETATM    7  C6  UNL     1      33.260   4.846  43.629  1.00  0.00     0.055 A 
HETATM    8  C7  UNL     1      33.682   5.744  42.655  1.00  0.00     0.036 A 
HETATM    9 CL1  UNL     1      34.271   5.286  41.070  1.00  0.00    -0.084 Cl
HETATM   10  C8  UNL     1      33.626   7.084  42.974  1.00  0.00     0.026 A 
HETATM   11  C9  UNL     1      33.158   7.420  44.226  1.00  0.00     0.034 A 
HETATM   12  C10 UNL     1      32.743   6.528  45.184  1.00  0.00     0.069 A 
HETATM   13  N4  UNL     1      32.330   7.231  46.345  1.00  0.00    -0.315 N 
HETATM   14  N5  UNL     1      31.230   7.152  47.200  1.00  0.00    -0.204 NA
HETATM   15  C15 UNL     1      31.581   6.315  48.361  1.00  0.00     0.264 C 
HETATM   16  N7  UNL     1      32.041   5.105  47.767  1.00  0.00    -0.257 NA
HETATM   17  C16 UNL     1      33.158   4.600  47.833  1.00  0.00     0.148 A 
HETATM   18  H8  UNL     1      31.776   3.337  45.099  1.00  0.00     0.162 HD
HETATM   19  H12 UNL     1      32.929   8.004  46.729  1.00  0.00     0.181 HD
ENDROOT
BRANCH  14  20
HETATM   20  C11 UNL     1      30.666   8.401  47.520  1.00  0.00     0.109 C 
HETATM   21  C12 UNL     1      31.593   9.572  47.612  1.00  0.00     0.192 C 
HETATM   22  O1  UNL     1      30.787  10.498  48.309  1.00  0.00    -0.356 OA
HETATM   23  C13 UNL     1      30.165   9.792  49.332  1.00  0.00     0.355 C 
HETATM   24  C14 UNL     1      29.884   8.390  48.788  1.00  0.00     0.087 C 
BRANCH  23  25
HETATM   25  N6  UNL     1      28.883  10.358  49.707  1.00  0.00     0.107 N 
HETATM   26  H17 UNL     1      28.720  11.132  48.994  1.00  0.00     0.316 HD
HETATM   27  H18 UNL     1      29.018  10.856  50.616  1.00  0.00     0.316 HD
ENDBRANCH  23  25
ENDBRANCH  14  20
BRANCH   1  28
HETATM   28  C2  UNL     1      35.134   5.383  49.160  1.00  0.00     0.127 C 
HETATM   29  C1  UNL     1      35.296   6.721  48.460  1.00  0.00     0.027 C 
ENDBRANCH   1  28
TORSDOF 3
ENDMDL
MODEL 9
REMARK VINA RESULT:      -7.0      5.617      8.511
REMARK  3 active torsions:
REMARK  status: ('A' for Active; 'I' for Inactive)
REMARK    1  A    between atoms: C2_2  and  N1_3 
REMARK    2  A    between atoms: N5_16  and  C11_17 
REMARK    3  A    between atoms: C13_20  and  N6_21 
ROOT
HETATM    1  N1  UNL     1      29.248  10.554  47.268  1.00  0.00    -0.327 N 
HETATM    2  C3  UNL     1      30.590  10.973  47.311  1.00  0.00     0.207 A 
HETATM    3  N2  UNL     1      31.136  10.677  48.416  1.00  0.00    -0.251 NA
HETATM    4  C4  UNL     1      30.208  10.004  49.292  1.00  0.00     0.277 A 
HETATM    5  N3  UNL     1      30.704   8.685  49.681  1.00  0.00    -0.359 N 
HETATM    6  C5  UNL     1      30.630   7.440  49.006  1.00  0.00     0.059 A 
HETATM    7  C6  UNL     1      31.903   6.924  48.883  1.00  0.00     0.055 A 
HETATM    8  C7  UNL     1      32.229   5.716  48.276  1.00  0.00     0.036 A 
HETATM    9 CL1  UNL     1      33.857   5.084  48.134  1.00  0.00    -0.084 Cl
HETATM   10  C8  UNL     1      31.189   4.976  47.757  1.00  0.00     0.026 A 
HETATM   11  C9  UNL     1      29.917   5.493  47.881  1.00  0.00     0.034 A 
HETATM   12  C10 UNL     1      29.602   6.688  48.482  1.00  0.00     0.069 A 
HETATM   13  N4  UNL     1      28.199   6.896  48.424  1.00  0.00    -0.315 N 
HETATM   14  N5  UNL     1      27.230   7.306  49.341  1.00  0.00    -0.204 NA
HETATM   15  C15 UNL     1      27.013   8.757  49.195  1.00  0.00     0.264 C 
HETATM   16  N7  UNL     1      28.322   9.302  49.332  1.00  0.00    -0.257 NA
HETATM   17  C16 UNL     1      28.977   9.931  48.506  1.00  0.00     0.148 A 
HETATM   18  H8  UNL     1      31.194   8.683  50.628  1.00  0.00     0.162 HD
HETATM   19  H12 UNL     1      27.683   6.734  47.523  1.00  0.00     0.181 HD
ENDROOT
BRANCH  14  20
HETATM   20  C11 UNL     1      26.058   6.527  49.320  1.00  0.00     0.109 C 
HETATM   21  C12 UNL     1      25.087   6.715  50.442  1.00  0.00     0.192 C 
HETATM   22  O1  UNL     1      24.296   5.553  50.309  1.00  0.00    -0.356 OA
HETATM   23  C13 UNL     1      25.174   4.499  50.079  1.00  0.00     0.355 C 
HETATM   24  C14 UNL     1      26.323   5.063  49.241  1.00  0.00     0.087 C 
BRANCH  23  25
HETATM   25  N6  UNL     1      24.578   3.429  49.303  1.00  0.00     0.107 N 
HETATM   26  H17 UNL     1      24.333   3.885  48.372  1.00  0.00     0.316 HD
HETATM   27  H18 UNL     1      23.656   3.205  49.741  1.00  0.00     0.316 HD
ENDBRANCH  23  25
ENDBRANCH  14  20
BRANCH   1  28
HETATM   28  C2  UNL     1      28.272  10.683  46.222  1.00  0.00     0.127 C 
HETATM   29  C1  UNL     1      28.065   9.302  45.627  1.00  0.00     0.027 C 
ENDBRANCH   1  28
TORSDOF 3
ENDMDL
