MODEL 1
REMARK VINA RESULT:      -9.3      0.000      0.000
REMARK  6 active torsions:
REMARK  status: ('A' for Active; 'I' for Inactive)
REMARK    1  A    between atoms: C7_11  and  N3_12 
REMARK    2  A    between atoms: N3_12  and  C8_13 
REMARK    3  A    between atoms: N4_23  and  C17_24 
REMARK    4  A    between atoms: C17_24  and  C18_25 
REMARK    5  A    between atoms: C18_25  and  C19_26 
REMARK    6  A    between atoms: C19_26  and  N5_27 
ROOT
HETATM    1  O1  UNL     1      21.179  -1.796  54.168  1.00  0.00    -0.271 OA
HETATM    2  C1  UNL     1      22.314  -1.284  54.394  1.00  0.00     0.248 C 
HETATM    3  C2  UNL     1      22.980  -1.667  55.668  1.00  0.00     0.279 C 
HETATM    4  O2  UNL     1      24.351  -1.311  55.662  1.00  0.00    -0.340 OA
HETATM    5  C3  UNL     1      24.884  -0.444  54.710  1.00  0.00     0.098 A 
HETATM    6  C4  UNL     1      26.185  -0.018  54.864  1.00  0.00     0.071 A 
HETATM    7  C5  UNL     1      26.750   0.839  53.943  1.00  0.00     0.075 A 
HETATM    8  N1  UNL     1      28.019   1.181  54.201  1.00  0.00    -0.241 NA
HETATM    9  C6  UNL     1      28.644   2.010  53.353  1.00  0.00     0.236 A 
HETATM   10  N2  UNL     1      27.974   2.460  52.288  1.00  0.00    -0.224 NA
HETATM   11  C7  UNL     1      26.713   2.164  51.969  1.00  0.00     0.142 A 
HETATM   12  C14 UNL     1      26.068   1.315  52.832  1.00  0.00     0.041 A 
HETATM   13  C15 UNL     1      24.786   0.867  52.721  1.00  0.00     0.050 A 
HETATM   14  C16 UNL     1      24.181   0.020  53.606  1.00  0.00     0.071 A 
HETATM   15  N4  UNL     1      22.831  -0.391  53.395  1.00  0.00    -0.314 N 
ENDROOT
BRANCH  11  16
HETATM   16  N3  UNL     1      26.014   2.646  50.836  1.00  0.00    -0.340 N 
HETATM   17  H5  UNL     1      25.298   2.069  50.356  1.00  0.00     0.167 HD
BRANCH  16  18
HETATM   18  C8  UNL     1      26.120   3.882  50.171  1.00  0.00     0.035 A 
HETATM   19  C9  UNL     1      27.050   4.199  49.203  1.00  0.00     0.029 A 
HETATM   20  C10 UNL     1      27.144   5.409  48.562  1.00  0.00     0.004 A 
HETATM   21  C11 UNL     1      26.261   6.418  48.881  1.00  0.00     0.024 A 
HETATM   22  C12 UNL     1      25.311   6.153  49.843  1.00  0.00     0.036 A 
HETATM   23 CL1  UNL     1      24.229   7.482  50.193  1.00  0.00    -0.084 Cl
HETATM   24  C13 UNL     1      25.266   4.919  50.452  1.00  0.00     0.053 A 
ENDBRANCH  16  18
ENDBRANCH  11  16
BRANCH  15  25
HETATM   25  C17 UNL     1      22.007   0.012  52.314  1.00  0.00     0.134 C 
BRANCH  25  26
HETATM   26  C18 UNL     1      21.258   1.299  52.487  1.00  0.00     0.040 C 
BRANCH  26  27
HETATM   27  C19 UNL     1      20.159   1.306  51.437  1.00  0.00     0.118 C 
BRANCH  27  28
HETATM   28  N5  UNL     1      20.450   2.112  50.317  1.00  0.00    -0.412 N 
HETATM   29  C20 UNL     1      20.592   1.384  49.119  1.00  0.00     0.117 C 
HETATM   30  C21 UNL     1      21.863   1.549  48.357  1.00  0.00     0.019 C 
HETATM   31  C22 UNL     1      22.816   2.549  48.956  1.00  0.00     0.003 C 
HETATM   32  C23 UNL     1      21.978   3.761  49.332  1.00  0.00     0.019 C 
HETATM   33  C24 UNL     1      21.114   3.332  50.494  1.00  0.00     0.117 C 
ENDBRANCH  27  28
ENDBRANCH  26  27
ENDBRANCH  25  26
ENDBRANCH  15  25
TORSDOF 6
ENDMDL
MODEL 2
REMARK VINA RESULT:      -9.2      1.909      5.342
REMARK  6 active torsions:
REMARK  status: ('A' for Active; 'I' for Inactive)
REMARK    1  A    between atoms: C7_11  and  N3_12 
REMARK    2  A    between atoms: N3_12  and  C8_13 
REMARK    3  A    between atoms: N4_23  and  C17_24 
REMARK    4  A    between atoms: C17_24  and  C18_25 
REMARK    5  A    between atoms: C18_25  and  C19_26 
REMARK    6  A    between atoms: C19_26  and  N5_27 
ROOT
HETATM    1  O1  UNL     1      28.891   1.732  52.977  1.00  0.00    -0.271 OA
HETATM    2  C1  UNL     1      27.946   1.018  53.425  1.00  0.00     0.248 C 
HETATM    3  C2  UNL     1      28.232   0.217  54.644  1.00  0.00     0.279 C 
HETATM    4  O2  UNL     1      27.040  -0.270  55.234  1.00  0.00    -0.340 OA
HETATM    5  C3  UNL     1      25.819  -0.245  54.560  1.00  0.00     0.098 A 
HETATM    6  C4  UNL     1      24.739  -0.882  55.133  1.00  0.00     0.071 A 
HETATM    7  C5  UNL     1      23.515  -0.880  54.499  1.00  0.00     0.075 A 
HETATM    8  N1  UNL     1      22.545  -1.530  55.155  1.00  0.00    -0.241 NA
HETATM    9  C6  UNL     1      21.322  -1.574  54.607  1.00  0.00     0.236 A 
HETATM   10  N2  UNL     1      21.124  -0.968  53.433  1.00  0.00    -0.224 NA
HETATM   11  C7  UNL     1      22.040  -0.305  52.725  1.00  0.00     0.142 A 
HETATM   12  C14 UNL     1      23.294  -0.255  53.280  1.00  0.00     0.041 A 
HETATM   13  C15 UNL     1      24.389   0.360  52.752  1.00  0.00     0.050 A 
HETATM   14  C16 UNL     1      25.622   0.386  53.340  1.00  0.00     0.071 A 
HETATM   15  N4  UNL     1      26.704   1.062  52.702  1.00  0.00    -0.314 N 
ENDROOT
BRANCH  11  16
HETATM   16  N3  UNL     1      21.817   0.336  51.482  1.00  0.00    -0.340 N 
HETATM   17  H5  UNL     1      21.665  -0.209  50.612  1.00  0.00     0.167 HD
BRANCH  16  18
HETATM   18  C8  UNL     1      21.759   1.708  51.175  1.00  0.00     0.035 A 
HETATM   19  C9  UNL     1      21.322   2.706  52.021  1.00  0.00     0.029 A 
HETATM   20  C10 UNL     1      21.269   4.041  51.709  1.00  0.00     0.004 A 
HETATM   21  C11 UNL     1      21.674   4.465  50.463  1.00  0.00     0.024 A 
HETATM   22  C12 UNL     1      22.121   3.508  49.578  1.00  0.00     0.036 A 
HETATM   23 CL1  UNL     1      22.616   4.124  48.018  1.00  0.00    -0.084 Cl
HETATM   24  C13 UNL     1      22.151   2.182  49.947  1.00  0.00     0.053 A 
ENDBRANCH  16  18
ENDBRANCH  11  16
BRANCH  15  25
HETATM   25  C17 UNL     1      26.635   1.740  51.459  1.00  0.00     0.134 C 
BRANCH  25  26
HETATM   26  C18 UNL     1      25.658   2.874  51.370  1.00  0.00     0.040 C 
BRANCH  26  27
HETATM   27  C19 UNL     1      25.720   3.387  49.940  1.00  0.00     0.118 C 
BRANCH  27  28
HETATM   28  N5  UNL     1      26.129   4.733  49.838  1.00  0.00    -0.412 N 
HETATM   29  C20 UNL     1      25.197   5.647  50.367  1.00  0.00     0.117 C 
HETATM   30  C21 UNL     1      24.712   6.735  49.471  1.00  0.00     0.019 C 
HETATM   31  C22 UNL     1      25.352   6.744  48.108  1.00  0.00     0.003 C 
HETATM   32  C23 UNL     1      26.841   6.541  48.338  1.00  0.00     0.019 C 
HETATM   33  C24 UNL     1      27.003   5.116  48.813  1.00  0.00     0.117 C 
ENDBRANCH  27  28
ENDBRANCH  26  27
ENDBRANCH  25  26
ENDBRANCH  15  25
TORSDOF 6
ENDMDL
MODEL 3
REMARK VINA RESULT:      -9.1      2.732      5.536
REMARK  6 active torsions:
REMARK  status: ('A' for Active; 'I' for Inactive)
REMARK    1  A    between atoms: C7_11  and  N3_12 
REMARK    2  A    between atoms: N3_12  and  C8_13 
REMARK    3  A    between atoms: N4_23  and  C17_24 
REMARK    4  A    between atoms: C17_24  and  C18_25 
REMARK    5  A    between atoms: C18_25  and  C19_26 
REMARK    6  A    between atoms: C19_26  and  N5_27 
ROOT
HETATM    1  O1  UNL     1      18.779   1.600  49.313  1.00  0.00    -0.271 OA
HETATM    2  C1  UNL     1      19.174   1.165  50.435  1.00  0.00     0.248 C 
HETATM    3  C2  UNL     1      18.123   0.716  51.386  1.00  0.00     0.279 C 
HETATM    4  O2  UNL     1      18.676  -0.043  52.447  1.00  0.00    -0.340 OA
HETATM    5  C3  UNL     1      20.048  -0.072  52.696  1.00  0.00     0.098 A 
HETATM    6  C4  UNL     1      20.495  -0.700  53.839  1.00  0.00     0.071 A 
HETATM    7  C5  UNL     1      21.843  -0.751  54.121  1.00  0.00     0.075 A 
HETATM    8  N1  UNL     1      22.153  -1.388  55.258  1.00  0.00    -0.241 NA
HETATM    9  C6  UNL     1      23.444  -1.484  55.606  1.00  0.00     0.236 A 
HETATM   10  N2  UNL     1      24.365  -0.942  54.805  1.00  0.00    -0.224 NA
HETATM   11  C7  UNL     1      24.132  -0.295  53.661  1.00  0.00     0.142 A 
HETATM   12  C14 UNL     1      22.812  -0.193  53.299  1.00  0.00     0.041 A 
HETATM   13  C15 UNL     1      22.324   0.415  52.182  1.00  0.00     0.050 A 
HETATM   14  C16 UNL     1      20.999   0.495  51.858  1.00  0.00     0.071 A 
HETATM   15  N4  UNL     1      20.593   1.154  50.660  1.00  0.00    -0.314 N 
ENDROOT
BRANCH  11  16
HETATM   16  N3  UNL     1      25.117   0.273  52.819  1.00  0.00    -0.340 N 
HETATM   17  H5  UNL     1      24.923   0.477  51.820  1.00  0.00     0.167 HD
BRANCH  16  18
HETATM   18  C8  UNL     1      26.441   0.650  53.110  1.00  0.00     0.035 A 
HETATM   19  C9  UNL     1      26.891   1.943  53.284  1.00  0.00     0.029 A 
HETATM   20  C10 UNL     1      28.186   2.298  53.568  1.00  0.00     0.004 A 
HETATM   21  C11 UNL     1      29.147   1.320  53.696  1.00  0.00     0.024 A 
HETATM   22  C12 UNL     1      28.751   0.011  53.532  1.00  0.00     0.036 A 
HETATM   23 CL1  UNL     1      30.027  -1.172  53.709  1.00  0.00    -0.084 Cl
HETATM   24  C13 UNL     1      27.436  -0.285  53.249  1.00  0.00     0.053 A 
ENDBRANCH  16  18
ENDBRANCH  11  16
BRANCH  15  25
HETATM   25  C17 UNL     1      21.461   1.774  49.726  1.00  0.00     0.134 C 
BRANCH  25  26
HETATM   26  C18 UNL     1      21.820   3.205  49.994  1.00  0.00     0.040 C 
BRANCH  26  27
HETATM   27  C19 UNL     1      23.025   3.519  49.122  1.00  0.00     0.118 C 
BRANCH  27  28
HETATM   28  N5  UNL     1      24.185   3.848  49.855  1.00  0.00    -0.412 N 
HETATM   29  C20 UNL     1      24.399   5.235  49.978  1.00  0.00     0.117 C 
HETATM   30  C21 UNL     1      25.709   5.775  49.514  1.00  0.00     0.019 C 
HETATM   31  C22 UNL     1      26.672   4.725  49.026  1.00  0.00     0.003 C 
HETATM   32  C23 UNL     1      26.619   3.596  50.043  1.00  0.00     0.019 C 
HETATM   33  C24 UNL     1      25.261   2.953  49.889  1.00  0.00     0.117 C 
ENDBRANCH  27  28
ENDBRANCH  26  27
ENDBRANCH  25  26
ENDBRANCH  15  25
TORSDOF 6
ENDMDL
MODEL 4
REMARK VINA RESULT:      -8.8      2.654      6.045
REMARK  6 active torsions:
REMARK  status: ('A' for Active; 'I' for Inactive)
REMARK    1  A    between atoms: C7_11  and  N3_12 
REMARK    2  A    between atoms: N3_12  and  C8_13 
REMARK    3  A    between atoms: N4_23  and  C17_24 
REMARK    4  A    between atoms: C17_24  and  C18_25 
REMARK    5  A    between atoms: C18_25  and  C19_26 
REMARK    6  A    between atoms: C19_26  and  N5_27 
ROOT
HETATM    1  O1  UNL     1      28.726   2.381  53.144  1.00  0.00    -0.271 OA
HETATM    2  C1  UNL     1      27.855   1.529  53.489  1.00  0.00     0.248 C 
HETATM    3  C2  UNL     1      28.304   0.444  54.400  1.00  0.00     0.279 C 
HETATM    4  O2  UNL     1      27.203  -0.240  54.973  1.00  0.00    -0.340 OA
HETATM    5  C3  UNL     1      25.907  -0.092  54.482  1.00  0.00     0.098 A 
HETATM    6  C4  UNL     1      24.917  -0.910  54.983  1.00  0.00     0.071 A 
HETATM    7  C5  UNL     1      23.622  -0.795  54.525  1.00  0.00     0.075 A 
HETATM    8  N1  UNL     1      22.752  -1.643  55.088  1.00  0.00    -0.241 NA
HETATM    9  C6  UNL     1      21.470  -1.595  54.699  1.00  0.00     0.236 A 
HETATM   10  N2  UNL     1      21.116  -0.706  53.768  1.00  0.00    -0.224 NA
HETATM   11  C7  UNL     1      21.925   0.166  53.163  1.00  0.00     0.142 A 
HETATM   12  C14 UNL     1      23.239   0.124  53.557  1.00  0.00     0.041 A 
HETATM   13  C15 UNL     1      24.250   0.910  53.092  1.00  0.00     0.050 A 
HETATM   14  C16 UNL     1      25.547   0.834  53.512  1.00  0.00     0.071 A 
HETATM   15  N4  UNL     1      26.531   1.708  52.959  1.00  0.00    -0.314 N 
ENDROOT
BRANCH  11  16
HETATM   16  N3  UNL     1      21.538   1.106  52.179  1.00  0.00    -0.340 N 
HETATM   17  H5  UNL     1      22.241   1.644  51.637  1.00  0.00     0.167 HD
BRANCH  16  18
HETATM   18  C8  UNL     1      20.251   1.487  51.755  1.00  0.00     0.035 A 
HETATM   19  C9  UNL     1      19.672   2.724  51.946  1.00  0.00     0.029 A 
HETATM   20  C10 UNL     1      18.415   3.083  51.528  1.00  0.00     0.004 A 
HETATM   21  C11 UNL     1      17.632   2.166  50.862  1.00  0.00     0.024 A 
HETATM   22  C12 UNL     1      18.163   0.913  50.644  1.00  0.00     0.036 A 
HETATM   23 CL1  UNL     1      17.109  -0.193  49.794  1.00  0.00    -0.084 Cl
HETATM   24  C13 UNL     1      19.431   0.611  51.087  1.00  0.00     0.053 A 
ENDBRANCH  16  18
ENDBRANCH  11  16
BRANCH  15  25
HETATM   25  C17 UNL     1      26.294   2.691  51.966  1.00  0.00     0.134 C 
BRANCH  25  26
HETATM   26  C18 UNL     1      26.421   2.244  50.540  1.00  0.00     0.040 C 
BRANCH  26  27
HETATM   27  C19 UNL     1      26.415   3.505  49.690  1.00  0.00     0.118 C 
BRANCH  27  28
HETATM   28  N5  UNL     1      25.130   4.056  49.501  1.00  0.00    -0.412 N 
HETATM   29  C20 UNL     1      24.979   5.338  50.063  1.00  0.00     0.117 C 
HETATM   30  C21 UNL     1      23.866   5.539  51.035  1.00  0.00     0.019 C 
HETATM   31  C22 UNL     1      22.995   4.327  51.235  1.00  0.00     0.003 C 
HETATM   32  C23 UNL     1      22.717   3.770  49.847  1.00  0.00     0.019 C 
HETATM   33  C24 UNL     1      24.027   3.207  49.350  1.00  0.00     0.117 C 
ENDBRANCH  27  28
ENDBRANCH  26  27
ENDBRANCH  25  26
ENDBRANCH  15  25
TORSDOF 6
ENDMDL
MODEL 5
REMARK VINA RESULT:      -8.7      2.829      5.747
REMARK  6 active torsions:
REMARK  status: ('A' for Active; 'I' for Inactive)
REMARK    1  A    between atoms: C7_11  and  N3_12 
REMARK    2  A    between atoms: N3_12  and  C8_13 
REMARK    3  A    between atoms: N4_23  and  C17_24 
REMARK    4  A    between atoms: C17_24  and  C18_25 
REMARK    5  A    between atoms: C18_25  and  C19_26 
REMARK    6  A    between atoms: C19_26  and  N5_27 
ROOT
HETATM    1  O1  UNL     1      19.202   2.234  48.242  1.00  0.00    -0.271 OA
HETATM    2  C1  UNL     1      19.403   1.829  49.425  1.00  0.00     0.248 C 
HETATM    3  C2  UNL     1      18.208   1.700  50.300  1.00  0.00     0.279 C 
HETATM    4  O2  UNL     1      18.498   0.941  51.461  1.00  0.00    -0.340 OA
HETATM    5  C3  UNL     1      19.806   0.647  51.843  1.00  0.00     0.098 A 
HETATM    6  C4  UNL     1      20.014   0.047  53.066  1.00  0.00     0.071 A 
HETATM    7  C5  UNL     1      21.293  -0.261  53.480  1.00  0.00     0.075 A 
HETATM    8  N1  UNL     1      21.366  -0.842  54.685  1.00  0.00    -0.241 NA
HETATM    9  C6  UNL     1      22.574  -1.176  55.161  1.00  0.00     0.236 A 
HETATM   10  N2  UNL     1      23.651  -0.915  54.416  1.00  0.00    -0.224 NA
HETATM   11  C7  UNL     1      23.655  -0.340  53.212  1.00  0.00     0.142 A 
HETATM   12  C14 UNL     1      22.422   0.004  52.717  1.00  0.00     0.041 A 
HETATM   13  C15 UNL     1      22.167   0.597  51.518  1.00  0.00     0.050 A 
HETATM   14  C16 UNL     1      20.921   0.923  51.063  1.00  0.00     0.071 A 
HETATM   15  N4  UNL     1      20.764   1.542  49.787  1.00  0.00    -0.314 N 
ENDROOT
BRANCH  11  16
HETATM   16  N3  UNL     1      24.803  -0.070  52.430  1.00  0.00    -0.340 N 
HETATM   17  H5  UNL     1      24.726   0.211  51.434  1.00  0.00     0.167 HD
BRANCH  16  18
HETATM   18  C8  UNL     1      26.164  -0.118  52.784  1.00  0.00     0.035 A 
HETATM   19  C9  UNL     1      26.944  -1.254  52.837  1.00  0.00     0.029 A 
HETATM   20  C10 UNL     1      28.271  -1.288  53.185  1.00  0.00     0.004 A 
HETATM   21  C11 UNL     1      28.918  -0.118  53.517  1.00  0.00     0.024 A 
HETATM   22  C12 UNL     1      28.184   1.048  53.479  1.00  0.00     0.036 A 
HETATM   23 CL1  UNL     1      29.073   2.490  53.914  1.00  0.00    -0.084 Cl
HETATM   24  C13 UNL     1      26.855   1.020  53.123  1.00  0.00     0.053 A 
ENDBRANCH  16  18
ENDBRANCH  11  16
BRANCH  15  25
HETATM   25  C17 UNL     1      21.817   1.877  48.899  1.00  0.00     0.134 C 
BRANCH  25  26
HETATM   26  C18 UNL     1      22.286   3.301  48.926  1.00  0.00     0.040 C 
BRANCH  26  27
HETATM   27  C19 UNL     1      23.788   3.257  49.159  1.00  0.00     0.118 C 
BRANCH  27  28
HETATM   28  N5  UNL     1      24.218   4.062  50.235  1.00  0.00    -0.412 N 
HETATM   29  C20 UNL     1      24.637   3.323  51.359  1.00  0.00     0.117 C 
HETATM   30  C21 UNL     1      23.979   3.618  52.664  1.00  0.00     0.019 C 
HETATM   31  C22 UNL     1      22.975   4.740  52.609  1.00  0.00     0.003 C 
HETATM   32  C23 UNL     1      23.629   5.854  51.806  1.00  0.00     0.019 C 
HETATM   33  C24 UNL     1      23.705   5.356  50.382  1.00  0.00     0.117 C 
ENDBRANCH  27  28
ENDBRANCH  26  27
ENDBRANCH  25  26
ENDBRANCH  15  25
TORSDOF 6
ENDMDL
MODEL 6
REMARK VINA RESULT:      -7.8      4.455      7.825
REMARK  6 active torsions:
REMARK  status: ('A' for Active; 'I' for Inactive)
REMARK    1  A    between atoms: C7_11  and  N3_12 
REMARK    2  A    between atoms: N3_12  and  C8_13 
REMARK    3  A    between atoms: N4_23  and  C17_24 
REMARK    4  A    between atoms: C17_24  and  C18_25 
REMARK    5  A    between atoms: C18_25  and  C19_26 
REMARK    6  A    between atoms: C19_26  and  N5_27 
ROOT
HETATM    1  O1  UNL     1      23.511   2.587  49.973  1.00  0.00    -0.271 OA
HETATM    2  C1  UNL     1      23.960   3.626  49.405  1.00  0.00     0.248 C 
HETATM    3  C2  UNL     1      22.959   4.538  48.791  1.00  0.00     0.279 C 
HETATM    4  O2  UNL     1      23.528   5.799  48.486  1.00  0.00    -0.340 OA
HETATM    5  C3  UNL     1      24.907   6.006  48.485  1.00  0.00     0.098 A 
HETATM    6  C4  UNL     1      25.391   7.211  48.023  1.00  0.00     0.071 A 
HETATM    7  C5  UNL     1      26.747   7.455  48.007  1.00  0.00     0.075 A 
HETATM    8  N1  UNL     1      27.093   8.660  47.536  1.00  0.00    -0.241 NA
HETATM    9  C6  UNL     1      28.395   8.979  47.489  1.00  0.00     0.236 A 
HETATM   10  N2  UNL     1      29.289   8.081  47.912  1.00  0.00    -0.224 NA
HETATM   11  C7  UNL     1      29.020   6.865  48.390  1.00  0.00     0.142 A 
HETATM   12  C14 UNL     1      27.689   6.533  48.443  1.00  0.00     0.041 A 
HETATM   13  C15 UNL     1      27.165   5.358  48.891  1.00  0.00     0.050 A 
HETATM   14  C16 UNL     1      25.831   5.067  48.926  1.00  0.00     0.071 A 
HETATM   15  N4  UNL     1      25.386   3.804  49.418  1.00  0.00    -0.314 N 
ENDROOT
BRANCH  11  16
HETATM   16  N3  UNL     1      29.976   5.924  48.838  1.00  0.00    -0.340 N 
HETATM   17  H5  UNL     1      29.725   5.175  49.511  1.00  0.00     0.167 HD
BRANCH  16  18
HETATM   18  C8  UNL     1      31.339   5.800  48.510  1.00  0.00     0.035 A 
HETATM   19  C9  UNL     1      32.344   6.660  48.903  1.00  0.00     0.029 A 
HETATM   20  C10 UNL     1      33.670   6.530  48.575  1.00  0.00     0.004 A 
HETATM   21  C11 UNL     1      34.077   5.472  47.793  1.00  0.00     0.024 A 
HETATM   22  C12 UNL     1      33.113   4.581  47.373  1.00  0.00     0.036 A 
HETATM   23 CL1  UNL     1      33.706   3.267  46.384  1.00  0.00    -0.084 Cl
HETATM   24  C13 UNL     1      31.796   4.764  47.733  1.00  0.00     0.053 A 
ENDBRANCH  16  18
ENDBRANCH  11  16
BRANCH  15  25
HETATM   25  C17 UNL     1      26.223   2.763  49.892  1.00  0.00     0.134 C 
BRANCH  25  26
HETATM   26  C18 UNL     1      26.724   2.897  51.299  1.00  0.00     0.040 C 
BRANCH  26  27
HETATM   27  C19 UNL     1      26.244   1.665  52.048  1.00  0.00     0.118 C 
BRANCH  27  28
HETATM   28  N5  UNL     1      26.805   1.529  53.335  1.00  0.00    -0.412 N 
HETATM   29  C20 UNL     1      28.011   2.239  53.502  1.00  0.00     0.117 C 
HETATM   30  C21 UNL     1      29.207   1.472  53.954  1.00  0.00     0.019 C 
HETATM   31  C22 UNL     1      28.936   0.018  54.239  1.00  0.00     0.003 C 
HETATM   32  C23 UNL     1      27.645  -0.023  55.042  1.00  0.00     0.019 C 
HETATM   33  C24 UNL     1      26.544   0.378  54.088  1.00  0.00     0.117 C 
ENDBRANCH  27  28
ENDBRANCH  26  27
ENDBRANCH  25  26
ENDBRANCH  15  25
TORSDOF 6
ENDMDL
MODEL 7
REMARK VINA RESULT:      -7.8      5.483      9.989
REMARK  6 active torsions:
REMARK  status: ('A' for Active; 'I' for Inactive)
REMARK    1  A    between atoms: C7_11  and  N3_12 
REMARK    2  A    between atoms: N3_12  and  C8_13 
REMARK    3  A    between atoms: N4_23  and  C17_24 
REMARK    4  A    between atoms: C17_24  and  C18_25 
REMARK    5  A    between atoms: C18_25  and  C19_26 
REMARK    6  A    between atoms: C19_26  and  N5_27 
ROOT
HETATM    1  O1  UNL     1      30.190   8.532  46.739  1.00  0.00    -0.271 OA
HETATM    2  C1  UNL     1      29.017   8.277  47.143  1.00  0.00     0.248 C 
HETATM    3  C2  UNL     1      27.941   9.205  46.704  1.00  0.00     0.279 C 
HETATM    4  O2  UNL     1      26.657   8.652  46.931  1.00  0.00    -0.340 OA
HETATM    5  C3  UNL     1      26.468   7.533  47.741  1.00  0.00     0.098 A 
HETATM    6  C4  UNL     1      25.179   7.151  48.044  1.00  0.00     0.071 A 
HETATM    7  C5  UNL     1      24.950   6.050  48.841  1.00  0.00     0.075 A 
HETATM    8  N1  UNL     1      23.657   5.780  49.063  1.00  0.00    -0.241 NA
HETATM    9  C6  UNL     1      23.347   4.723  49.828  1.00  0.00     0.236 A 
HETATM   10  N2  UNL     1      24.339   3.986  50.334  1.00  0.00    -0.224 NA
HETATM   11  C7  UNL     1      25.645   4.195  50.157  1.00  0.00     0.142 A 
HETATM   12  C14 UNL     1      25.970   5.275  49.375  1.00  0.00     0.041 A 
HETATM   13  C15 UNL     1      27.226   5.690  49.048  1.00  0.00     0.050 A 
HETATM   14  C16 UNL     1      27.505   6.773  48.264  1.00  0.00     0.071 A 
HETATM   15  N4  UNL     1      28.860   7.121  47.981  1.00  0.00    -0.314 N 
ENDROOT
BRANCH  11  16
HETATM   16  N3  UNL     1      26.687   3.405  50.698  1.00  0.00    -0.340 N 
HETATM   17  H5  UNL     1      27.681   3.579  50.453  1.00  0.00     0.167 HD
BRANCH  16  18
HETATM   18  C8  UNL     1      26.624   2.321  51.592  1.00  0.00     0.035 A 
HETATM   19  C9  UNL     1      25.628   1.366  51.632  1.00  0.00     0.029 A 
HETATM   20  C10 UNL     1      25.576   0.313  52.510  1.00  0.00     0.004 A 
HETATM   21  C11 UNL     1      26.576   0.157  53.444  1.00  0.00     0.024 A 
HETATM   22  C12 UNL     1      27.596   1.083  53.448  1.00  0.00     0.036 A 
HETATM   23 CL1  UNL     1      28.826   0.818  54.663  1.00  0.00    -0.084 Cl
HETATM   24  C13 UNL     1      27.594   2.120  52.542  1.00  0.00     0.053 A 
ENDBRANCH  16  18
ENDBRANCH  11  16
BRANCH  15  25
HETATM   25  C17 UNL     1      30.004   6.431  48.455  1.00  0.00     0.134 C 
BRANCH  25  26
HETATM   26  C18 UNL     1      30.493   5.290  47.613  1.00  0.00     0.040 C 
BRANCH  26  27
HETATM   27  C19 UNL     1      31.897   5.658  47.160  1.00  0.00     0.118 C 
BRANCH  27  28
HETATM   28  N5  UNL     1      32.603   4.586  46.575  1.00  0.00    -0.412 N 
HETATM   29  C20 UNL     1      32.513   3.386  47.308  1.00  0.00     0.117 C 
HETATM   30  C21 UNL     1      33.788   2.733  47.722  1.00  0.00     0.019 C 
HETATM   31  C22 UNL     1      35.028   3.433  47.230  1.00  0.00     0.003 C 
HETATM   32  C23 UNL     1      34.773   3.770  45.769  1.00  0.00     0.019 C 
HETATM   33  C24 UNL     1      33.714   4.847  45.765  1.00  0.00     0.117 C 
ENDBRANCH  27  28
ENDBRANCH  26  27
ENDBRANCH  25  26
ENDBRANCH  15  25
TORSDOF 6
ENDMDL
MODEL 8
REMARK VINA RESULT:      -7.8      3.308      5.890
REMARK  6 active torsions:
REMARK  status: ('A' for Active; 'I' for Inactive)
REMARK    1  A    between atoms: C7_11  and  N3_12 
REMARK    2  A    between atoms: N3_12  and  C8_13 
REMARK    3  A    between atoms: N4_23  and  C17_24 
REMARK    4  A    between atoms: C17_24  and  C18_25 
REMARK    5  A    between atoms: C18_25  and  C19_26 
REMARK    6  A    between atoms: C19_26  and  N5_27 
ROOT
HETATM    1  O1  UNL     1      20.993   6.309  49.753  1.00  0.00    -0.271 OA
HETATM    2  C1  UNL     1      20.979   5.318  50.541  1.00  0.00     0.248 C 
HETATM    3  C2  UNL     1      19.665   4.952  51.134  1.00  0.00     0.279 C 
HETATM    4  O2  UNL     1      19.703   3.662  51.718  1.00  0.00    -0.340 OA
HETATM    5  C3  UNL     1      20.903   2.996  51.960  1.00  0.00     0.098 A 
HETATM    6  C4  UNL     1      20.869   1.819  52.676  1.00  0.00     0.071 A 
HETATM    7  C5  UNL     1      22.034   1.130  52.936  1.00  0.00     0.075 A 
HETATM    8  N1  UNL     1      21.872   0.001  53.639  1.00  0.00    -0.241 NA
HETATM    9  C6  UNL     1      22.956  -0.731  53.933  1.00  0.00     0.236 A 
HETATM   10  N2  UNL     1      24.150  -0.304  53.513  1.00  0.00    -0.224 NA
HETATM   11  C7  UNL     1      24.387   0.806  52.812  1.00  0.00     0.142 A 
HETATM   12  C14 UNL     1      23.282   1.560  52.506  1.00  0.00     0.041 A 
HETATM   13  C15 UNL     1      23.266   2.727  51.803  1.00  0.00     0.050 A 
HETATM   14  C16 UNL     1      22.141   3.447  51.521  1.00  0.00     0.071 A 
HETATM   15  N4  UNL     1      22.235   4.659  50.773  1.00  0.00    -0.314 N 
ENDROOT
BRANCH  11  16
HETATM   16  N3  UNL     1      25.657   1.247  52.370  1.00  0.00    -0.340 N 
HETATM   17  H5  UNL     1      25.758   1.875  51.550  1.00  0.00     0.167 HD
BRANCH  16  18
HETATM   18  C8  UNL     1      26.937   0.966  52.884  1.00  0.00     0.035 A 
HETATM   19  C9  UNL     1      27.799   1.884  53.447  1.00  0.00     0.029 A 
HETATM   20  C10 UNL     1      29.045   1.597  53.945  1.00  0.00     0.004 A 
HETATM   21  C11 UNL     1      29.515   0.303  53.900  1.00  0.00     0.024 A 
HETATM   22  C12 UNL     1      28.692  -0.655  53.347  1.00  0.00     0.036 A 
HETATM   23 CL1  UNL     1      29.358  -2.271  53.325  1.00  0.00    -0.084 Cl
HETATM   24  C13 UNL     1      27.451  -0.307  52.863  1.00  0.00     0.053 A 
ENDBRANCH  16  18
ENDBRANCH  11  16
BRANCH  15  25
HETATM   25  C17 UNL     1      23.433   5.226  50.271  1.00  0.00     0.134 C 
BRANCH  25  26
HETATM   26  C18 UNL     1      24.019   4.580  49.051  1.00  0.00     0.040 C 
BRANCH  26  27
HETATM   27  C19 UNL     1      23.007   4.771  47.932  1.00  0.00     0.118 C 
BRANCH  27  28
HETATM   28  N5  UNL     1      22.398   3.572  47.508  1.00  0.00    -0.412 N 
HETATM   29  C20 UNL     1      21.094   3.749  47.006  1.00  0.00     0.117 C 
HETATM   30  C21 UNL     1      20.000   2.951  47.631  1.00  0.00     0.019 C 
HETATM   31  C22 UNL     1      20.465   1.994  48.697  1.00  0.00     0.003 C 
HETATM   32  C23 UNL     1      21.699   1.304  48.137  1.00  0.00     0.019 C 
HETATM   33  C24 UNL     1      22.782   2.356  48.087  1.00  0.00     0.117 C 
ENDBRANCH  27  28
ENDBRANCH  26  27
ENDBRANCH  25  26
ENDBRANCH  15  25
TORSDOF 6
ENDMDL
MODEL 9
REMARK VINA RESULT:      -7.7      3.467      6.317
REMARK  6 active torsions:
REMARK  status: ('A' for Active; 'I' for Inactive)
REMARK    1  A    between atoms: C7_11  and  N3_12 
REMARK    2  A    between atoms: N3_12  and  C8_13 
REMARK    3  A    between atoms: N4_23  and  C17_24 
REMARK    4  A    between atoms: C17_24  and  C18_25 
REMARK    5  A    between atoms: C18_25  and  C19_26 
REMARK    6  A    between atoms: C19_26  and  N5_27 
ROOT
HETATM    1  O1  UNL     1      25.227   6.136  49.025  1.00  0.00    -0.271 OA
HETATM    2  C1  UNL     1      25.504   4.995  49.499  1.00  0.00     0.248 C 
HETATM    3  C2  UNL     1      26.839   4.434  49.159  1.00  0.00     0.279 C 
HETATM    4  O2  UNL     1      27.167   3.337  49.992  1.00  0.00    -0.340 OA
HETATM    5  C3  UNL     1      26.214   2.707  50.791  1.00  0.00     0.098 A 
HETATM    6  C4  UNL     1      26.570   1.549  51.449  1.00  0.00     0.071 A 
HETATM    7  C5  UNL     1      25.657   0.896  52.249  1.00  0.00     0.075 A 
HETATM    8  N1  UNL     1      26.120  -0.216  52.835  1.00  0.00    -0.241 NA
HETATM    9  C6  UNL     1      25.296  -0.910  53.632  1.00  0.00     0.236 A 
HETATM   10  N2  UNL     1      24.049  -0.464  53.808  1.00  0.00    -0.224 NA
HETATM   11  C7  UNL     1      23.519   0.631  53.259  1.00  0.00     0.142 A 
HETATM   12  C14 UNL     1      24.358   1.347  52.442  1.00  0.00     0.041 A 
HETATM   13  C15 UNL     1      24.052   2.493  51.773  1.00  0.00     0.050 A 
HETATM   14  C16 UNL     1      24.919   3.176  50.968  1.00  0.00     0.071 A 
HETATM   15  N4  UNL     1      24.497   4.372  50.313  1.00  0.00    -0.314 N 
ENDROOT
BRANCH  11  16
HETATM   16  N3  UNL     1      22.197   1.095  53.455  1.00  0.00    -0.340 N 
HETATM   17  H5  UNL     1      22.002   1.966  53.983  1.00  0.00     0.167 HD
BRANCH  16  18
HETATM   18  C8  UNL     1      20.976   0.541  53.025  1.00  0.00     0.035 A 
HETATM   19  C9  UNL     1      20.234  -0.401  53.707  1.00  0.00     0.029 A 
HETATM   20  C10 UNL     1      19.045  -0.934  53.277  1.00  0.00     0.004 A 
HETATM   21  C11 UNL     1      18.512  -0.527  52.075  1.00  0.00     0.024 A 
HETATM   22  C12 UNL     1      19.214   0.414  51.352  1.00  0.00     0.036 A 
HETATM   23 CL1  UNL     1      18.474   0.879  49.838  1.00  0.00    -0.084 Cl
HETATM   24  C13 UNL     1      20.403   0.913  51.835  1.00  0.00     0.053 A 
ENDBRANCH  16  18
ENDBRANCH  11  16
BRANCH  15  25
HETATM   25  C17 UNL     1      23.207   4.952  50.409  1.00  0.00     0.134 C 
BRANCH  25  26
HETATM   26  C18 UNL     1      22.152   4.388  49.504  1.00  0.00     0.040 C 
BRANCH  26  27
HETATM   27  C19 UNL     1      21.298   5.562  49.053  1.00  0.00     0.118 C 
BRANCH  27  28
HETATM   28  N5  UNL     1      21.093   5.611  47.658  1.00  0.00    -0.412 N 
HETATM   29  C20 UNL     1      20.013   4.820  47.218  1.00  0.00     0.117 C 
HETATM   30  C21 UNL     1      20.289   3.798  46.169  1.00  0.00     0.019 C 
HETATM   31  C22 UNL     1      21.708   3.796  45.665  1.00  0.00     0.003 C 
HETATM   32  C23 UNL     1      22.078   5.254  45.438  1.00  0.00     0.019 C 
HETATM   33  C24 UNL     1      22.173   5.882  46.808  1.00  0.00     0.117 C 
ENDBRANCH  27  28
ENDBRANCH  26  27
ENDBRANCH  25  26
ENDBRANCH  15  25
TORSDOF 6
ENDMDL
