MODEL 1
REMARK VINA RESULT:      -8.8      0.000      0.000
REMARK  4 active torsions:
REMARK  status: ('A' for Active; 'I' for Inactive)
REMARK    1  A    between atoms: N1_1  and  C1_2 
REMARK    2  A    between atoms: C10_13  and  O1_14 
REMARK    3  A    between atoms: C14_18  and  C15_19 
REMARK    4  A    between atoms: C15_19  and  N4_20 
ROOT
HETATM    1  C1  UNL     1      26.163   1.060  53.030  1.00  0.00     0.135 A 
HETATM    2  N2  UNL     1      27.291   0.915  53.753  1.00  0.00    -0.224 NA
HETATM    3  C2  UNL     1      27.253   0.156  54.893  1.00  0.00     0.235 A 
HETATM    4  N3  UNL     1      26.168  -0.472  55.365  1.00  0.00    -0.245 NA
HETATM    5  C3  UNL     1      24.995  -0.388  54.716  1.00  0.00     0.052 A 
HETATM    6  C4  UNL     1      25.083   0.402  53.554  1.00  0.00     0.047 A 
HETATM    7  C5  UNL     1      23.912   0.674  52.678  1.00  0.00     0.013 C 
HETATM    8  C6  UNL     1      23.780   1.870  51.886  1.00  0.00    -0.020 A 
HETATM    9  C7  UNL     1      23.538   2.110  50.549  1.00  0.00     0.012 A 
HETATM   10  C8  UNL     1      23.354   3.380  50.049  1.00  0.00     0.004 A 
HETATM   11  C9  UNL     1      23.411   4.455  50.906  1.00  0.00     0.036 A 
HETATM   12  C10 UNL     1      23.650   4.264  52.250  1.00  0.00     0.066 A 
HETATM   13  C11 UNL     1      23.839   2.974  52.767  1.00  0.00     0.049 A 
HETATM   14  C12 UNL     1      22.901  -0.222  52.608  1.00  0.00     0.018 C 
HETATM   15  C13 UNL     1      21.599   0.410  52.125  1.00  0.00     0.064 C 
HETATM   16  C14 UNL     1      20.717  -0.321  53.184  1.00  0.00     0.021 C 
HETATM   17  C19 UNL     1      21.506  -0.397  54.498  1.00  0.00     0.032 C 
HETATM   18  C20 UNL     1      22.665  -1.408  54.405  1.00  0.00     0.087 C 
HETATM   19  C21 UNL     1      23.821  -1.109  55.239  1.00  0.00     0.085 C 
HETATM   20  N5  UNL     1      22.842  -1.634  52.982  1.00  0.00    -0.387 N 
HETATM   21  H25 UNL     1      22.880  -2.635  52.573  1.00  0.00     0.159 HD
ENDROOT
BRANCH   1  22
HETATM   22  N1  UNL     1      26.134   1.782  51.819  1.00  0.00    -0.383 N 
HETATM   23  H1  UNL     1      26.110   0.941  51.162  1.00  0.00     0.157 HD
HETATM   24  H2  UNL     1      26.149   2.752  51.461  1.00  0.00     0.157 HD
ENDBRANCH   1  22
BRANCH  12  25
HETATM   25  O1  UNL     1      23.679   5.437  52.983  1.00  0.00    -0.361 OA
HETATM   26  H7  UNL     1      23.079   5.647  53.768  1.00  0.00     0.217 HD
ENDBRANCH  12  25
BRANCH  16  27
HETATM   27  C15 UNL     1      19.378   0.290  53.328  1.00  0.00     0.277 C 
BRANCH  27  28
HETATM   28  N4  UNL     1      18.480  -0.501  52.468  1.00  0.00     0.088 N 
HETATM   29  C16 UNL     1      17.605  -1.282  53.308  1.00  0.00     0.274 C 
HETATM   30  C17 UNL     1      16.385  -0.717  52.635  1.00  0.00     0.060 C 
HETATM   31  C18 UNL     1      17.360   0.218  51.967  1.00  0.00     0.274 C 
ENDBRANCH  27  28
ENDBRANCH  16  27
TORSDOF 4
ENDMDL
MODEL 2
REMARK VINA RESULT:      -8.0      2.875      6.367
REMARK  4 active torsions:
REMARK  status: ('A' for Active; 'I' for Inactive)
REMARK    1  A    between atoms: N1_1  and  C1_2 
REMARK    2  A    between atoms: C10_13  and  O1_14 
REMARK    3  A    between atoms: C14_18  and  C15_19 
REMARK    4  A    between atoms: C15_19  and  N4_20 
ROOT
HETATM    1  C1  UNL     1      21.397   0.932  53.422  1.00  0.00     0.135 A 
HETATM    2  N2  UNL     1      21.064  -0.164  54.133  1.00  0.00    -0.224 NA
HETATM    3  C2  UNL     1      22.044  -1.064  54.457  1.00  0.00     0.235 A 
HETATM    4  N3  UNL     1      23.337  -0.950  54.124  1.00  0.00    -0.245 NA
HETATM    5  C3  UNL     1      23.768   0.107  53.416  1.00  0.00     0.052 A 
HETATM    6  C4  UNL     1      22.726   1.002  53.105  1.00  0.00     0.047 A 
HETATM    7  C5  UNL     1      22.941   2.236  52.301  1.00  0.00     0.013 C 
HETATM    8  C6  UNL     1      21.918   2.832  51.481  1.00  0.00    -0.020 A 
HETATM    9  C7  UNL     1      21.381   4.099  51.392  1.00  0.00     0.012 A 
HETATM   10  C8  UNL     1      20.457   4.443  50.430  1.00  0.00     0.004 A 
HETATM   11  C9  UNL     1      20.049   3.495  49.520  1.00  0.00     0.036 A 
HETATM   12  C10 UNL     1      20.559   2.215  49.570  1.00  0.00     0.066 A 
HETATM   13  C11 UNL     1      21.499   1.857  50.547  1.00  0.00     0.049 A 
HETATM   14  C12 UNL     1      24.149   2.845  52.313  1.00  0.00     0.018 C 
HETATM   15  C13 UNL     1      24.364   3.729  51.088  1.00  0.00     0.064 C 
HETATM   16  C14 UNL     1      25.830   3.246  50.856  1.00  0.00     0.021 C 
HETATM   17  C19 UNL     1      25.902   1.749  51.185  1.00  0.00     0.032 C 
HETATM   18  C20 UNL     1      25.799   1.497  52.702  1.00  0.00     0.087 C 
HETATM   19  C21 UNL     1      25.199   0.226  53.083  1.00  0.00     0.085 C 
HETATM   20  N5  UNL     1      25.270   2.736  53.244  1.00  0.00    -0.387 N 
HETATM   21  H25 UNL     1      25.747   3.231  54.080  1.00  0.00     0.159 HD
ENDROOT
BRANCH   1  22
HETATM   22  N1  UNL     1      20.455   1.930  53.094  1.00  0.00    -0.383 N 
HETATM   23  H1  UNL     1      19.687   1.615  53.765  1.00  0.00     0.157 HD
HETATM   24  H2  UNL     1      20.327   2.738  52.464  1.00  0.00     0.157 HD
ENDBRANCH   1  22
BRANCH  12  25
HETATM   25  O1  UNL     1      20.055   1.377  48.592  1.00  0.00    -0.361 OA
HETATM   26  H7  UNL     1      20.284   0.398  48.489  1.00  0.00     0.217 HD
ENDBRANCH  12  25
BRANCH  16  27
HETATM   27  C15 UNL     1      26.332   3.583  49.506  1.00  0.00     0.277 C 
BRANCH  27  28
HETATM   28  N4  UNL     1      26.998   4.891  49.640  1.00  0.00     0.088 N 
HETATM   29  C16 UNL     1      27.936   5.045  48.555  1.00  0.00     0.274 C 
HETATM   30  C17 UNL     1      27.307   6.346  48.140  1.00  0.00     0.060 C 
HETATM   31  C18 UNL     1      26.243   5.990  49.145  1.00  0.00     0.274 C 
ENDBRANCH  27  28
ENDBRANCH  16  27
TORSDOF 4
ENDMDL
MODEL 3
REMARK VINA RESULT:      -8.0      1.325      1.733
REMARK  4 active torsions:
REMARK  status: ('A' for Active; 'I' for Inactive)
REMARK    1  A    between atoms: N1_1  and  C1_2 
REMARK    2  A    between atoms: C10_13  and  O1_14 
REMARK    3  A    between atoms: C14_18  and  C15_19 
REMARK    4  A    between atoms: C15_19  and  N4_20 
ROOT
HETATM    1  C1  UNL     1      25.599   1.207  52.400  1.00  0.00     0.135 A 
HETATM    2  N2  UNL     1      26.558   0.763  53.237  1.00  0.00    -0.224 NA
HETATM    3  C2  UNL     1      26.198  -0.032  54.292  1.00  0.00     0.235 A 
HETATM    4  N3  UNL     1      24.947  -0.419  54.574  1.00  0.00    -0.245 NA
HETATM    5  C3  UNL     1      23.921  -0.029  53.799  1.00  0.00     0.052 A 
HETATM    6  C4  UNL     1      24.339   0.786  52.730  1.00  0.00     0.047 A 
HETATM    7  C5  UNL     1      23.389   1.372  51.748  1.00  0.00     0.013 C 
HETATM    8  C6  UNL     1      23.633   2.610  51.053  1.00  0.00    -0.020 A 
HETATM    9  C7  UNL     1      23.636   2.977  49.724  1.00  0.00     0.012 A 
HETATM   10  C8  UNL     1      23.807   4.282  49.319  1.00  0.00     0.004 A 
HETATM   11  C9  UNL     1      23.983   5.264  50.268  1.00  0.00     0.036 A 
HETATM   12  C10 UNL     1      23.988   4.944  51.609  1.00  0.00     0.066 A 
HETATM   13  C11 UNL     1      23.814   3.617  52.029  1.00  0.00     0.049 A 
HETATM   14  C12 UNL     1      22.224   0.738  51.478  1.00  0.00     0.018 C 
HETATM   15  C13 UNL     1      21.172   1.681  50.900  1.00  0.00     0.064 C 
HETATM   16  C14 UNL     1      20.014   1.112  51.777  1.00  0.00     0.021 C 
HETATM   17  C19 UNL     1      20.579   0.779  53.164  1.00  0.00     0.032 C 
HETATM   18  C20 UNL     1      21.488  -0.465  53.122  1.00  0.00     0.087 C 
HETATM   19  C21 UNL     1      22.556  -0.489  54.112  1.00  0.00     0.085 C 
HETATM   20  N5  UNL     1      21.803  -0.641  51.716  1.00  0.00    -0.387 N 
HETATM   21  H25 UNL     1      21.675  -1.598  51.229  1.00  0.00     0.159 HD
ENDROOT
BRANCH   1  22
HETATM   22  N1  UNL     1      25.897   1.986  51.262  1.00  0.00    -0.383 N 
HETATM   23  H1  UNL     1      24.948   2.467  51.177  1.00  0.00     0.157 HD
HETATM   24  H2  UNL     1      26.660   2.167  50.589  1.00  0.00     0.157 HD
ENDBRANCH   1  22
BRANCH  12  25
HETATM   25  O1  UNL     1      24.174   6.033  52.441  1.00  0.00    -0.361 OA
HETATM   26  H7  UNL     1      25.070   6.404  52.723  1.00  0.00     0.217 HD
ENDBRANCH  12  25
BRANCH  16  27
HETATM   27  C15 UNL     1      18.837   2.006  51.812  1.00  0.00     0.277 C 
BRANCH  27  28
HETATM   28  N4  UNL     1      17.664   1.135  51.619  1.00  0.00     0.088 N 
HETATM   29  C16 UNL     1      16.992   1.528  50.404  1.00  0.00     0.274 C 
HETATM   30  C17 UNL     1      17.074   0.129  49.858  1.00  0.00     0.060 C 
HETATM   31  C18 UNL     1      17.959  -0.133  51.048  1.00  0.00     0.274 C 
ENDBRANCH  27  28
ENDBRANCH  16  27
TORSDOF 4
ENDMDL
MODEL 4
REMARK VINA RESULT:      -7.7      4.471      7.477
REMARK  4 active torsions:
REMARK  status: ('A' for Active; 'I' for Inactive)
REMARK    1  A    between atoms: N1_1  and  C1_2 
REMARK    2  A    between atoms: C10_13  and  O1_14 
REMARK    3  A    between atoms: C14_18  and  C15_19 
REMARK    4  A    between atoms: C15_19  and  N4_20 
ROOT
HETATM    1  C1  UNL     1      26.309   4.044  49.688  1.00  0.00     0.135 A 
HETATM    2  N2  UNL     1      27.511   4.087  49.079  1.00  0.00    -0.224 NA
HETATM    3  C2  UNL     1      27.958   5.282  48.582  1.00  0.00     0.235 A 
HETATM    4  N3  UNL     1      27.291   6.442  48.650  1.00  0.00    -0.245 NA
HETATM    5  C3  UNL     1      26.085   6.503  49.237  1.00  0.00     0.052 A 
HETATM    6  C4  UNL     1      25.668   5.252  49.730  1.00  0.00     0.047 A 
HETATM    7  C5  UNL     1      24.353   5.049  50.395  1.00  0.00     0.013 C 
HETATM    8  C6  UNL     1      23.642   3.796  50.375  1.00  0.00    -0.020 A 
HETATM    9  C7  UNL     1      23.107   2.984  51.352  1.00  0.00     0.012 A 
HETATM   10  C8  UNL     1      22.369   1.860  51.056  1.00  0.00     0.004 A 
HETATM   11  C9  UNL     1      22.153   1.525  49.738  1.00  0.00     0.036 A 
HETATM   12  C10 UNL     1      22.669   2.307  48.726  1.00  0.00     0.066 A 
HETATM   13  C11 UNL     1      23.421   3.454  49.021  1.00  0.00     0.049 A 
HETATM   14  C12 UNL     1      23.765   6.076  51.052  1.00  0.00     0.018 C 
HETATM   15  C13 UNL     1      22.260   5.881  51.204  1.00  0.00     0.064 C 
HETATM   16  C14 UNL     1      21.916   7.357  50.832  1.00  0.00     0.021 C 
HETATM   17  C19 UNL     1      22.882   7.814  49.731  1.00  0.00     0.032 C 
HETATM   18  C20 UNL     1      24.306   8.026  50.279  1.00  0.00     0.087 C 
HETATM   19  C21 UNL     1      25.381   7.795  49.323  1.00  0.00     0.085 C 
HETATM   20  N5  UNL     1      24.315   7.334  51.555  1.00  0.00    -0.387 N 
HETATM   21  H25 UNL     1      24.664   7.822  52.455  1.00  0.00     0.159 HD
ENDROOT
BRANCH   1  22
HETATM   22  N1  UNL     1      25.803   2.862  50.270  1.00  0.00    -0.383 N 
HETATM   23  H1  UNL     1      26.731   2.340  50.341  1.00  0.00     0.157 HD
HETATM   24  H2  UNL     1      24.914   2.434  50.575  1.00  0.00     0.157 HD
ENDBRANCH   1  22
BRANCH  12  25
HETATM   25  O1  UNL     1      22.369   1.846  47.458  1.00  0.00    -0.361 OA
HETATM   26  H7  UNL     1      22.956   1.957  46.643  1.00  0.00     0.217 HD
ENDBRANCH  12  25
BRANCH  16  27
HETATM   27  C15 UNL     1      20.490   7.538  50.486  1.00  0.00     0.277 C 
BRANCH  27  28
HETATM   28  N4  UNL     1      20.437   8.708  49.591  1.00  0.00     0.088 N 
HETATM   29  C16 UNL     1      19.453   8.462  48.565  1.00  0.00     0.274 C 
HETATM   30  C17 UNL     1      18.725   9.735  48.900  1.00  0.00     0.060 C 
HETATM   31  C18 UNL     1      19.657   9.791  50.082  1.00  0.00     0.274 C 
ENDBRANCH  27  28
ENDBRANCH  16  27
TORSDOF 4
ENDMDL
MODEL 5
REMARK VINA RESULT:      -7.7     10.228     13.482
REMARK  4 active torsions:
REMARK  status: ('A' for Active; 'I' for Inactive)
REMARK    1  A    between atoms: N1_1  and  C1_2 
REMARK    2  A    between atoms: C10_13  and  O1_14 
REMARK    3  A    between atoms: C14_18  and  C15_19 
REMARK    4  A    between atoms: C15_19  and  N4_20 
ROOT
HETATM    1  C1  UNL     1      34.199   4.935  43.860  1.00  0.00     0.135 A 
HETATM    2  N2  UNL     1      34.401   4.882  42.528  1.00  0.00    -0.224 NA
HETATM    3  C2  UNL     1      33.754   5.783  41.725  1.00  0.00     0.235 A 
HETATM    4  N3  UNL     1      32.918   6.737  42.155  1.00  0.00    -0.245 NA
HETATM    5  C3  UNL     1      32.652   6.872  43.465  1.00  0.00     0.052 A 
HETATM    6  C4  UNL     1      33.337   5.924  44.248  1.00  0.00     0.047 A 
HETATM    7  C5  UNL     1      33.186   5.844  45.726  1.00  0.00     0.013 C 
HETATM    8  C6  UNL     1      33.349   4.623  46.472  1.00  0.00    -0.020 A 
HETATM    9  C7  UNL     1      34.117   4.261  47.559  1.00  0.00     0.012 A 
HETATM   10  C8  UNL     1      34.011   3.025  48.158  1.00  0.00     0.004 A 
HETATM   11  C9  UNL     1      33.110   2.111  47.662  1.00  0.00     0.036 A 
HETATM   12  C10 UNL     1      32.321   2.429  46.577  1.00  0.00     0.066 A 
HETATM   13  C11 UNL     1      32.423   3.685  45.960  1.00  0.00     0.049 A 
HETATM   14  C12 UNL     1      32.871   6.955  46.431  1.00  0.00     0.018 C 
HETATM   15  C13 UNL     1      32.248   6.625  47.785  1.00  0.00     0.064 C 
HETATM   16  C14 UNL     1      31.134   7.712  47.666  1.00  0.00     0.021 C 
HETATM   17  C19 UNL     1      30.673   7.769  46.203  1.00  0.00     0.032 C 
HETATM   18  C20 UNL     1      31.740   8.413  45.297  1.00  0.00     0.087 C 
HETATM   19  C21 UNL     1      31.750   7.946  43.918  1.00  0.00     0.085 C 
HETATM   20  N5  UNL     1      32.961   8.372  46.082  1.00  0.00    -0.387 N 
HETATM   21  H25 UNL     1      33.569   9.256  46.220  1.00  0.00     0.159 HD
ENDROOT
BRANCH   1  22
HETATM   22  N1  UNL     1      34.868   4.075  44.756  1.00  0.00    -0.383 N 
HETATM   23  H1  UNL     1      34.580   3.154  44.299  1.00  0.00     0.157 HD
HETATM   24  H2  UNL     1      35.450   4.099  45.609  1.00  0.00     0.157 HD
ENDBRANCH   1  22
BRANCH  12  25
HETATM   25  O1  UNL     1      31.465   1.412  46.193  1.00  0.00    -0.361 OA
HETATM   26  H7  UNL     1      31.741   0.573  45.702  1.00  0.00     0.217 HD
ENDBRANCH  12  25
BRANCH  16  27
HETATM   27  C15 UNL     1      30.033   7.503  48.630  1.00  0.00     0.277 C 
BRANCH  27  28
HETATM   28  N4  UNL     1      28.945   6.868  47.867  1.00  0.00     0.088 N 
HETATM   29  C16 UNL     1      28.784   5.512  48.334  1.00  0.00     0.274 C 
HETATM   30  C17 UNL     1      27.324   5.739  48.618  1.00  0.00     0.060 C 
HETATM   31  C18 UNL     1      27.637   7.184  48.330  1.00  0.00     0.274 C 
ENDBRANCH  27  28
ENDBRANCH  16  27
TORSDOF 4
ENDMDL
MODEL 6
REMARK VINA RESULT:      -7.5      3.006      4.916
REMARK  4 active torsions:
REMARK  status: ('A' for Active; 'I' for Inactive)
REMARK    1  A    between atoms: N1_1  and  C1_2 
REMARK    2  A    between atoms: C10_13  and  O1_14 
REMARK    3  A    between atoms: C14_18  and  C15_19 
REMARK    4  A    between atoms: C15_19  and  N4_20 
ROOT
HETATM    1  C1  UNL     1      24.578   1.589  51.874  1.00  0.00     0.135 A 
HETATM    2  N2  UNL     1      24.790   0.814  52.956  1.00  0.00    -0.224 NA
HETATM    3  C2  UNL     1      23.761   0.045  53.431  1.00  0.00     0.235 A 
HETATM    4  N3  UNL     1      22.532  -0.009  52.902  1.00  0.00    -0.245 NA
HETATM    5  C3  UNL     1      22.221   0.726  51.822  1.00  0.00     0.052 A 
HETATM    6  C4  UNL     1      23.308   1.500  51.372  1.00  0.00     0.047 A 
HETATM    7  C5  UNL     1      23.210   2.424  50.210  1.00  0.00     0.013 C 
HETATM    8  C6  UNL     1      24.014   3.611  50.075  1.00  0.00    -0.020 A 
HETATM    9  C7  UNL     1      24.841   4.099  49.085  1.00  0.00     0.012 A 
HETATM   10  C8  UNL     1      25.432   5.340  49.162  1.00  0.00     0.004 A 
HETATM   11  C9  UNL     1      25.194   6.132  50.262  1.00  0.00     0.036 A 
HETATM   12  C10 UNL     1      24.373   5.687  51.277  1.00  0.00     0.066 A 
HETATM   13  C11 UNL     1      23.769   4.423  51.207  1.00  0.00     0.049 A 
HETATM   14  C12 UNL     1      22.324   2.168  49.220  1.00  0.00     0.018 C 
HETATM   15  C13 UNL     1      21.973   3.418  48.418  1.00  0.00     0.064 C 
HETATM   16  C14 UNL     1      20.445   3.103  48.379  1.00  0.00     0.021 C 
HETATM   17  C19 UNL     1      20.046   2.486  49.725  1.00  0.00     0.032 C 
HETATM   18  C20 UNL     1      20.587   1.051  49.874  1.00  0.00     0.087 C 
HETATM   19  C21 UNL     1      20.870   0.631  51.240  1.00  0.00     0.085 C 
HETATM   20  N5  UNL     1      21.617   0.941  48.857  1.00  0.00    -0.387 N 
HETATM   21  H25 UNL     1      21.632   0.112  48.162  1.00  0.00     0.159 HD
ENDROOT
BRANCH   1  22
HETATM   22  N1  UNL     1      25.601   2.369  51.296  1.00  0.00    -0.383 N 
HETATM   23  H1  UNL     1      25.125   2.541  50.357  1.00  0.00     0.157 HD
HETATM   24  H2  UNL     1      26.544   2.738  51.503  1.00  0.00     0.157 HD
ENDBRANCH   1  22
BRANCH  12  25
HETATM   25  O1  UNL     1      24.229   6.590  52.314  1.00  0.00    -0.361 OA
HETATM   26  H7  UNL     1      23.457   7.232  52.425  1.00  0.00     0.217 HD
ENDBRANCH  12  25
BRANCH  16  27
HETATM   27  C15 UNL     1      19.633   4.279  47.998  1.00  0.00     0.277 C 
BRANCH  27  28
HETATM   28  N4  UNL     1      20.370   5.455  48.494  1.00  0.00     0.088 N 
HETATM   29  C16 UNL     1      20.130   6.561  47.600  1.00  0.00     0.274 C 
HETATM   30  C17 UNL     1      19.651   7.427  48.733  1.00  0.00     0.060 C 
HETATM   31  C18 UNL     1      19.717   6.159  49.543  1.00  0.00     0.274 C 
ENDBRANCH  27  28
ENDBRANCH  16  27
TORSDOF 4
ENDMDL
MODEL 7
REMARK VINA RESULT:      -7.5      9.250     12.146
REMARK  4 active torsions:
REMARK  status: ('A' for Active; 'I' for Inactive)
REMARK    1  A    between atoms: N1_1  and  C1_2 
REMARK    2  A    between atoms: C10_13  and  O1_14 
REMARK    3  A    between atoms: C14_18  and  C15_19 
REMARK    4  A    between atoms: C15_19  and  N4_20 
ROOT
HETATM    1  C1  UNL     1      34.148   7.969  47.316  1.00  0.00     0.135 A 
HETATM    2  N2  UNL     1      34.920   9.000  46.919  1.00  0.00    -0.224 NA
HETATM    3  C2  UNL     1      34.350  10.237  46.780  1.00  0.00     0.235 A 
HETATM    4  N3  UNL     1      33.061  10.522  47.009  1.00  0.00    -0.245 NA
HETATM    5  C3  UNL     1      32.211   9.562  47.407  1.00  0.00     0.052 A 
HETATM    6  C4  UNL     1      32.841   8.309  47.535  1.00  0.00     0.047 A 
HETATM    7  C5  UNL     1      32.108   7.078  47.932  1.00  0.00     0.013 C 
HETATM    8  C6  UNL     1      32.504   5.755  47.522  1.00  0.00    -0.020 A 
HETATM    9  C7  UNL     1      32.769   4.583  48.198  1.00  0.00     0.012 A 
HETATM   10  C8  UNL     1      33.039   3.400  47.546  1.00  0.00     0.004 A 
HETATM   11  C9  UNL     1      33.047   3.376  46.170  1.00  0.00     0.036 A 
HETATM   12  C10 UNL     1      32.788   4.524  45.452  1.00  0.00     0.066 A 
HETATM   13  C11 UNL     1      32.513   5.733  46.108  1.00  0.00     0.049 A 
HETATM   14  C12 UNL     1      31.005   7.173  48.710  1.00  0.00     0.018 C 
HETATM   15  C13 UNL     1      30.101   5.949  48.587  1.00  0.00     0.064 C 
HETATM   16  C14 UNL     1      28.786   6.785  48.513  1.00  0.00     0.021 C 
HETATM   17  C19 UNL     1      29.069   8.057  47.702  1.00  0.00     0.032 C 
HETATM   18  C20 UNL     1      29.945   9.049  48.490  1.00  0.00     0.087 C 
HETATM   19  C21 UNL     1      30.803   9.902  47.679  1.00  0.00     0.085 C 
HETATM   20  N5  UNL     1      30.521   8.257  49.562  1.00  0.00    -0.387 N 
HETATM   21  H25 UNL     1      30.471   8.587  50.591  1.00  0.00     0.159 HD
ENDROOT
BRANCH   1  22
HETATM   22  N1  UNL     1      34.673   6.677  47.532  1.00  0.00    -0.383 N 
HETATM   23  H1  UNL     1      35.670   6.882  47.210  1.00  0.00     0.157 HD
HETATM   24  H2  UNL     1      34.387   5.736  47.847  1.00  0.00     0.157 HD
ENDBRANCH   1  22
BRANCH  12  25
HETATM   25  O1  UNL     1      32.832   4.345  44.081  1.00  0.00    -0.361 OA
HETATM   26  H7  UNL     1      32.560   3.503  43.595  1.00  0.00     0.217 HD
ENDBRANCH  12  25
BRANCH  16  27
HETATM   27  C15 UNL     1      27.641   5.998  48.007  1.00  0.00     0.277 C 
BRANCH  27  28
HETATM   28  N4  UNL     1      26.877   5.587  49.199  1.00  0.00     0.088 N 
HETATM   29  C16 UNL     1      25.469   5.703  48.908  1.00  0.00     0.274 C 
HETATM   30  C17 UNL     1      25.230   4.268  49.290  1.00  0.00     0.060 C 
HETATM   31  C18 UNL     1      26.733   4.181  49.350  1.00  0.00     0.274 C 
ENDBRANCH  27  28
ENDBRANCH  16  27
TORSDOF 4
ENDMDL
MODEL 8
REMARK VINA RESULT:      -7.5      2.465      3.325
REMARK  4 active torsions:
REMARK  status: ('A' for Active; 'I' for Inactive)
REMARK    1  A    between atoms: N1_1  and  C1_2 
REMARK    2  A    between atoms: C10_13  and  O1_14 
REMARK    3  A    between atoms: C14_18  and  C15_19 
REMARK    4  A    between atoms: C15_19  and  N4_20 
ROOT
HETATM    1  C1  UNL     1      26.049   2.887  50.959  1.00  0.00     0.135 A 
HETATM    2  N2  UNL     1      27.174   2.467  51.572  1.00  0.00    -0.224 NA
HETATM    3  C2  UNL     1      27.071   1.562  52.595  1.00  0.00     0.235 A 
HETATM    4  N3  UNL     1      25.924   1.043  53.052  1.00  0.00    -0.245 NA
HETATM    5  C3  UNL     1      24.749   1.398  52.506  1.00  0.00     0.052 A 
HETATM    6  C4  UNL     1      24.905   2.330  51.462  1.00  0.00     0.047 A 
HETATM    7  C5  UNL     1      23.752   2.903  50.718  1.00  0.00     0.013 C 
HETATM    8  C6  UNL     1      23.774   4.209  50.111  1.00  0.00    -0.020 A 
HETATM    9  C7  UNL     1      23.509   4.678  48.842  1.00  0.00     0.012 A 
HETATM   10  C8  UNL     1      23.506   6.021  48.537  1.00  0.00     0.004 A 
HETATM   11  C9  UNL     1      23.776   6.937  49.529  1.00  0.00     0.036 A 
HETATM   12  C10 UNL     1      24.047   6.514  50.813  1.00  0.00     0.066 A 
HETATM   13  C11 UNL     1      24.052   5.148  51.131  1.00  0.00     0.049 A 
HETATM   14  C12 UNL     1      22.608   2.190  50.597  1.00  0.00     0.018 C 
HETATM   15  C13 UNL     1      21.402   3.076  50.300  1.00  0.00     0.064 C 
HETATM   16  C14 UNL     1      20.467   2.338  51.308  1.00  0.00     0.021 C 
HETATM   17  C19 UNL     1      21.297   1.949  52.538  1.00  0.00     0.032 C 
HETATM   18  C20 UNL     1      22.273   0.800  52.224  1.00  0.00     0.087 C 
HETATM   19  C21 UNL     1      23.501   0.794  53.007  1.00  0.00     0.085 C 
HETATM   20  N5  UNL     1      22.342   0.764  50.774  1.00  0.00    -0.387 N 
HETATM   21  H25 UNL     1      22.199  -0.160  50.229  1.00  0.00     0.159 HD
ENDROOT
BRANCH   1  22
HETATM   22  N1  UNL     1      26.078   3.777  49.865  1.00  0.00    -0.383 N 
HETATM   23  H1  UNL     1      25.137   3.501  49.443  1.00  0.00     0.157 HD
HETATM   24  H2  UNL     1      26.681   4.493  49.427  1.00  0.00     0.157 HD
ENDBRANCH   1  22
BRANCH  12  25
HETATM   25  O1  UNL     1      24.298   7.547  51.698  1.00  0.00    -0.361 OA
HETATM   26  H7  UNL     1      24.620   8.469  51.441  1.00  0.00     0.217 HD
ENDBRANCH  12  25
BRANCH  16  27
HETATM   27  C15 UNL     1      19.252   3.116  51.630  1.00  0.00     0.277 C 
BRANCH  27  28
HETATM   28  N4  UNL     1      18.552   3.320  50.350  1.00  0.00     0.088 N 
HETATM   29  C16 UNL     1      17.197   2.843  50.483  1.00  0.00     0.274 C 
HETATM   30  C17 UNL     1      16.643   4.168  50.037  1.00  0.00     0.060 C 
HETATM   31  C18 UNL     1      18.069   4.641  50.145  1.00  0.00     0.274 C 
ENDBRANCH  27  28
ENDBRANCH  16  27
TORSDOF 4
ENDMDL
MODEL 9
REMARK VINA RESULT:      -7.4      5.698      8.141
REMARK  4 active torsions:
REMARK  status: ('A' for Active; 'I' for Inactive)
REMARK    1  A    between atoms: N1_1  and  C1_2 
REMARK    2  A    between atoms: C10_13  and  O1_14 
REMARK    3  A    between atoms: C14_18  and  C15_19 
REMARK    4  A    between atoms: C15_19  and  N4_20 
ROOT
HETATM    1  C1  UNL     1      26.779   5.134  48.958  1.00  0.00     0.135 A 
HETATM    2  N2  UNL     1      27.255   3.990  49.487  1.00  0.00    -0.224 NA
HETATM    3  C2  UNL     1      26.378   3.117  50.072  1.00  0.00     0.235 A 
HETATM    4  N3  UNL     1      25.054   3.301  50.167  1.00  0.00    -0.245 NA
HETATM    5  C3  UNL     1      24.483   4.411  49.670  1.00  0.00     0.052 A 
HETATM    6  C4  UNL     1      25.423   5.277  49.081  1.00  0.00     0.047 A 
HETATM    7  C5  UNL     1      25.046   6.587  48.486  1.00  0.00     0.013 C 
HETATM    8  C6  UNL     1      25.940   7.715  48.426  1.00  0.00    -0.020 A 
HETATM    9  C7  UNL     1      26.375   8.537  47.408  1.00  0.00     0.012 A 
HETATM   10  C8  UNL     1      27.175   9.635  47.637  1.00  0.00     0.004 A 
HETATM   11  C9  UNL     1      27.559   9.931  48.925  1.00  0.00     0.036 A 
HETATM   12  C10 UNL     1      27.149   9.136  49.975  1.00  0.00     0.066 A 
HETATM   13  C11 UNL     1      26.335   8.016  49.750  1.00  0.00     0.049 A 
HETATM   14  C12 UNL     1      23.804   6.762  47.977  1.00  0.00     0.018 C 
HETATM   15  C13 UNL     1      23.410   8.235  47.905  1.00  0.00     0.064 C 
HETATM   16  C14 UNL     1      21.966   7.992  48.447  1.00  0.00     0.021 C 
HETATM   17  C19 UNL     1      22.033   6.900  49.523  1.00  0.00     0.032 C 
HETATM   18  C20 UNL     1      22.299   5.513  48.907  1.00  0.00     0.087 C 
HETATM   19  C21 UNL     1      23.022   4.581  49.761  1.00  0.00     0.085 C 
HETATM   20  N5  UNL     1      22.788   5.794  47.569  1.00  0.00    -0.387 N 
HETATM   21  H25 UNL     1      22.360   5.308  46.702  1.00  0.00     0.159 HD
ENDROOT
BRANCH   1  22
HETATM   22  N1  UNL     1      27.612   6.059  48.293  1.00  0.00    -0.383 N 
HETATM   23  H1  UNL     1      28.422   6.032  48.988  1.00  0.00     0.157 HD
HETATM   24  H2  UNL     1      27.630   6.669  47.460  1.00  0.00     0.157 HD
ENDBRANCH   1  22
BRANCH  12  25
HETATM   25  O1  UNL     1      27.614   9.558  51.207  1.00  0.00    -0.361 OA
HETATM   26  H7  UNL     1      28.484   9.270  51.631  1.00  0.00     0.217 HD
ENDBRANCH  12  25
BRANCH  16  27
HETATM   27  C15 UNL     1      21.314   9.238  48.903  1.00  0.00     0.277 C 
BRANCH  27  28
HETATM   28  N4  UNL     1      19.870   8.948  48.936  1.00  0.00     0.088 N 
HETATM   29  C16 UNL     1      19.292   9.607  50.083  1.00  0.00     0.274 C 
HETATM   30  C17 UNL     1      18.281  10.311  49.221  1.00  0.00     0.060 C 
HETATM   31  C18 UNL     1      19.085   9.761  48.072  1.00  0.00     0.274 C 
ENDBRANCH  27  28
ENDBRANCH  16  27
TORSDOF 4
ENDMDL
