MODEL 1
REMARK VINA RESULT:      -8.9      0.000      0.000
REMARK  7 active torsions:
REMARK  status: ('A' for Active; 'I' for Inactive)
REMARK    1  A    between atoms: N1_1  and  C1_2 
REMARK    2  A    between atoms: C9_11  and  N3_12 
REMARK    3  A    between atoms: N3_12  and  C10_13 
REMARK    4  A    between atoms: C10_13  and  C11_14 
REMARK    5  A    between atoms: C11_14  and  C12_15 
REMARK    6  A    between atoms: C12_15  and  C13_16 
REMARK    7  A    between atoms: C19_23  and  O1_24 
ROOT
HETATM    1  C1  UNL     1      27.530   0.132  54.296  1.00  0.00     0.053 A 
HETATM    2  C2  UNL     1      28.825   0.105  54.557  1.00  0.00     0.143 A 
HETATM    3  N2  UNL     1      29.369  -0.991  53.796  1.00  0.00    -0.275 NA
HETATM    4  C3  UNL     1      28.577  -1.709  53.049  1.00  0.00     0.092 A 
HETATM    5  C4  UNL     1      27.124  -1.686  52.752  1.00  0.00     0.088 A 
HETATM    6  C5  UNL     1      26.490  -0.567  53.506  1.00  0.00     0.097 A 
HETATM    7  C6  UNL     1      25.718   0.355  52.641  1.00  0.00     0.020 A 
HETATM    8  C7  UNL     1      24.451   0.326  53.014  1.00  0.00    -0.027 A 
HETATM    9  C8  UNL     1      23.417   1.142  52.344  1.00  0.00     0.100 A 
HETATM   10  C9  UNL     1      22.086   0.918  52.957  1.00  0.00     0.043 A 
HETATM   11  C19 UNL     1      21.933   0.074  53.973  1.00  0.00     0.090 A 
HETATM   12  C20 UNL     1      23.007  -0.699  54.581  1.00  0.00     0.068 A 
HETATM   13  C21 UNL     1      24.232  -0.587  54.127  1.00  0.00     0.038 A 
HETATM   14  N4  UNL     1      25.515  -1.130  54.413  1.00  0.00    -0.371 N 
HETATM   15  H23 UNL     1      25.710  -1.826  55.163  1.00  0.00     0.161 HD
ENDROOT
BRANCH  10  16
HETATM   16  N3  UNL     1      21.018   1.651  52.393  1.00  0.00    -0.391 N 
HETATM   17  H10 UNL     1      20.554   0.890  51.812  1.00  0.00     0.159 HD
BRANCH  16  18
HETATM   18  C10 UNL     1      20.474   2.993  52.411  1.00  0.00     0.120 C 
BRANCH  18  19
HETATM   19  C11 UNL     1      21.245   3.968  51.562  1.00  0.00     0.024 C 
BRANCH  19  20
HETATM   20  C12 UNL     1      22.321   4.697  52.324  1.00  0.00     0.040 C 
BRANCH  20  21
HETATM   21  C13 UNL     1      23.464   5.117  51.479  1.00  0.00    -0.057 A 
HETATM   22  C14 UNL     1      23.719   6.466  51.204  1.00  0.00     0.007 A 
HETATM   23  C15 UNL     1      24.806   6.738  50.413  1.00  0.00     0.002 A 
HETATM   24  C16 UNL     1      25.669   5.815  49.864  1.00  0.00     0.024 A 
HETATM   25  C17 UNL     1      25.412   4.472  50.138  1.00  0.00     0.034 A 
HETATM   26 CL1  UNL     1      26.447   3.215  49.489  1.00  0.00    -0.084 Cl
HETATM   27  C18 UNL     1      24.333   4.168  50.927  1.00  0.00     0.031 A 
ENDBRANCH  20  21
ENDBRANCH  19  20
ENDBRANCH  18  19
ENDBRANCH  16  18
ENDBRANCH  10  16
BRANCH  11  28
HETATM   28  O1  UNL     1      20.660  -0.100  54.513  1.00  0.00    -0.359 OA
HETATM   29  H21 UNL     1      19.895   0.524  54.326  1.00  0.00     0.217 HD
ENDBRANCH  11  28
BRANCH   1  30
HETATM   30  N1  UNL     1      26.782   1.170  54.966  1.00  0.00    -0.399 N 
HETATM   31  H1  UNL     1      27.113   1.835  55.701  1.00  0.00     0.156 HD
HETATM   32  H2  UNL     1      25.762   1.335  54.732  1.00  0.00     0.156 HD
ENDBRANCH   1  30
TORSDOF 7
ENDMDL
MODEL 2
REMARK VINA RESULT:      -8.9      1.474      1.804
REMARK  7 active torsions:
REMARK  status: ('A' for Active; 'I' for Inactive)
REMARK    1  A    between atoms: N1_1  and  C1_2 
REMARK    2  A    between atoms: C9_11  and  N3_12 
REMARK    3  A    between atoms: N3_12  and  C10_13 
REMARK    4  A    between atoms: C10_13  and  C11_14 
REMARK    5  A    between atoms: C11_14  and  C12_15 
REMARK    6  A    between atoms: C12_15  and  C13_16 
REMARK    7  A    between atoms: C19_23  and  O1_24 
ROOT
HETATM    1  C1  UNL     1      27.649   0.817  54.111  1.00  0.00     0.053 A 
HETATM    2  C2  UNL     1      28.902   1.218  54.241  1.00  0.00     0.143 A 
HETATM    3  N2  UNL     1      29.725   0.130  53.775  1.00  0.00    -0.275 NA
HETATM    4  C3  UNL     1      29.160  -0.964  53.346  1.00  0.00     0.092 A 
HETATM    5  C4  UNL     1      27.757  -1.421  53.198  1.00  0.00     0.088 A 
HETATM    6  C5  UNL     1      26.841  -0.339  53.659  1.00  0.00     0.097 A 
HETATM    7  C6  UNL     1      25.828   0.038  52.646  1.00  0.00     0.020 A 
HETATM    8  C7  UNL     1      24.626  -0.216  53.134  1.00  0.00    -0.027 A 
HETATM    9  C8  UNL     1      23.394   0.053  52.362  1.00  0.00     0.100 A 
HETATM   10  C9  UNL     1      22.190  -0.323  53.141  1.00  0.00     0.043 A 
HETATM   11  C19 UNL     1      22.296  -0.830  54.366  1.00  0.00     0.090 A 
HETATM   12  C20 UNL     1      23.553  -1.067  55.061  1.00  0.00     0.068 A 
HETATM   13  C21 UNL     1      24.690  -0.774  54.477  1.00  0.00     0.038 A 
HETATM   14  N4  UNL     1      26.077  -0.842  54.780  1.00  0.00    -0.371 N 
HETATM   15  H23 UNL     1      26.472  -1.200  55.674  1.00  0.00     0.161 HD
ENDROOT
BRANCH  10  16
HETATM   16  N3  UNL     1      20.950  -0.109  52.498  1.00  0.00    -0.391 N 
HETATM   17  H10 UNL     1      20.288  -0.509  53.227  1.00  0.00     0.159 HD
BRANCH  16  18
HETATM   18  C10 UNL     1      20.432   0.446  51.264  1.00  0.00     0.120 C 
BRANCH  18  19
HETATM   19  C11 UNL     1      20.009   1.885  51.379  1.00  0.00     0.024 C 
BRANCH  19  20
HETATM   20  C12 UNL     1      20.802   2.809  50.492  1.00  0.00     0.040 C 
BRANCH  20  21
HETATM   21  C13 UNL     1      22.160   3.104  51.008  1.00  0.00    -0.057 A 
HETATM   22  C14 UNL     1      22.370   3.527  52.327  1.00  0.00     0.007 A 
HETATM   23  C15 UNL     1      23.669   3.769  52.696  1.00  0.00     0.002 A 
HETATM   24  C16 UNL     1      24.783   3.636  51.898  1.00  0.00     0.024 A 
HETATM   25  C17 UNL     1      24.572   3.215  50.586  1.00  0.00     0.034 A 
HETATM   26 CL1  UNL     1      25.921   3.014  49.484  1.00  0.00    -0.084 Cl
HETATM   27  C18 UNL     1      23.284   2.965  50.186  1.00  0.00     0.031 A 
ENDBRANCH  20  21
ENDBRANCH  19  20
ENDBRANCH  18  19
ENDBRANCH  16  18
ENDBRANCH  10  16
BRANCH  11  28
HETATM   28  O1  UNL     1      21.132  -1.167  55.055  1.00  0.00    -0.359 OA
HETATM   29  H21 UNL     1      20.823  -2.115  55.176  1.00  0.00     0.217 HD
ENDBRANCH  11  28
BRANCH   1  30
HETATM   30  N1  UNL     1      26.646   1.770  54.525  1.00  0.00    -0.399 N 
HETATM   31  H1  UNL     1      26.708   2.812  54.536  1.00  0.00     0.156 HD
HETATM   32  H2  UNL     1      25.702   1.439  54.876  1.00  0.00     0.156 HD
ENDBRANCH   1  30
TORSDOF 7
ENDMDL
MODEL 3
REMARK VINA RESULT:      -8.4      2.642      3.756
REMARK  7 active torsions:
REMARK  status: ('A' for Active; 'I' for Inactive)
REMARK    1  A    between atoms: N1_1  and  C1_2 
REMARK    2  A    between atoms: C9_11  and  N3_12 
REMARK    3  A    between atoms: N3_12  and  C10_13 
REMARK    4  A    between atoms: C10_13  and  C11_14 
REMARK    5  A    between atoms: C11_14  and  C12_15 
REMARK    6  A    between atoms: C12_15  and  C13_16 
REMARK    7  A    between atoms: C19_23  and  O1_24 
ROOT
HETATM    1  C1  UNL     1      27.615   1.118  53.702  1.00  0.00     0.053 A 
HETATM    2  C2  UNL     1      28.659   0.641  54.359  1.00  0.00     0.143 A 
HETATM    3  N2  UNL     1      28.766  -0.749  53.993  1.00  0.00    -0.275 NA
HETATM    4  C3  UNL     1      27.903  -1.261  53.159  1.00  0.00     0.092 A 
HETATM    5  C4  UNL     1      26.731  -0.733  52.420  1.00  0.00     0.088 A 
HETATM    6  C5  UNL     1      26.559   0.711  52.748  1.00  0.00     0.097 A 
HETATM    7  C6  UNL     1      26.513   1.579  51.548  1.00  0.00     0.020 A 
HETATM    8  C7  UNL     1      25.335   2.177  51.502  1.00  0.00    -0.027 A 
HETATM    9  C8  UNL     1      24.974   3.115  50.419  1.00  0.00     0.100 A 
HETATM   10  C9  UNL     1      23.601   3.639  50.609  1.00  0.00     0.043 A 
HETATM   11  C19 UNL     1      22.860   3.261  51.647  1.00  0.00     0.090 A 
HETATM   12  C20 UNL     1      23.289   2.325  52.677  1.00  0.00     0.068 A 
HETATM   13  C21 UNL     1      24.486   1.793  52.621  1.00  0.00     0.038 A 
HETATM   14  N4  UNL     1      25.269   0.880  53.379  1.00  0.00    -0.371 N 
HETATM   15  H23 UNL     1      24.952   0.411  54.253  1.00  0.00     0.161 HD
ENDROOT
BRANCH  10  16
HETATM   16  N3  UNL     1      23.148   4.550  49.628  1.00  0.00    -0.391 N 
HETATM   17  H10 UNL     1      22.640   3.883  48.973  1.00  0.00     0.159 HD
BRANCH  16  18
HETATM   18  C10 UNL     1      23.197   5.968  49.337  1.00  0.00     0.120 C 
BRANCH  18  19
HETATM   19  C11 UNL     1      23.999   6.305  48.109  1.00  0.00     0.024 C 
BRANCH  19  20
HETATM   20  C12 UNL     1      25.087   7.314  48.370  1.00  0.00     0.040 C 
BRANCH  20  21
HETATM   21  C13 UNL     1      26.455   6.750  48.270  1.00  0.00    -0.057 A 
HETATM   22  C14 UNL     1      26.761   5.473  48.755  1.00  0.00     0.007 A 
HETATM   23  C15 UNL     1      28.058   5.053  48.606  1.00  0.00     0.002 A 
HETATM   24  C16 UNL     1      29.086   5.764  48.028  1.00  0.00     0.024 A 
HETATM   25  C17 UNL     1      28.779   7.036  47.546  1.00  0.00     0.034 A 
HETATM   26 CL1  UNL     1      30.013   8.028  46.792  1.00  0.00    -0.084 Cl
HETATM   27  C18 UNL     1      27.490   7.485  47.680  1.00  0.00     0.031 A 
ENDBRANCH  20  21
ENDBRANCH  19  20
ENDBRANCH  18  19
ENDBRANCH  16  18
ENDBRANCH  10  16
BRANCH  11  28
HETATM   28  O1  UNL     1      21.574   3.783  51.779  1.00  0.00    -0.359 OA
HETATM   29  H21 UNL     1      21.167   4.015  52.667  1.00  0.00     0.217 HD
ENDBRANCH  11  28
BRANCH   1  30
HETATM   30  N1  UNL     1      27.326   2.515  53.927  1.00  0.00    -0.399 N 
HETATM   31  H1  UNL     1      27.862   3.349  53.597  1.00  0.00     0.156 HD
HETATM   32  H2  UNL     1      26.478   2.805  54.492  1.00  0.00     0.156 HD
ENDBRANCH   1  30
TORSDOF 7
ENDMDL
MODEL 4
REMARK VINA RESULT:      -8.3      2.515      4.072
REMARK  7 active torsions:
REMARK  status: ('A' for Active; 'I' for Inactive)
REMARK    1  A    between atoms: N1_1  and  C1_2 
REMARK    2  A    between atoms: C9_11  and  N3_12 
REMARK    3  A    between atoms: N3_12  and  C10_13 
REMARK    4  A    between atoms: C10_13  and  C11_14 
REMARK    5  A    between atoms: C11_14  and  C12_15 
REMARK    6  A    between atoms: C12_15  and  C13_16 
REMARK    7  A    between atoms: C19_23  and  O1_24 
ROOT
HETATM    1  C1  UNL     1      28.341   1.220  53.391  1.00  0.00     0.053 A 
HETATM    2  C2  UNL     1      29.416   0.590  53.833  1.00  0.00     0.143 A 
HETATM    3  N2  UNL     1      29.119  -0.819  53.760  1.00  0.00    -0.275 NA
HETATM    4  C3  UNL     1      27.955  -1.206  53.317  1.00  0.00     0.092 A 
HETATM    5  C4  UNL     1      26.745  -0.507  52.820  1.00  0.00     0.088 A 
HETATM    6  C5  UNL     1      26.981   0.964  52.863  1.00  0.00     0.097 A 
HETATM    7  C6  UNL     1      26.744   1.631  51.561  1.00  0.00     0.020 A 
HETATM    8  C7  UNL     1      25.757   2.499  51.702  1.00  0.00    -0.027 A 
HETATM    9  C8  UNL     1      25.278   3.331  50.579  1.00  0.00     0.100 A 
HETATM   10  C9  UNL     1      24.168   4.214  51.010  1.00  0.00     0.043 A 
HETATM   11  C19 UNL     1      23.725   4.195  52.264  1.00  0.00     0.090 A 
HETATM   12  C20 UNL     1      24.252   3.341  53.319  1.00  0.00     0.068 A 
HETATM   13  C21 UNL     1      25.237   2.515  53.062  1.00  0.00     0.038 A 
HETATM   14  N4  UNL     1      26.013   1.551  53.763  1.00  0.00    -0.371 N 
HETATM   15  H23 UNL     1      25.894   1.313  54.770  1.00  0.00     0.161 HD
ENDROOT
BRANCH  10  16
HETATM   16  N3  UNL     1      23.629   5.057  50.013  1.00  0.00    -0.391 N 
HETATM   17  H10 UNL     1      24.032   5.993  50.319  1.00  0.00     0.159 HD
BRANCH  16  18
HETATM   18  C10 UNL     1      22.784   4.972  48.840  1.00  0.00     0.120 C 
BRANCH  18  19
HETATM   19  C11 UNL     1      21.513   4.199  49.066  1.00  0.00     0.024 C 
BRANCH  19  20
HETATM   20  C12 UNL     1      21.738   2.714  49.194  1.00  0.00     0.040 C 
BRANCH  20  21
HETATM   21  C13 UNL     1      21.434   2.184  50.545  1.00  0.00    -0.057 A 
HETATM   22  C14 UNL     1      20.390   2.702  51.321  1.00  0.00     0.007 A 
HETATM   23  C15 UNL     1      20.199   2.132  52.554  1.00  0.00     0.002 A 
HETATM   24  C16 UNL     1      20.932   1.103  53.101  1.00  0.00     0.024 A 
HETATM   25  C17 UNL     1      21.971   0.588  52.327  1.00  0.00     0.034 A 
HETATM   26 CL1  UNL     1      22.967  -0.723  52.927  1.00  0.00    -0.084 Cl
HETATM   27  C18 UNL     1      22.188   1.137  51.089  1.00  0.00     0.031 A 
ENDBRANCH  20  21
ENDBRANCH  19  20
ENDBRANCH  18  19
ENDBRANCH  16  18
ENDBRANCH  10  16
BRANCH  11  28
HETATM   28  O1  UNL     1      22.678   5.045  52.618  1.00  0.00    -0.359 OA
HETATM   29  H21 UNL     1      21.824   5.109  52.094  1.00  0.00     0.217 HD
ENDBRANCH  11  28
BRANCH   1  30
HETATM   30  N1  UNL     1      28.427   2.661  53.378  1.00  0.00    -0.399 N 
HETATM   31  H1  UNL     1      27.745   3.348  52.985  1.00  0.00     0.156 HD
HETATM   32  H2  UNL     1      29.262   3.154  53.804  1.00  0.00     0.156 HD
ENDBRANCH   1  30
TORSDOF 7
ENDMDL
MODEL 5
REMARK VINA RESULT:      -8.1      1.674      2.206
REMARK  7 active torsions:
REMARK  status: ('A' for Active; 'I' for Inactive)
REMARK    1  A    between atoms: N1_1  and  C1_2 
REMARK    2  A    between atoms: C9_11  and  N3_12 
REMARK    3  A    between atoms: N3_12  and  C10_13 
REMARK    4  A    between atoms: C10_13  and  C11_14 
REMARK    5  A    between atoms: C11_14  and  C12_15 
REMARK    6  A    between atoms: C12_15  and  C13_16 
REMARK    7  A    between atoms: C19_23  and  O1_24 
ROOT
HETATM    1  C1  UNL     1      27.519   0.268  54.302  1.00  0.00     0.053 A 
HETATM    2  C2  UNL     1      28.819   0.428  54.476  1.00  0.00     0.143 A 
HETATM    3  N2  UNL     1      29.460  -0.628  53.733  1.00  0.00    -0.275 NA
HETATM    4  C3  UNL     1      28.728  -1.486  53.076  1.00  0.00     0.092 A 
HETATM    5  C4  UNL     1      27.271  -1.672  52.878  1.00  0.00     0.088 A 
HETATM    6  C5  UNL     1      26.538  -0.607  53.619  1.00  0.00     0.097 A 
HETATM    7  C6  UNL     1      25.597   0.155  52.764  1.00  0.00     0.020 A 
HETATM    8  C7  UNL     1      24.370  -0.021  53.223  1.00  0.00    -0.027 A 
HETATM    9  C8  UNL     1      23.196   0.612  52.586  1.00  0.00     0.100 A 
HETATM   10  C9  UNL     1      21.948   0.249  53.298  1.00  0.00     0.043 A 
HETATM   11  C19 UNL     1      21.972  -0.549  54.361  1.00  0.00     0.090 A 
HETATM   12  C20 UNL     1      23.177  -1.137  54.931  1.00  0.00     0.068 A 
HETATM   13  C21 UNL     1      24.345  -0.890  54.391  1.00  0.00     0.038 A 
HETATM   14  N4  UNL     1      25.705  -1.241  54.615  1.00  0.00    -0.371 N 
HETATM   15  H23 UNL     1      26.038  -1.862  55.383  1.00  0.00     0.161 HD
ENDROOT
BRANCH  10  16
HETATM   16  N3  UNL     1      20.757   0.800  52.773  1.00  0.00    -0.391 N 
HETATM   17  H10 UNL     1      20.745   1.736  53.278  1.00  0.00     0.159 HD
BRANCH  16  18
HETATM   18  C10 UNL     1      19.700   0.453  51.845  1.00  0.00     0.120 C 
BRANCH  18  19
HETATM   19  C11 UNL     1      20.048   0.719  50.406  1.00  0.00     0.024 C 
BRANCH  19  20
HETATM   20  C12 UNL     1      19.835   2.154  49.999  1.00  0.00     0.040 C 
BRANCH  20  21
HETATM   21  C13 UNL     1      21.070   2.826  49.530  1.00  0.00    -0.057 A 
HETATM   22  C14 UNL     1      21.216   3.256  48.205  1.00  0.00     0.007 A 
HETATM   23  C15 UNL     1      22.401   3.868  47.884  1.00  0.00     0.002 A 
HETATM   24  C16 UNL     1      23.457   4.102  48.736  1.00  0.00     0.024 A 
HETATM   25  C17 UNL     1      23.309   3.673  50.055  1.00  0.00     0.034 A 
HETATM   26 CL1  UNL     1      24.593   3.920  51.223  1.00  0.00    -0.084 Cl
HETATM   27  C18 UNL     1      22.136   3.057  50.407  1.00  0.00     0.031 A 
ENDBRANCH  20  21
ENDBRANCH  19  20
ENDBRANCH  18  19
ENDBRANCH  16  18
ENDBRANCH  10  16
BRANCH  11  28
HETATM   28  O1  UNL     1      20.770  -0.859  54.994  1.00  0.00    -0.359 OA
HETATM   29  H21 UNL     1      19.876  -0.768  54.546  1.00  0.00     0.217 HD
ENDBRANCH  11  28
BRANCH   1  30
HETATM   30  N1  UNL     1      26.679   1.234  54.970  1.00  0.00    -0.399 N 
HETATM   31  H1  UNL     1      25.781   1.652  54.638  1.00  0.00     0.156 HD
HETATM   32  H2  UNL     1      26.948   1.614  55.922  1.00  0.00     0.156 HD
ENDBRANCH   1  30
TORSDOF 7
ENDMDL
MODEL 6
REMARK VINA RESULT:      -7.8      3.142      6.509
REMARK  7 active torsions:
REMARK  status: ('A' for Active; 'I' for Inactive)
REMARK    1  A    between atoms: N1_1  and  C1_2 
REMARK    2  A    between atoms: C9_11  and  N3_12 
REMARK    3  A    between atoms: N3_12  and  C10_13 
REMARK    4  A    between atoms: C10_13  and  C11_14 
REMARK    5  A    between atoms: C11_14  and  C12_15 
REMARK    6  A    between atoms: C12_15  and  C13_16 
REMARK    7  A    between atoms: C19_23  and  O1_24 
ROOT
HETATM    1  C1  UNL     1      20.356  -0.069  53.089  1.00  0.00     0.053 A 
HETATM    2  C2  UNL     1      19.746  -1.068  53.704  1.00  0.00     0.143 A 
HETATM    3  N2  UNL     1      18.459  -1.206  53.071  1.00  0.00    -0.275 NA
HETATM    4  C3  UNL     1      18.135  -0.404  52.095  1.00  0.00     0.092 A 
HETATM    5  C4  UNL     1      18.812   0.718  51.402  1.00  0.00     0.088 A 
HETATM    6  C5  UNL     1      20.161   0.919  52.004  1.00  0.00     0.097 A 
HETATM    7  C6  UNL     1      21.255   0.888  51.005  1.00  0.00     0.020 A 
HETATM    8  C7  UNL     1      21.861   2.063  51.003  1.00  0.00    -0.027 A 
HETATM    9  C8  UNL     1      23.003   2.356  50.112  1.00  0.00     0.100 A 
HETATM   10  C9  UNL     1      23.490   3.741  50.313  1.00  0.00     0.043 A 
HETATM   11  C19 UNL     1      22.915   4.548  51.200  1.00  0.00     0.090 A 
HETATM   12  C20 UNL     1      21.785   4.184  52.045  1.00  0.00     0.068 A 
HETATM   13  C21 UNL     1      21.265   2.984  51.961  1.00  0.00     0.038 A 
HETATM   14  N4  UNL     1      20.210   2.249  52.568  1.00  0.00    -0.371 N 
HETATM   15  H23 UNL     1      19.576   2.622  53.306  1.00  0.00     0.161 HD
ENDROOT
BRANCH  10  16
HETATM   16  N3  UNL     1      24.584   4.131  49.509  1.00  0.00    -0.391 N 
HETATM   17  H10 UNL     1      24.076   4.673  48.748  1.00  0.00     0.159 HD
BRANCH  16  18
HETATM   18  C10 UNL     1      26.026   3.995  49.473  1.00  0.00     0.120 C 
BRANCH  18  19
HETATM   19  C11 UNL     1      26.520   2.669  49.985  1.00  0.00     0.024 C 
BRANCH  19  20
HETATM   20  C12 UNL     1      26.833   2.682  51.459  1.00  0.00     0.040 C 
BRANCH  20  21
HETATM   21  C13 UNL     1      26.288   1.513  52.190  1.00  0.00    -0.057 A 
HETATM   22  C14 UNL     1      25.182   1.628  53.041  1.00  0.00     0.007 A 
HETATM   23  C15 UNL     1      24.762   0.480  53.663  1.00  0.00     0.002 A 
HETATM   24  C16 UNL     1      25.322  -0.772  53.533  1.00  0.00     0.024 A 
HETATM   25  C17 UNL     1      26.423  -0.884  52.685  1.00  0.00     0.034 A 
HETATM   26 CL1  UNL     1      27.213  -2.431  52.447  1.00  0.00    -0.084 Cl
HETATM   27  C18 UNL     1      26.867   0.246  52.048  1.00  0.00     0.031 A 
ENDBRANCH  20  21
ENDBRANCH  19  20
ENDBRANCH  18  19
ENDBRANCH  16  18
ENDBRANCH  10  16
BRANCH  11  28
HETATM   28  O1  UNL     1      23.411   5.842  51.349  1.00  0.00    -0.359 OA
HETATM   29  H21 UNL     1      24.342   6.105  51.081  1.00  0.00     0.217 HD
ENDBRANCH  11  28
BRANCH   1  30
HETATM   30  N1  UNL     1      21.681   0.242  53.574  1.00  0.00    -0.399 N 
HETATM   31  H1  UNL     1      22.358   0.946  53.204  1.00  0.00     0.156 HD
HETATM   32  H2  UNL     1      22.083  -0.272  54.409  1.00  0.00     0.156 HD
ENDBRANCH   1  30
TORSDOF 7
ENDMDL
MODEL 7
REMARK VINA RESULT:      -7.8      3.299      6.081
REMARK  7 active torsions:
REMARK  status: ('A' for Active; 'I' for Inactive)
REMARK    1  A    between atoms: N1_1  and  C1_2 
REMARK    2  A    between atoms: C9_11  and  N3_12 
REMARK    3  A    between atoms: N3_12  and  C10_13 
REMARK    4  A    between atoms: C10_13  and  C11_14 
REMARK    5  A    between atoms: C11_14  and  C12_15 
REMARK    6  A    between atoms: C12_15  and  C13_16 
REMARK    7  A    between atoms: C19_23  and  O1_24 
ROOT
HETATM    1  C1  UNL     1      19.311  -0.105  52.901  1.00  0.00     0.053 A 
HETATM    2  C2  UNL     1      18.242  -0.855  53.104  1.00  0.00     0.143 A 
HETATM    3  N2  UNL     1      17.502  -0.849  51.867  1.00  0.00    -0.275 NA
HETATM    4  C3  UNL     1      17.959  -0.171  50.850  1.00  0.00     0.092 A 
HETATM    5  C4  UNL     1      19.155   0.673  50.615  1.00  0.00     0.088 A 
HETATM    6  C5  UNL     1      19.977   0.710  51.859  1.00  0.00     0.097 A 
HETATM    7  C6  UNL     1      21.386   0.309  51.639  1.00  0.00     0.020 A 
HETATM    8  C7  UNL     1      22.169   1.331  51.935  1.00  0.00    -0.027 A 
HETATM    9  C8  UNL     1      23.641   1.250  51.821  1.00  0.00     0.100 A 
HETATM   10  C9  UNL     1      24.273   2.532  52.213  1.00  0.00     0.043 A 
HETATM   11  C19 UNL     1      23.536   3.568  52.604  1.00  0.00     0.090 A 
HETATM   12  C20 UNL     1      22.083   3.569  52.690  1.00  0.00     0.068 A 
HETATM   13  C21 UNL     1      21.407   2.493  52.370  1.00  0.00     0.038 A 
HETATM   14  N4  UNL     1      20.047   2.081  52.312  1.00  0.00    -0.371 N 
HETATM   15  H23 UNL     1      19.234   2.684  52.560  1.00  0.00     0.161 HD
ENDROOT
BRANCH  10  16
HETATM   16  N3  UNL     1      25.684   2.570  52.142  1.00  0.00    -0.391 N 
HETATM   17  H10 UNL     1      25.931   2.217  53.114  1.00  0.00     0.159 HD
BRANCH  16  18
HETATM   18  C10 UNL     1      26.728   2.921  51.202  1.00  0.00     0.120 C 
BRANCH  18  19
HETATM   19  C11 UNL     1      26.267   2.950  49.770  1.00  0.00     0.024 C 
BRANCH  19  20
HETATM   20  C12 UNL     1      25.723   4.291  49.349  1.00  0.00     0.040 C 
BRANCH  20  21
HETATM   21  C13 UNL     1      24.246   4.318  49.222  1.00  0.00    -0.057 A 
HETATM   22  C14 UNL     1      23.505   5.474  49.498  1.00  0.00     0.007 A 
HETATM   23  C15 UNL     1      22.145   5.384  49.344  1.00  0.00     0.002 A 
HETATM   24  C16 UNL     1      21.440   4.270  48.945  1.00  0.00     0.024 A 
HETATM   25  C17 UNL     1      22.180   3.121  48.670  1.00  0.00     0.034 A 
HETATM   26 CL1  UNL     1      21.382   1.647  48.155  1.00  0.00    -0.084 Cl
HETATM   27  C18 UNL     1      23.542   3.179  48.815  1.00  0.00     0.031 A 
ENDBRANCH  20  21
ENDBRANCH  19  20
ENDBRANCH  18  19
ENDBRANCH  16  18
ENDBRANCH  10  16
BRANCH  11  28
HETATM   28  O1  UNL     1      24.181   4.751  52.963  1.00  0.00    -0.359 OA
HETATM   29  H21 UNL     1      24.957   5.129  52.449  1.00  0.00     0.217 HD
ENDBRANCH  11  28
BRANCH   1  30
HETATM   30  N1  UNL     1      20.203   0.025  54.030  1.00  0.00    -0.399 N 
HETATM   31  H1  UNL     1      20.881  -0.677  54.404  1.00  0.00     0.156 HD
HETATM   32  H2  UNL     1      20.224   0.918  54.599  1.00  0.00     0.156 HD
ENDBRANCH   1  30
TORSDOF 7
ENDMDL
MODEL 8
REMARK VINA RESULT:      -7.7      2.646      3.475
REMARK  7 active torsions:
REMARK  status: ('A' for Active; 'I' for Inactive)
REMARK    1  A    between atoms: N1_1  and  C1_2 
REMARK    2  A    between atoms: C9_11  and  N3_12 
REMARK    3  A    between atoms: N3_12  and  C10_13 
REMARK    4  A    between atoms: C10_13  and  C11_14 
REMARK    5  A    between atoms: C11_14  and  C12_15 
REMARK    6  A    between atoms: C12_15  and  C13_16 
REMARK    7  A    between atoms: C19_23  and  O1_24 
ROOT
HETATM    1  C1  UNL     1      27.397   1.866  52.914  1.00  0.00     0.053 A 
HETATM    2  C2  UNL     1      28.635   1.557  53.262  1.00  0.00     0.143 A 
HETATM    3  N2  UNL     1      28.527   0.629  54.360  1.00  0.00    -0.275 NA
HETATM    4  C3  UNL     1      27.346   0.281  54.791  1.00  0.00     0.092 A 
HETATM    5  C4  UNL     1      25.955   0.623  54.407  1.00  0.00     0.088 A 
HETATM    6  C5  UNL     1      25.987   1.582  53.266  1.00  0.00     0.097 A 
HETATM    7  C6  UNL     1      25.192   1.129  52.101  1.00  0.00     0.020 A 
HETATM    8  C7  UNL     1      24.222   2.000  51.885  1.00  0.00    -0.027 A 
HETATM    9  C8  UNL     1      23.248   1.833  50.786  1.00  0.00     0.100 A 
HETATM   10  C9  UNL     1      22.271   2.948  50.771  1.00  0.00     0.043 A 
HETATM   11  C19 UNL     1      22.336   3.929  51.667  1.00  0.00     0.090 A 
HETATM   12  C20 UNL     1      23.331   4.022  52.726  1.00  0.00     0.068 A 
HETATM   13  C21 UNL     1      24.251   3.096  52.844  1.00  0.00     0.038 A 
HETATM   14  N4  UNL     1      25.356   2.811  53.692  1.00  0.00    -0.371 N 
HETATM   15  H23 UNL     1      25.656   3.404  54.494  1.00  0.00     0.161 HD
ENDROOT
BRANCH  10  16
HETATM   16  N3  UNL     1      21.289   2.892  49.757  1.00  0.00    -0.391 N 
HETATM   17  H10 UNL     1      20.619   2.184  50.183  1.00  0.00     0.159 HD
BRANCH  16  18
HETATM   18  C10 UNL     1      21.009   3.479  48.463  1.00  0.00     0.120 C 
BRANCH  18  19
HETATM   19  C11 UNL     1      22.243   3.783  47.658  1.00  0.00     0.024 C 
BRANCH  19  20
HETATM   20  C12 UNL     1      22.536   5.258  47.556  1.00  0.00     0.040 C 
BRANCH  20  21
HETATM   21  C13 UNL     1      23.717   5.683  48.346  1.00  0.00    -0.057 A 
HETATM   22  C14 UNL     1      24.570   4.753  48.952  1.00  0.00     0.007 A 
HETATM   23  C15 UNL     1      25.632   5.260  49.656  1.00  0.00     0.002 A 
HETATM   24  C16 UNL     1      25.940   6.592  49.825  1.00  0.00     0.024 A 
HETATM   25  C17 UNL     1      25.088   7.516  49.222  1.00  0.00     0.034 A 
HETATM   26 CL1  UNL     1      25.386   9.237  49.374  1.00  0.00    -0.084 Cl
HETATM   27  C18 UNL     1      24.017   7.040  48.510  1.00  0.00     0.031 A 
ENDBRANCH  20  21
ENDBRANCH  19  20
ENDBRANCH  18  19
ENDBRANCH  16  18
ENDBRANCH  10  16
BRANCH  11  28
HETATM   28  O1  UNL     1      21.393   4.954  51.608  1.00  0.00    -0.359 OA
HETATM   29  H21 UNL     1      21.361   5.706  52.272  1.00  0.00     0.217 HD
ENDBRANCH  11  28
BRANCH   1  30
HETATM   30  N1  UNL     1      27.275   2.795  51.815  1.00  0.00    -0.399 N 
HETATM   31  H1  UNL     1      26.919   2.614  50.850  1.00  0.00     0.156 HD
HETATM   32  H2  UNL     1      27.567   3.807  51.931  1.00  0.00     0.156 HD
ENDBRANCH   1  30
TORSDOF 7
ENDMDL
MODEL 9
REMARK VINA RESULT:      -7.6      3.061      5.114
REMARK  7 active torsions:
REMARK  status: ('A' for Active; 'I' for Inactive)
REMARK    1  A    between atoms: N1_1  and  C1_2 
REMARK    2  A    between atoms: C9_11  and  N3_12 
REMARK    3  A    between atoms: N3_12  and  C10_13 
REMARK    4  A    between atoms: C10_13  and  C11_14 
REMARK    5  A    between atoms: C11_14  and  C12_15 
REMARK    6  A    between atoms: C12_15  and  C13_16 
REMARK    7  A    between atoms: C19_23  and  O1_24 
ROOT
HETATM    1  C1  UNL     1      26.860   1.497  52.872  1.00  0.00     0.053 A 
HETATM    2  C2  UNL     1      27.932   0.836  53.275  1.00  0.00     0.143 A 
HETATM    3  N2  UNL     1      27.458  -0.215  54.141  1.00  0.00    -0.275 NA
HETATM    4  C3  UNL     1      26.179  -0.331  54.367  1.00  0.00     0.092 A 
HETATM    5  C4  UNL     1      24.972   0.406  53.919  1.00  0.00     0.088 A 
HETATM    6  C5  UNL     1      25.386   1.512  53.011  1.00  0.00     0.097 A 
HETATM    7  C6  UNL     1      24.693   1.482  51.702  1.00  0.00     0.020 A 
HETATM    8  C7  UNL     1      23.984   2.590  51.571  1.00  0.00    -0.027 A 
HETATM    9  C8  UNL     1      23.173   2.864  50.367  1.00  0.00     0.100 A 
HETATM   10  C9  UNL     1      22.482   4.170  50.481  1.00  0.00     0.043 A 
HETATM   11  C19 UNL     1      22.628   4.931  51.562  1.00  0.00     0.090 A 
HETATM   12  C20 UNL     1      23.449   4.588  52.715  1.00  0.00     0.068 A 
HETATM   13  C21 UNL     1      24.112   3.458  52.733  1.00  0.00     0.038 A 
HETATM   14  N4  UNL     1      24.987   2.764  53.614  1.00  0.00    -0.371 N 
HETATM   15  H23 UNL     1      25.288   3.115  54.548  1.00  0.00     0.161 HD
ENDROOT
BRANCH  10  16
HETATM   16  N3  UNL     1      21.674   4.537  49.381  1.00  0.00    -0.391 N 
HETATM   17  H10 UNL     1      22.419   4.655  48.631  1.00  0.00     0.159 HD
BRANCH  16  18
HETATM   18  C10 UNL     1      20.277   4.760  49.068  1.00  0.00     0.120 C 
BRANCH  18  19
HETATM   19  C11 UNL     1      19.339   3.852  49.816  1.00  0.00     0.024 C 
BRANCH  19  20
HETATM   20  C12 UNL     1      19.400   2.421  49.347  1.00  0.00     0.040 C 
BRANCH  20  21
HETATM   21  C13 UNL     1      19.224   1.433  50.438  1.00  0.00    -0.057 A 
HETATM   22  C14 UNL     1      18.168   0.513  50.435  1.00  0.00     0.007 A 
HETATM   23  C15 UNL     1      18.106  -0.356  51.494  1.00  0.00     0.002 A 
HETATM   24  C16 UNL     1      18.979  -0.412  52.557  1.00  0.00     0.024 A 
HETATM   25  C17 UNL     1      20.030   0.505  52.558  1.00  0.00     0.034 A 
HETATM   26 CL1  UNL     1      21.199   0.522  53.865  1.00  0.00    -0.084 Cl
HETATM   27  C18 UNL     1      20.119   1.387  51.513  1.00  0.00     0.031 A 
ENDBRANCH  20  21
ENDBRANCH  19  20
ENDBRANCH  18  19
ENDBRANCH  16  18
ENDBRANCH  10  16
BRANCH  11  28
HETATM   28  O1  UNL     1      21.955   6.151  51.619  1.00  0.00    -0.359 OA
HETATM   29  H21 UNL     1      21.152   6.360  51.053  1.00  0.00     0.217 HD
ENDBRANCH  11  28
BRANCH   1  30
HETATM   30  N1  UNL     1      27.113   2.606  51.983  1.00  0.00    -0.399 N 
HETATM   31  H1  UNL     1      27.126   3.626  52.206  1.00  0.00     0.156 HD
HETATM   32  H2  UNL     1      27.318   2.437  50.957  1.00  0.00     0.156 HD
ENDBRANCH   1  30
TORSDOF 7
ENDMDL
