MODEL 1
REMARK VINA RESULT:     -10.7      0.000      0.000
REMARK  2 active torsions:
REMARK  status: ('A' for Active; 'I' for Inactive)
REMARK       I    between atoms: N1_1  and  C1_2 
REMARK    1  A    between atoms: C10_14  and  N4_15 
REMARK    2  A    between atoms: N4_15  and  C11_16 
ROOT
HETATM    1  N1  UNL     1      28.725  -0.637  53.101  1.00  0.00    -0.271 NA
HETATM    2  C1  UNL     1      27.446   0.030  53.007  1.00  0.00     0.197 C 
HETATM    3  N2  UNL     1      27.415  -0.418  54.229  1.00  0.00    -0.241 NA
HETATM    4  C2  UNL     1      26.198  -0.112  54.987  1.00  0.00     0.274 C 
HETATM    5  N3  UNL     1      25.021  -0.115  54.245  1.00  0.00    -0.371 N 
HETATM    6  C3  UNL     1      23.708   0.001  53.679  1.00  0.00     0.036 A 
HETATM    7  C4  UNL     1      22.688  -0.919  53.767  1.00  0.00     0.031 A 
HETATM    8  C5  UNL     1      21.465  -0.792  53.278  1.00  0.00     0.026 A 
HETATM    9  C6  UNL     1      21.319   0.405  52.641  1.00  0.00     0.034 A 
HETATM   10 CL1  UNL     1      19.736   0.751  51.915  1.00  0.00    -0.084 Cl
HETATM   11  C7  UNL     1      22.174   1.430  52.437  1.00  0.00     0.033 A 
HETATM   12  C8  UNL     1      23.468   1.224  52.996  1.00  0.00    -0.023 A 
HETATM   13  C9  UNL     1      24.698   2.087  52.993  1.00  0.00     0.119 C 
HETATM   14  C10 UNL     1      25.715   1.466  52.067  1.00  0.00     0.112 C 
HETATM   15  N5  UNL     1      26.723   0.715  52.061  1.00  0.00    -0.205 NA
HETATM   16  H1  UNL     1      28.604  -1.138  52.171  1.00  0.00     0.127 HD
HETATM   17  H2  UNL     1      28.677  -1.168  52.189  1.00  0.00     0.127 HD
HETATM   18  H5  UNL     1      25.233  -0.640  53.334  1.00  0.00     0.161 HD
ENDROOT
BRANCH  14  19
HETATM   19  N4  UNL     1      25.443   1.797  50.670  1.00  0.00    -0.347 N 
HETATM   20  H11 UNL     1      25.173   1.002  49.982  1.00  0.00     0.167 HD
BRANCH  19  21
HETATM   21  C11 UNL     1      25.498   3.122  50.054  1.00  0.00     0.015 A 
HETATM   22  C12 UNL     1      26.792   3.367  49.683  1.00  0.00     0.037 A 
HETATM   23  C13 UNL     1      26.856   4.684  49.067  1.00  0.00    -0.023 A 
HETATM   24  C14 UNL     1      28.027   5.163  48.608  1.00  0.00     0.012 A 
HETATM   25  C22 UNL     1      25.834   5.562  48.867  1.00  0.00    -0.009 A 
HETATM   26  C15 UNL     1      28.402   6.359  47.980  1.00  0.00     0.002 A 
HETATM   27  C16 UNL     1      27.284   7.175  47.831  1.00  0.00     0.012 A 
HETATM   28  C17 UNL     1      25.978   6.791  48.270  1.00  0.00    -0.025 A 
HETATM   29  C18 UNL     1      24.953   7.663  48.068  1.00  0.00     0.012 A 
HETATM   30  C19 UNL     1      23.798   7.181  48.521  1.00  0.00     0.001 A 
HETATM   31  C20 UNL     1      23.353   5.989  49.161  1.00  0.00     0.008 A 
HETATM   32  C21 UNL     1      24.550   5.201  49.289  1.00  0.00    -0.041 A 
HETATM   33  C23 UNL     1      24.265   3.892  49.955  1.00  0.00     0.096 A 
ENDBRANCH  19  21
ENDBRANCH  14  19
TORSDOF 2
ENDMDL
MODEL 2
REMARK VINA RESULT:     -10.5      3.326      6.703
REMARK  2 active torsions:
REMARK  status: ('A' for Active; 'I' for Inactive)
REMARK       I    between atoms: N1_1  and  C1_2 
REMARK    1  A    between atoms: C10_14  and  N4_15 
REMARK    2  A    between atoms: N4_15  and  C11_16 
ROOT
HETATM    1  N1  UNL     1      24.207   6.669  51.968  1.00  0.00    -0.271 NA
HETATM    2  C1  UNL     1      23.663   5.359  51.694  1.00  0.00     0.197 C 
HETATM    3  N2  UNL     1      23.012   6.093  50.838  1.00  0.00    -0.241 NA
HETATM    4  C2  UNL     1      22.050   5.379  49.993  1.00  0.00     0.274 C 
HETATM    5  N3  UNL     1      21.383   4.326  50.612  1.00  0.00    -0.371 N 
HETATM    6  C3  UNL     1      20.632   3.173  51.016  1.00  0.00     0.036 A 
HETATM    7  C4  UNL     1      19.298   3.136  51.353  1.00  0.00     0.031 A 
HETATM    8  C5  UNL     1      18.597   2.064  51.687  1.00  0.00     0.026 A 
HETATM    9  C6  UNL     1      19.380   0.946  51.666  1.00  0.00     0.034 A 
HETATM   10 CL1  UNL     1      18.607  -0.595  52.092  1.00  0.00    -0.084 Cl
HETATM   11  C7  UNL     1      20.685   0.764  51.374  1.00  0.00     0.033 A 
HETATM   12  C8  UNL     1      21.372   1.960  51.020  1.00  0.00    -0.023 A 
HETATM   13  C9  UNL     1      22.805   2.206  50.641  1.00  0.00     0.119 C 
HETATM   14  C10 UNL     1      23.483   2.929  51.779  1.00  0.00     0.112 C 
HETATM   15  N5  UNL     1      23.803   4.079  52.173  1.00  0.00    -0.205 NA
HETATM   16  H1  UNL     1      24.099   6.564  53.020  1.00  0.00     0.127 HD
HETATM   17  H2  UNL     1      24.131   6.639  53.021  1.00  0.00     0.127 HD
HETATM   18  H5  UNL     1      21.506   4.463  51.669  1.00  0.00     0.161 HD
ENDROOT
BRANCH  14  19
HETATM   19  N4  UNL     1      23.889   2.006  52.837  1.00  0.00    -0.347 N 
HETATM   20  H11 UNL     1      23.168   1.726  53.599  1.00  0.00     0.167 HD
BRANCH  19  21
HETATM   21  C11 UNL     1      25.204   1.391  53.009  1.00  0.00     0.015 A 
HETATM   22  C12 UNL     1      25.104   0.068  52.674  1.00  0.00     0.037 A 
HETATM   23  C13 UNL     1      26.411  -0.551  52.840  1.00  0.00    -0.023 A 
HETATM   24  C14 UNL     1      26.582  -1.859  52.570  1.00  0.00     0.012 A 
HETATM   25  C22 UNL     1      27.568   0.038  53.253  1.00  0.00    -0.009 A 
HETATM   26  C15 UNL     1      27.687  -2.721  52.627  1.00  0.00     0.002 A 
HETATM   27  C16 UNL     1      28.805  -2.013  53.060  1.00  0.00     0.012 A 
HETATM   28  C17 UNL     1      28.767  -0.620  53.380  1.00  0.00    -0.025 A 
HETATM   29  C18 UNL     1      29.921  -0.026  53.787  1.00  0.00     0.012 A 
HETATM   30  C19 UNL     1      29.745   1.267  54.049  1.00  0.00     0.001 A 
HETATM   31  C20 UNL     1      28.664   2.193  54.013  1.00  0.00     0.008 A 
HETATM   32  C21 UNL     1      27.548   1.401  53.567  1.00  0.00    -0.041 A 
HETATM   33  C23 UNL     1      26.304   2.226  53.473  1.00  0.00     0.096 A 
ENDBRANCH  19  21
ENDBRANCH  14  19
TORSDOF 2
ENDMDL
MODEL 3
REMARK VINA RESULT:     -10.5      0.203      2.094
REMARK  2 active torsions:
REMARK  status: ('A' for Active; 'I' for Inactive)
REMARK       I    between atoms: N1_1  and  C1_2 
REMARK    1  A    between atoms: C10_14  and  N4_15 
REMARK    2  A    between atoms: N4_15  and  C11_16 
ROOT
HETATM    1  N1  UNL     1      28.698  -0.437  53.021  1.00  0.00    -0.271 NA
HETATM    2  C1  UNL     1      27.388   0.172  52.972  1.00  0.00     0.197 C 
HETATM    3  N2  UNL     1      27.408  -0.299  54.185  1.00  0.00    -0.241 NA
HETATM    4  C2  UNL     1      26.198  -0.062  54.978  1.00  0.00     0.274 C 
HETATM    5  N3  UNL     1      25.004  -0.106  54.266  1.00  0.00    -0.371 N 
HETATM    6  C3  UNL     1      23.673  -0.040  53.735  1.00  0.00     0.036 A 
HETATM    7  C4  UNL     1      22.699  -1.007  53.830  1.00  0.00     0.031 A 
HETATM    8  C5  UNL     1      21.459  -0.928  53.374  1.00  0.00     0.026 A 
HETATM    9  C6  UNL     1      21.242   0.273  52.763  1.00  0.00     0.034 A 
HETATM   10 CL1  UNL     1      19.627   0.559  52.083  1.00  0.00    -0.084 Cl
HETATM   11  C7  UNL     1      22.045   1.339  52.559  1.00  0.00     0.033 A 
HETATM   12  C8  UNL     1      23.360   1.182  53.081  1.00  0.00    -0.023 A 
HETATM   13  C9  UNL     1      24.549   2.101  53.065  1.00  0.00     0.119 C 
HETATM   14  C10 UNL     1      25.570   1.544  52.102  1.00  0.00     0.112 C 
HETATM   15  N5  UNL     1      26.610   0.840  52.057  1.00  0.00    -0.205 NA
HETATM   16  H1  UNL     1      28.576  -0.926  52.085  1.00  0.00     0.127 HD
HETATM   17  H2  UNL     1      28.650  -0.953  52.101  1.00  0.00     0.127 HD
HETATM   18  H5  UNL     1      25.216  -0.605  53.340  1.00  0.00     0.161 HD
ENDROOT
BRANCH  14  19
HETATM   19  N4  UNL     1      25.247   1.887  50.719  1.00  0.00    -0.347 N 
HETATM   20  H11 UNL     1      24.791   1.137  50.082  1.00  0.00     0.167 HD
BRANCH  19  21
HETATM   21  C11 UNL     1      25.481   3.169  50.055  1.00  0.00     0.015 A 
HETATM   22  C12 UNL     1      24.285   3.829  49.968  1.00  0.00     0.037 A 
HETATM   23  C13 UNL     1      24.509   5.108  49.310  1.00  0.00    -0.023 A 
HETATM   24  C14 UNL     1      23.483   5.954  49.104  1.00  0.00     0.012 A 
HETATM   25  C22 UNL     1      25.686   5.611  48.843  1.00  0.00    -0.009 A 
HETATM   26  C15 UNL     1      23.380   7.224  48.518  1.00  0.00     0.002 A 
HETATM   27  C16 UNL     1      24.636   7.634  48.079  1.00  0.00     0.012 A 
HETATM   28  C17 UNL     1      25.813   6.836  48.234  1.00  0.00    -0.025 A 
HETATM   29  C18 UNL     1      26.991   7.337  47.774  1.00  0.00     0.012 A 
HETATM   30  C19 UNL     1      28.001   6.497  47.983  1.00  0.00     0.001 A 
HETATM   31  C20 UNL     1      28.172   5.208  48.565  1.00  0.00     0.008 A 
HETATM   32  C21 UNL     1      26.846   4.844  48.989  1.00  0.00    -0.041 A 
HETATM   33  C23 UNL     1      26.837   3.493  49.631  1.00  0.00     0.096 A 
ENDBRANCH  19  21
ENDBRANCH  14  19
TORSDOF 2
ENDMDL
MODEL 4
REMARK VINA RESULT:     -10.4      3.072      4.840
REMARK  2 active torsions:
REMARK  status: ('A' for Active; 'I' for Inactive)
REMARK       I    between atoms: N1_1  and  C1_2 
REMARK    1  A    between atoms: C10_14  and  N4_15 
REMARK    2  A    between atoms: N4_15  and  C11_16 
ROOT
HETATM    1  N1  UNL     1      18.116   3.615  51.705  1.00  0.00    -0.271 NA
HETATM    2  C1  UNL     1      19.358   2.883  51.815  1.00  0.00     0.197 C 
HETATM    3  N2  UNL     1      18.502   1.916  51.660  1.00  0.00    -0.241 NA
HETATM    4  C2  UNL     1      19.066   0.562  51.660  1.00  0.00     0.274 C 
HETATM    5  N3  UNL     1      20.142   0.369  52.521  1.00  0.00    -0.371 N 
HETATM    6  C3  UNL     1      21.290  -0.043  53.276  1.00  0.00     0.036 A 
HETATM    7  C4  UNL     1      21.292  -0.800  54.425  1.00  0.00     0.031 A 
HETATM    8  C5  UNL     1      22.354  -1.211  55.098  1.00  0.00     0.026 A 
HETATM    9  C6  UNL     1      23.503  -0.779  54.504  1.00  0.00     0.034 A 
HETATM   10 CL1  UNL     1      25.037  -1.234  55.273  1.00  0.00    -0.084 Cl
HETATM   11  C7  UNL     1      23.723  -0.036  53.398  1.00  0.00     0.033 A 
HETATM   12  C8  UNL     1      22.534   0.365  52.725  1.00  0.00    -0.023 A 
HETATM   13  C9  UNL     1      22.327   1.191  51.486  1.00  0.00     0.119 C 
HETATM   14  C10 UNL     1      21.769   2.533  51.894  1.00  0.00     0.112 C 
HETATM   15  N5  UNL     1      20.688   3.162  52.017  1.00  0.00    -0.205 NA
HETATM   16  H1  UNL     1      18.329   4.229  52.547  1.00  0.00     0.127 HD
HETATM   17  H2  UNL     1      18.257   4.261  52.529  1.00  0.00     0.127 HD
HETATM   18  H5  UNL     1      20.127   1.182  53.219  1.00  0.00     0.161 HD
ENDROOT
BRANCH  14  19
HETATM   19  N4  UNL     1      22.823   3.434  52.356  1.00  0.00    -0.347 N 
HETATM   20  H11 UNL     1      22.956   3.588  53.422  1.00  0.00     0.167 HD
BRANCH  19  21
HETATM   21  C11 UNL     1      23.755   4.194  51.524  1.00  0.00     0.015 A 
HETATM   22  C12 UNL     1      23.394   5.513  51.573  1.00  0.00     0.037 A 
HETATM   23  C13 UNL     1      24.319   6.277  50.749  1.00  0.00    -0.023 A 
HETATM   24  C14 UNL     1      24.181   7.611  50.633  1.00  0.00     0.012 A 
HETATM   25  C22 UNL     1      25.380   5.811  50.033  1.00  0.00    -0.009 A 
HETATM   26  C15 UNL     1      24.893   8.599  49.937  1.00  0.00     0.002 A 
HETATM   27  C16 UNL     1      25.947   8.009  49.245  1.00  0.00     0.012 A 
HETATM   28  C17 UNL     1      26.211   6.604  49.281  1.00  0.00    -0.025 A 
HETATM   29  C18 UNL     1      27.273   6.135  48.571  1.00  0.00     0.012 A 
HETATM   30  C19 UNL     1      27.405   4.816  48.694  1.00  0.00     0.001 A 
HETATM   31  C20 UNL     1      26.725   3.767  49.376  1.00  0.00     0.008 A 
HETATM   32  C21 UNL     1      25.653   4.440  50.060  1.00  0.00    -0.041 A 
HETATM   33  C23 UNL     1      24.819   3.472  50.839  1.00  0.00     0.096 A 
ENDBRANCH  19  21
ENDBRANCH  14  19
TORSDOF 2
ENDMDL
MODEL 5
REMARK VINA RESULT:     -10.3      3.361      6.626
REMARK  2 active torsions:
REMARK  status: ('A' for Active; 'I' for Inactive)
REMARK       I    between atoms: N1_1  and  C1_2 
REMARK    1  A    between atoms: C10_14  and  N4_15 
REMARK    2  A    between atoms: N4_15  and  C11_16 
ROOT
HETATM    1  N1  UNL     1      24.177   6.708  52.047  1.00  0.00    -0.271 NA
HETATM    2  C1  UNL     1      23.635   5.399  51.762  1.00  0.00     0.197 C 
HETATM    3  N2  UNL     1      23.002   6.136  50.894  1.00  0.00    -0.241 NA
HETATM    4  C2  UNL     1      22.054   5.426  50.031  1.00  0.00     0.274 C 
HETATM    5  N3  UNL     1      21.371   4.376  50.636  1.00  0.00    -0.371 N 
HETATM    6  C3  UNL     1      20.609   3.225  51.025  1.00  0.00     0.036 A 
HETATM    7  C4  UNL     1      19.268   3.192  51.337  1.00  0.00     0.031 A 
HETATM    8  C5  UNL     1      18.558   2.122  51.657  1.00  0.00     0.026 A 
HETATM    9  C6  UNL     1      19.337   1.002  51.650  1.00  0.00     0.034 A 
HETATM   10 CL1  UNL     1      18.551  -0.537  52.060  1.00  0.00    -0.084 Cl
HETATM   11  C7  UNL     1      20.647   0.815  51.383  1.00  0.00     0.033 A 
HETATM   12  C8  UNL     1      21.344   2.009  51.043  1.00  0.00    -0.023 A 
HETATM   13  C9  UNL     1      22.785   2.250  50.691  1.00  0.00     0.119 C 
HETATM   14  C10 UNL     1      23.444   2.970  51.843  1.00  0.00     0.112 C 
HETATM   15  N5  UNL     1      23.760   4.119  52.243  1.00  0.00    -0.205 NA
HETATM   16  H1  UNL     1      24.049   6.603  53.097  1.00  0.00     0.127 HD
HETATM   17  H2  UNL     1      24.081   6.677  53.098  1.00  0.00     0.127 HD
HETATM   18  H5  UNL     1      21.475   4.512  51.695  1.00  0.00     0.161 HD
ENDROOT
BRANCH  14  19
HETATM   19  N4  UNL     1      23.826   2.045  52.907  1.00  0.00    -0.347 N 
HETATM   20  H11 UNL     1      23.138   1.872  53.728  1.00  0.00     0.167 HD
BRANCH  19  21
HETATM   21  C11 UNL     1      25.078   1.298  53.013  1.00  0.00     0.015 A 
HETATM   22  C12 UNL     1      26.046   2.148  53.472  1.00  0.00     0.037 A 
HETATM   23  C13 UNL     1      27.297   1.411  53.583  1.00  0.00    -0.023 A 
HETATM   24  C14 UNL     1      28.411   2.026  54.019  1.00  0.00     0.012 A 
HETATM   25  C22 UNL     1      27.520   0.098  53.295  1.00  0.00    -0.009 A 
HETATM   26  C15 UNL     1      29.730   1.600  54.233  1.00  0.00     0.002 A 
HETATM   27  C16 UNL     1      29.839   0.251  53.906  1.00  0.00     0.012 A 
HETATM   28  C17 UNL     1      28.736  -0.526  53.432  1.00  0.00    -0.025 A 
HETATM   29  C18 UNL     1      28.952  -1.839  53.148  1.00  0.00     0.012 A 
HETATM   30  C19 UNL     1      27.845  -2.442  52.721  1.00  0.00     0.001 A 
HETATM   31  C20 UNL     1      26.491  -2.071  52.484  1.00  0.00     0.008 A 
HETATM   32  C21 UNL     1      26.450  -0.675  52.833  1.00  0.00    -0.041 A 
HETATM   33  C23 UNL     1      25.078  -0.111  52.638  1.00  0.00     0.096 A 
ENDBRANCH  19  21
ENDBRANCH  14  19
TORSDOF 2
ENDMDL
MODEL 6
REMARK VINA RESULT:     -10.1      3.314      7.299
REMARK  2 active torsions:
REMARK  status: ('A' for Active; 'I' for Inactive)
REMARK       I    between atoms: N1_1  and  C1_2 
REMARK    1  A    between atoms: C10_14  and  N4_15 
REMARK    2  A    between atoms: N4_15  and  C11_16 
ROOT
HETATM    1  N1  UNL     1      24.532   6.928  51.835  1.00  0.00    -0.271 NA
HETATM    2  C1  UNL     1      23.703   5.981  51.124  1.00  0.00     0.197 C 
HETATM    3  N2  UNL     1      22.920   7.020  51.180  1.00  0.00    -0.241 NA
HETATM    4  C2  UNL     1      21.602   6.855  50.560  1.00  0.00     0.274 C 
HETATM    5  N3  UNL     1      21.039   5.589  50.689  1.00  0.00    -0.371 N 
HETATM    6  C3  UNL     1      20.302   4.360  50.641  1.00  0.00     0.036 A 
HETATM    7  C4  UNL     1      19.207   4.026  51.405  1.00  0.00     0.031 A 
HETATM    8  C5  UNL     1      18.504   2.907  51.331  1.00  0.00     0.026 A 
HETATM    9  C6  UNL     1      19.011   2.077  50.374  1.00  0.00     0.034 A 
HETATM   10 CL1  UNL     1      18.194   0.519  50.134  1.00  0.00    -0.084 Cl
HETATM   11  C7  UNL     1      20.059   2.204  49.532  1.00  0.00     0.033 A 
HETATM   12  C8  UNL     1      20.763   3.434  49.666  1.00  0.00    -0.023 A 
HETATM   13  C9  UNL     1      21.970   3.969  48.948  1.00  0.00     0.119 C 
HETATM   14  C10 UNL     1      23.141   3.949  49.901  1.00  0.00     0.112 C 
HETATM   15  N5  UNL     1      23.782   4.677  50.699  1.00  0.00    -0.205 NA
HETATM   16  H1  UNL     1      24.808   6.223  52.581  1.00  0.00     0.127 HD
HETATM   17  H2  UNL     1      24.850   6.286  52.610  1.00  0.00     0.127 HD
HETATM   18  H5  UNL     1      21.571   5.097  51.480  1.00  0.00     0.161 HD
ENDROOT
BRANCH  14  19
HETATM   19  N4  UNL     1      23.742   2.620  49.986  1.00  0.00    -0.347 N 
HETATM   20  H11 UNL     1      24.187   2.185  49.097  1.00  0.00     0.167 HD
BRANCH  19  21
HETATM   21  C11 UNL     1      23.813   1.762  51.167  1.00  0.00     0.015 A 
HETATM   22  C12 UNL     1      22.565   1.256  51.405  1.00  0.00     0.037 A 
HETATM   23  C13 UNL     1      22.628   0.398  52.579  1.00  0.00    -0.023 A 
HETATM   24  C14 UNL     1      21.522  -0.228  53.022  1.00  0.00     0.012 A 
HETATM   25  C22 UNL     1      23.717   0.112  53.346  1.00  0.00    -0.009 A 
HETATM   26  C15 UNL     1      21.268  -1.098  54.093  1.00  0.00     0.002 A 
HETATM   27  C16 UNL     1      22.446  -1.316  54.803  1.00  0.00     0.012 A 
HETATM   28  C17 UNL     1      23.693  -0.716  54.442  1.00  0.00    -0.025 A 
HETATM   29  C18 UNL     1      24.784  -1.003  55.202  1.00  0.00     0.012 A 
HETATM   30  C19 UNL     1      25.874  -0.383  54.755  1.00  0.00     0.001 A 
HETATM   31  C20 UNL     1      26.197   0.503  53.688  1.00  0.00     0.008 A 
HETATM   32  C21 UNL     1      24.944   0.689  53.005  1.00  0.00    -0.041 A 
HETATM   33  C23 UNL     1      25.099   1.611  51.836  1.00  0.00     0.096 A 
ENDBRANCH  19  21
ENDBRANCH  14  19
TORSDOF 2
ENDMDL
MODEL 7
REMARK VINA RESULT:     -10.0      3.506      8.431
REMARK  2 active torsions:
REMARK  status: ('A' for Active; 'I' for Inactive)
REMARK       I    between atoms: N1_1  and  C1_2 
REMARK    1  A    between atoms: C10_14  and  N4_15 
REMARK    2  A    between atoms: N4_15  and  C11_16 
ROOT
HETATM    1  N1  UNL     1      18.744   6.270  49.359  1.00  0.00    -0.271 NA
HETATM    2  C1  UNL     1      20.122   6.012  49.714  1.00  0.00     0.197 C 
HETATM    3  N2  UNL     1      20.088   7.313  49.738  1.00  0.00    -0.241 NA
HETATM    4  C2  UNL     1      21.351   7.974  50.080  1.00  0.00     0.274 C 
HETATM    5  N3  UNL     1      22.498   7.345  49.604  1.00  0.00    -0.371 N 
HETATM    6  C3  UNL     1      23.801   6.844  49.277  1.00  0.00     0.036 A 
HETATM    7  C4  UNL     1      24.639   7.309  48.289  1.00  0.00     0.031 A 
HETATM    8  C5  UNL     1      25.857   6.872  48.015  1.00  0.00     0.026 A 
HETATM    9  C6  UNL     1      26.209   5.857  48.856  1.00  0.00     0.034 A 
HETATM   10 CL1  UNL     1      27.818   5.140  48.635  1.00  0.00    -0.084 Cl
HETATM   11  C7  UNL     1      25.552   5.257  49.871  1.00  0.00     0.033 A 
HETATM   12  C8  UNL     1      24.250   5.783  50.109  1.00  0.00    -0.023 A 
HETATM   13  C9  UNL     1      23.198   5.407  51.113  1.00  0.00     0.119 C 
HETATM   14  C10 UNL     1      22.071   4.712  50.388  1.00  0.00     0.112 C 
HETATM   15  N5  UNL     1      20.944   4.923  49.873  1.00  0.00    -0.205 NA
HETATM   16  H1  UNL     1      18.759   5.588  48.544  1.00  0.00     0.127 HD
HETATM   17  H2  UNL     1      18.683   5.612  48.535  1.00  0.00     0.127 HD
HETATM   18  H5  UNL     1      22.181   6.672  48.831  1.00  0.00     0.161 HD
ENDROOT
BRANCH  14  19
HETATM   19  N4  UNL     1      22.379   3.306  50.139  1.00  0.00    -0.347 N 
HETATM   20  H11 UNL     1      22.228   2.900  49.143  1.00  0.00     0.167 HD
BRANCH  19  21
HETATM   21  C11 UNL     1      22.879   2.332  51.108  1.00  0.00     0.015 A 
HETATM   22  C12 UNL     1      21.825   1.904  51.867  1.00  0.00     0.037 A 
HETATM   23  C13 UNL     1      22.314   0.932  52.834  1.00  0.00    -0.023 A 
HETATM   24  C14 UNL     1      21.465   0.353  53.703  1.00  0.00     0.012 A 
HETATM   25  C22 UNL     1      23.592   0.487  52.996  1.00  0.00    -0.009 A 
HETATM   26  C15 UNL     1      21.626  -0.596  54.724  1.00  0.00     0.002 A 
HETATM   27  C16 UNL     1      22.964  -0.975  54.798  1.00  0.00     0.012 A 
HETATM   28  C17 UNL     1      23.971  -0.441  53.935  1.00  0.00    -0.025 A 
HETATM   29  C18 UNL     1      25.248  -0.887  54.090  1.00  0.00     0.012 A 
HETATM   30  C19 UNL     1      26.080  -0.313  53.225  1.00  0.00     0.001 A 
HETATM   31  C20 UNL     1      25.984   0.646  52.176  1.00  0.00     0.008 A 
HETATM   32  C21 UNL     1      24.588   0.996  52.158  1.00  0.00    -0.041 A 
HETATM   33  C23 UNL     1      24.302   2.015  51.100  1.00  0.00     0.096 A 
ENDBRANCH  19  21
ENDBRANCH  14  19
TORSDOF 2
ENDMDL
MODEL 8
REMARK VINA RESULT:     -10.0      2.783      6.413
REMARK  2 active torsions:
REMARK  status: ('A' for Active; 'I' for Inactive)
REMARK       I    between atoms: N1_1  and  C1_2 
REMARK    1  A    between atoms: C10_14  and  N4_15 
REMARK    2  A    between atoms: N4_15  and  C11_16 
ROOT
HETATM    1  N1  UNL     1      26.044   7.707  50.838  1.00  0.00    -0.271 NA
HETATM    2  C1  UNL     1      25.191   6.615  50.429  1.00  0.00     0.197 C 
HETATM    3  N2  UNL     1      24.332   7.587  50.537  1.00  0.00    -0.241 NA
HETATM    4  C2  UNL     1      22.940   7.241  50.235  1.00  0.00     0.274 C 
HETATM    5  N3  UNL     1      22.550   5.961  50.619  1.00  0.00    -0.371 N 
HETATM    6  C3  UNL     1      21.951   4.682  50.865  1.00  0.00     0.036 A 
HETATM    7  C4  UNL     1      21.074   4.363  51.876  1.00  0.00     0.031 A 
HETATM    8  C5  UNL     1      20.491   3.192  52.077  1.00  0.00     0.026 A 
HETATM    9  C6  UNL     1      20.876   2.289  51.130  1.00  0.00     0.034 A 
HETATM   10 CL1  UNL     1      20.195   0.653  51.242  1.00  0.00    -0.084 Cl
HETATM   11  C7  UNL     1      21.713   2.389  50.075  1.00  0.00     0.033 A 
HETATM   12  C8  UNL     1      22.298   3.678  49.920  1.00  0.00    -0.023 A 
HETATM   13  C9  UNL     1      23.271   4.210  48.907  1.00  0.00     0.119 C 
HETATM   14  C10 UNL     1      24.607   4.404  49.583  1.00  0.00     0.112 C 
HETATM   15  N5  UNL     1      25.318   5.277  50.141  1.00  0.00    -0.205 NA
HETATM   16  H1  UNL     1      26.538   7.128  51.580  1.00  0.00     0.127 HD
HETATM   17  H2  UNL     1      26.579   7.197  51.592  1.00  0.00     0.127 HD
HETATM   18  H5  UNL     1      23.279   5.618  51.327  1.00  0.00     0.161 HD
ENDROOT
BRANCH  14  19
HETATM   19  N4  UNL     1      25.347   3.148  49.681  1.00  0.00    -0.347 N 
HETATM   20  H11 UNL     1      25.810   2.737  48.789  1.00  0.00     0.167 HD
BRANCH  19  21
HETATM   21  C11 UNL     1      25.545   2.337  50.881  1.00  0.00     0.015 A 
HETATM   22  C12 UNL     1      26.842   2.485  51.289  1.00  0.00     0.037 A 
HETATM   23  C13 UNL     1      27.046   1.682  52.485  1.00  0.00    -0.023 A 
HETATM   24  C14 UNL     1      28.249   1.659  53.090  1.00  0.00     0.012 A 
HETATM   25  C22 UNL     1      26.137   0.900  53.131  1.00  0.00    -0.009 A 
HETATM   26  C15 UNL     1      28.746   1.005  54.227  1.00  0.00     0.002 A 
HETATM   27  C16 UNL     1      27.735   0.239  54.800  1.00  0.00     0.012 A 
HETATM   28  C17 UNL     1      26.411   0.173  54.263  1.00  0.00    -0.025 A 
HETATM   29  C18 UNL     1      25.498  -0.604  54.908  1.00  0.00     0.012 A 
HETATM   30  C19 UNL     1      24.311  -0.573  54.306  1.00  0.00     0.001 A 
HETATM   31  C20 UNL     1      23.746   0.062  53.163  1.00  0.00     0.008 A 
HETATM   32  C21 UNL     1      24.837   0.826  52.620  1.00  0.00    -0.041 A 
HETATM   33  C23 UNL     1      24.416   1.568  51.391  1.00  0.00     0.096 A 
ENDBRANCH  19  21
ENDBRANCH  14  19
TORSDOF 2
ENDMDL
MODEL 9
REMARK VINA RESULT:     -10.0      3.508      8.242
REMARK  2 active torsions:
REMARK  status: ('A' for Active; 'I' for Inactive)
REMARK       I    between atoms: N1_1  and  C1_2 
REMARK    1  A    between atoms: C10_14  and  N4_15 
REMARK    2  A    between atoms: N4_15  and  C11_16 
ROOT
HETATM    1  N1  UNL     1      18.890   6.487  49.377  1.00  0.00    -0.271 NA
HETATM    2  C1  UNL     1      20.259   6.187  49.732  1.00  0.00     0.197 C 
HETATM    3  N2  UNL     1      20.271   7.489  49.734  1.00  0.00    -0.241 NA
HETATM    4  C2  UNL     1      21.558   8.111  50.061  1.00  0.00     0.274 C 
HETATM    5  N3  UNL     1      22.680   7.434  49.593  1.00  0.00    -0.371 N 
HETATM    6  C3  UNL     1      23.964   6.882  49.272  1.00  0.00     0.036 A 
HETATM    7  C4  UNL     1      24.814   7.300  48.273  1.00  0.00     0.031 A 
HETATM    8  C5  UNL     1      26.015   6.816  48.004  1.00  0.00     0.026 A 
HETATM    9  C6  UNL     1      26.335   5.804  48.861  1.00  0.00     0.034 A 
HETATM   10 CL1  UNL     1      27.917   5.027  48.648  1.00  0.00    -0.084 Cl
HETATM   11  C7  UNL     1      25.659   5.244  49.888  1.00  0.00     0.033 A 
HETATM   12  C8  UNL     1      24.378   5.820  50.120  1.00  0.00    -0.023 A 
HETATM   13  C9  UNL     1      23.316   5.499  51.134  1.00  0.00     0.119 C 
HETATM   14  C10 UNL     1      22.163   4.832  50.423  1.00  0.00     0.112 C 
HETATM   15  N5  UNL     1      21.043   5.073  49.908  1.00  0.00    -0.205 NA
HETATM   16  H1  UNL     1      18.879   5.792  48.573  1.00  0.00     0.127 HD
HETATM   17  H2  UNL     1      18.803   5.818  48.564  1.00  0.00     0.127 HD
HETATM   18  H5  UNL     1      22.337   6.760  48.833  1.00  0.00     0.161 HD
ENDROOT
BRANCH  14  19
HETATM   19  N4  UNL     1      22.421   3.411  50.198  1.00  0.00    -0.347 N 
HETATM   20  H11 UNL     1      22.433   3.032  49.181  1.00  0.00     0.167 HD
BRANCH  19  21
HETATM   21  C11 UNL     1      22.667   2.391  51.216  1.00  0.00     0.015 A 
HETATM   22  C12 UNL     1      23.993   2.055  51.172  1.00  0.00     0.037 A 
HETATM   23  C13 UNL     1      24.247   1.041  52.185  1.00  0.00    -0.023 A 
HETATM   24  C14 UNL     1      25.486   0.541  52.349  1.00  0.00     0.012 A 
HETATM   25  C22 UNL     1      23.356   0.488  53.055  1.00  0.00    -0.009 A 
HETATM   26  C15 UNL     1      26.036  -0.415  53.216  1.00  0.00     0.002 A 
HETATM   27  C16 UNL     1      25.038  -0.908  54.053  1.00  0.00     0.012 A 
HETATM   28  C17 UNL     1      23.681  -0.465  53.989  1.00  0.00    -0.025 A 
HETATM   29  C18 UNL     1      22.788  -1.011  54.860  1.00  0.00     0.012 A 
HETATM   30  C19 UNL     1      21.566  -0.509  54.694  1.00  0.00     0.001 A 
HETATM   31  C20 UNL     1      20.948   0.451  53.843  1.00  0.00     0.008 A 
HETATM   32  C21 UNL     1      22.025   0.913  53.008  1.00  0.00    -0.041 A 
HETATM   33  C23 UNL     1      21.547   1.943  52.033  1.00  0.00     0.096 A 
ENDBRANCH  19  21
ENDBRANCH  14  19
TORSDOF 2
ENDMDL
