MODEL 1
REMARK VINA RESULT:      -7.9      0.000      0.000
REMARK  6 active torsions:
REMARK  status: ('A' for Active; 'I' for Inactive)
REMARK    1  A    between atoms: O1_2  and  C2_3 
REMARK    2  A    between atoms: C4_5  and  N1_6 
REMARK    3  A    between atoms: C8_11  and  C9_12 
REMARK    4  A    between atoms: C12_15  and  N2_16 
REMARK    5  A    between atoms: N2_16  and  C13_17 
REMARK    6  A    between atoms: C13_17  and  C14_18 
ROOT
HETATM    1  C9  UNL     1      25.769   6.204  49.130  1.00  0.00    -0.036 A 
HETATM    2  C10 UNL     1      26.847   5.515  48.626  1.00  0.00     0.011 A 
HETATM    3  C11 UNL     1      27.151   4.263  49.103  1.00  0.00     0.031 A 
HETATM    4  C12 UNL     1      26.365   3.723  50.078  1.00  0.00     0.050 A 
HETATM    5  C20 UNL     1      25.261   4.430  50.593  1.00  0.00     0.060 A 
HETATM    6 CL1  UNL     1      24.102   3.956  51.844  1.00  0.00    -0.082 Cl
HETATM    7  C21 UNL     1      24.931   5.714  50.120  1.00  0.00     0.035 A 
ENDROOT
BRANCH   1   8
HETATM    8  C8  UNL     1      25.524   7.533  48.556  1.00  0.00     0.141 C 
HETATM    9  C2  UNL     1      26.762   8.157  48.017  1.00  0.00     0.069 C 
HETATM   10  C3  UNL     1      27.009   8.553  46.757  1.00  0.00    -0.006 A 
HETATM   11  C4  UNL     1      27.546   9.075  45.463  1.00  0.00     0.262 A 
HETATM   12  C5  UNL     1      26.181   8.490  45.531  1.00  0.00     0.079 A 
HETATM   13  C6  UNL     1      25.008   9.400  45.615  1.00  0.00    -0.008 C 
HETATM   14  C7  UNL     1      24.068   8.905  46.446  1.00  0.00     0.043 C 
HETATM   15  S1  UNL     1      24.214   7.357  47.329  1.00  0.00    -0.125 SA
BRANCH   9  16
HETATM   16  O1  UNL     1      27.757   8.332  48.964  1.00  0.00    -0.358 OA
HETATM   17  C1  UNL     1      27.664   9.260  50.023  1.00  0.00     0.209 C 
ENDBRANCH   9  16
BRANCH  11  18
HETATM   18  N1  UNL     1      28.506   8.309  44.718  1.00  0.00     0.088 N 
HETATM   19  H5  UNL     1      28.575   8.618  43.732  1.00  0.00     0.313 HD
HETATM   20  H6  UNL     1      29.448   8.462  45.152  1.00  0.00     0.313 HD
ENDBRANCH  11  18
ENDBRANCH   1   8
BRANCH   4  21
HETATM   21  N2  UNL     1      26.330   2.524  50.809  1.00  0.00    -0.384 N 
HETATM   22  H13 UNL     1      25.705   2.920  51.588  1.00  0.00     0.160 HD
BRANCH  21  23
HETATM   23  C13 UNL     1      26.292   1.348  51.532  1.00  0.00     0.160 C 
BRANCH  23  24
HETATM   24  C14 UNL     1      27.277   1.159  52.634  1.00  0.00    -0.017 A 
HETATM   25  C15 UNL     1      27.925   2.281  53.157  1.00  0.00     0.125 A 
HETATM   26  N3  UNL     1      28.824   2.123  54.154  1.00  0.00    -0.272 NA
HETATM   27  C16 UNL     1      29.087   0.902  54.632  1.00  0.00     0.116 A 
HETATM   28  C17 UNL     1      28.472  -0.233  54.147  1.00  0.00     0.026 A 
HETATM   29  C18 UNL     1      27.552  -0.098  53.130  1.00  0.00    -0.051 A 
HETATM   30  C19 UNL     1      26.768  -1.178  52.454  1.00  0.00     0.049 C 
ENDBRANCH  23  24
ENDBRANCH  21  23
ENDBRANCH   4  21
TORSDOF 6
ENDMDL
MODEL 2
REMARK VINA RESULT:      -7.8      3.567      4.361
REMARK  6 active torsions:
REMARK  status: ('A' for Active; 'I' for Inactive)
REMARK    1  A    between atoms: O1_2  and  C2_3 
REMARK    2  A    between atoms: C4_5  and  N1_6 
REMARK    3  A    between atoms: C8_11  and  C9_12 
REMARK    4  A    between atoms: C12_15  and  N2_16 
REMARK    5  A    between atoms: N2_16  and  C13_17 
REMARK    6  A    between atoms: C13_17  and  C14_18 
ROOT
HETATM    1  C9  UNL     1      24.482   4.695  49.828  1.00  0.00    -0.036 A 
HETATM    2  C10 UNL     1      25.729   4.272  49.435  1.00  0.00     0.011 A 
HETATM    3  C11 UNL     1      26.307   3.176  50.029  1.00  0.00     0.031 A 
HETATM    4  C12 UNL     1      25.620   2.522  51.009  1.00  0.00     0.050 A 
HETATM    5  C20 UNL     1      24.341   2.958  51.411  1.00  0.00     0.060 A 
HETATM    6 CL1  UNL     1      23.259   2.292  52.643  1.00  0.00    -0.082 Cl
HETATM    7  C21 UNL     1      23.731   4.078  50.816  1.00  0.00     0.035 A 
ENDROOT
BRANCH   1   8
HETATM    8  C8  UNL     1      23.949   5.874  49.132  1.00  0.00     0.141 C 
HETATM    9  C2  UNL     1      22.601   5.632  48.554  1.00  0.00     0.069 C 
HETATM   10  C3  UNL     1      21.456   6.283  48.823  1.00  0.00    -0.006 A 
HETATM   11  C4  UNL     1      20.064   6.821  48.924  1.00  0.00     0.262 A 
HETATM   12  C5  UNL     1      21.157   7.394  49.755  1.00  0.00     0.079 A 
HETATM   13  C6  UNL     1      21.805   8.660  49.321  1.00  0.00    -0.008 C 
HETATM   14  C7  UNL     1      23.132   8.632  49.557  1.00  0.00     0.043 C 
HETATM   15  S1  UNL     1      23.998   7.252  50.295  1.00  0.00    -0.125 SA
BRANCH   9  16
HETATM   16  O1  UNL     1      22.566   4.602  47.630  1.00  0.00    -0.358 OA
HETATM   17  C1  UNL     1      21.589   3.583  47.642  1.00  0.00     0.209 C 
ENDBRANCH   9  16
BRANCH  11  18
HETATM   18  N1  UNL     1      19.059   6.094  49.649  1.00  0.00     0.088 N 
HETATM   19  H5  UNL     1      18.161   6.606  49.696  1.00  0.00     0.313 HD
HETATM   20  H6  UNL     1      18.874   5.199  49.134  1.00  0.00     0.313 HD
ENDBRANCH  11  18
ENDBRANCH   1   8
BRANCH   4  21
HETATM   21  N2  UNL     1      25.838   1.409  51.836  1.00  0.00    -0.384 N 
HETATM   22  H13 UNL     1      25.583   0.691  51.079  1.00  0.00     0.160 HD
BRANCH  21  23
HETATM   23  C13 UNL     1      26.051   0.310  52.646  1.00  0.00     0.160 C 
BRANCH  23  24
HETATM   24  C14 UNL     1      27.450  -0.021  53.041  1.00  0.00    -0.017 A 
HETATM   25  C15 UNL     1      28.275   1.001  53.517  1.00  0.00     0.125 A 
HETATM   26  N3  UNL     1      29.546   0.714  53.875  1.00  0.00    -0.272 NA
HETATM   27  C16 UNL     1      30.005  -0.537  53.774  1.00  0.00     0.116 A 
HETATM   28  C17 UNL     1      29.227  -1.578  53.310  1.00  0.00     0.026 A 
HETATM   29  C18 UNL     1      27.927  -1.310  52.938  1.00  0.00    -0.051 A 
HETATM   30  C19 UNL     1      26.909  -2.272  52.411  1.00  0.00     0.049 C 
ENDBRANCH  23  24
ENDBRANCH  21  23
ENDBRANCH   4  21
TORSDOF 6
ENDMDL
MODEL 3
REMARK VINA RESULT:      -7.8      3.881      4.850
REMARK  6 active torsions:
REMARK  status: ('A' for Active; 'I' for Inactive)
REMARK    1  A    between atoms: O1_2  and  C2_3 
REMARK    2  A    between atoms: C4_5  and  N1_6 
REMARK    3  A    between atoms: C8_11  and  C9_12 
REMARK    4  A    between atoms: C12_15  and  N2_16 
REMARK    5  A    between atoms: N2_16  and  C13_17 
REMARK    6  A    between atoms: C13_17  and  C14_18 
ROOT
HETATM    1  C9  UNL     1      22.937   2.613  50.533  1.00  0.00    -0.036 A 
HETATM    2  C10 UNL     1      22.374   1.884  51.553  1.00  0.00     0.011 A 
HETATM    3  C11 UNL     1      23.160   1.388  52.565  1.00  0.00     0.031 A 
HETATM    4  C12 UNL     1      24.501   1.635  52.534  1.00  0.00     0.050 A 
HETATM    5  C20 UNL     1      25.077   2.382  51.488  1.00  0.00     0.060 A 
HETATM    6 CL1  UNL     1      26.768   2.834  51.223  1.00  0.00    -0.082 Cl
HETATM    7  C21 UNL     1      24.290   2.899  50.442  1.00  0.00     0.035 A 
ENDROOT
BRANCH   1   8
HETATM    8  C8  UNL     1      22.014   3.101  49.499  1.00  0.00     0.141 C 
HETATM    9  C2  UNL     1      21.857   4.579  49.531  1.00  0.00     0.069 C 
HETATM   10  C3  UNL     1      22.128   5.462  48.553  1.00  0.00    -0.006 A 
HETATM   11  C4  UNL     1      22.337   6.644  47.662  1.00  0.00     0.262 A 
HETATM   12  C5  UNL     1      22.668   5.274  47.187  1.00  0.00     0.079 A 
HETATM   13  C6  UNL     1      21.702   4.560  46.310  1.00  0.00    -0.008 C 
HETATM   14  C7  UNL     1      21.643   3.249  46.619  1.00  0.00     0.043 C 
HETATM   15  S1  UNL     1      22.601   2.472  47.914  1.00  0.00    -0.125 SA
BRANCH   9  16
HETATM   16  O1  UNL     1      21.368   5.064  50.731  1.00  0.00    -0.358 OA
HETATM   17  C1  UNL     1      21.632   6.366  51.207  1.00  0.00     0.209 C 
ENDBRANCH   9  16
BRANCH  11  18
HETATM   18  N1  UNL     1      23.462   7.512  47.865  1.00  0.00     0.088 N 
HETATM   19  H5  UNL     1      24.218   7.344  47.177  1.00  0.00     0.313 HD
HETATM   20  H6  UNL     1      23.137   8.500  47.727  1.00  0.00     0.313 HD
ENDBRANCH  11  18
ENDBRANCH   1   8
BRANCH   4  21
HETATM   21  N2  UNL     1      25.611   1.324  53.337  1.00  0.00    -0.384 N 
HETATM   22  H13 UNL     1      25.552   2.228  53.914  1.00  0.00     0.160 HD
BRANCH  21  23
HETATM   23  C13 UNL     1      26.703   1.025  54.128  1.00  0.00     0.160 C 
BRANCH  23  24
HETATM   24  C14 UNL     1      27.546  -0.148  53.761  1.00  0.00    -0.017 A 
HETATM   25  C15 UNL     1      26.918  -1.321  53.335  1.00  0.00     0.125 A 
HETATM   26  N3  UNL     1      27.672  -2.393  53.002  1.00  0.00    -0.272 NA
HETATM   27  C16 UNL     1      29.004  -2.327  53.082  1.00  0.00     0.116 A 
HETATM   28  C17 UNL     1      29.667  -1.190  53.497  1.00  0.00     0.026 A 
HETATM   29  C18 UNL     1      28.921  -0.084  53.842  1.00  0.00    -0.051 A 
HETATM   30  C19 UNL     1      29.418   1.246  54.316  1.00  0.00     0.049 C 
ENDBRANCH  23  24
ENDBRANCH  21  23
ENDBRANCH   4  21
TORSDOF 6
ENDMDL
MODEL 4
REMARK VINA RESULT:      -7.8      4.808      5.522
REMARK  6 active torsions:
REMARK  status: ('A' for Active; 'I' for Inactive)
REMARK    1  A    between atoms: O1_2  and  C2_3 
REMARK    2  A    between atoms: C4_5  and  N1_6 
REMARK    3  A    between atoms: C8_11  and  C9_12 
REMARK    4  A    between atoms: C12_15  and  N2_16 
REMARK    5  A    between atoms: N2_16  and  C13_17 
REMARK    6  A    between atoms: C13_17  and  C14_18 
ROOT
HETATM    1  C9  UNL     1      23.178   3.607  50.868  1.00  0.00    -0.036 A 
HETATM    2  C10 UNL     1      22.233   3.019  51.674  1.00  0.00     0.011 A 
HETATM    3  C11 UNL     1      22.560   1.924  52.437  1.00  0.00     0.031 A 
HETATM    4  C12 UNL     1      23.833   1.438  52.376  1.00  0.00     0.050 A 
HETATM    5  C20 UNL     1      24.800   2.042  51.549  1.00  0.00     0.060 A 
HETATM    6 CL1  UNL     1      26.497   1.606  51.296  1.00  0.00    -0.082 Cl
HETATM    7  C21 UNL     1      24.488   3.164  50.759  1.00  0.00     0.035 A 
ENDROOT
BRANCH   1   8
HETATM    8  C8  UNL     1      22.734   4.773  50.093  1.00  0.00     0.141 C 
HETATM    9  C2  UNL     1      21.823   4.401  48.978  1.00  0.00     0.069 C 
HETATM   10  C3  UNL     1      20.556   4.804  48.774  1.00  0.00    -0.006 A 
HETATM   11  C4  UNL     1      19.164   5.082  48.307  1.00  0.00     0.262 A 
HETATM   12  C5  UNL     1      19.675   5.696  49.561  1.00  0.00     0.079 A 
HETATM   13  C6  UNL     1      20.154   7.103  49.534  1.00  0.00    -0.008 C 
HETATM   14  C7  UNL     1      21.243   7.260  50.312  1.00  0.00     0.043 C 
HETATM   15  S1  UNL     1      22.010   5.947  51.255  1.00  0.00    -0.125 SA
BRANCH   9  16
HETATM   16  O1  UNL     1      22.388   3.532  48.061  1.00  0.00    -0.358 OA
HETATM   17  C1  UNL     1      21.868   2.249  47.786  1.00  0.00     0.209 C 
ENDBRANCH   9  16
BRANCH  11  18
HETATM   18  N1  UNL     1      18.133   4.096  48.480  1.00  0.00     0.088 N 
HETATM   19  H5  UNL     1      18.442   3.305  49.072  1.00  0.00     0.313 HD
HETATM   20  H6  UNL     1      17.330   4.553  48.975  1.00  0.00     0.313 HD
ENDBRANCH  11  18
ENDBRANCH   1   8
BRANCH   4  21
HETATM   21  N2  UNL     1      24.548   0.384  52.967  1.00  0.00    -0.384 N 
HETATM   22  H13 UNL     1      23.683  -0.239  53.103  1.00  0.00     0.160 HD
BRANCH  21  23
HETATM   23  C13 UNL     1      25.247  -0.655  53.550  1.00  0.00     0.160 C 
BRANCH  23  24
HETATM   24  C14 UNL     1      26.706  -0.478  53.800  1.00  0.00    -0.017 A 
HETATM   25  C15 UNL     1      27.119   0.506  54.702  1.00  0.00     0.125 A 
HETATM   26  N3  UNL     1      28.440   0.678  54.935  1.00  0.00    -0.272 NA
HETATM   27  C16 UNL     1      29.337  -0.088  54.306  1.00  0.00     0.116 A 
HETATM   28  C17 UNL     1      28.975  -1.071  53.410  1.00  0.00     0.026 A 
HETATM   29  C18 UNL     1      27.635  -1.266  53.155  1.00  0.00    -0.051 A 
HETATM   30  C19 UNL     1      27.014  -2.265  52.229  1.00  0.00     0.049 C 
ENDBRANCH  23  24
ENDBRANCH  21  23
ENDBRANCH   4  21
TORSDOF 6
ENDMDL
MODEL 5
REMARK VINA RESULT:      -7.6      7.129     10.294
REMARK  6 active torsions:
REMARK  status: ('A' for Active; 'I' for Inactive)
REMARK    1  A    between atoms: O1_2  and  C2_3 
REMARK    2  A    between atoms: C4_5  and  N1_6 
REMARK    3  A    between atoms: C8_11  and  C9_12 
REMARK    4  A    between atoms: C12_15  and  N2_16 
REMARK    5  A    between atoms: N2_16  and  C13_17 
REMARK    6  A    between atoms: C13_17  and  C14_18 
ROOT
HETATM    1  C9  UNL     1      22.639   0.933  52.398  1.00  0.00    -0.036 A 
HETATM    2  C10 UNL     1      22.465   1.331  51.094  1.00  0.00     0.011 A 
HETATM    3  C11 UNL     1      21.257   1.141  50.468  1.00  0.00     0.031 A 
HETATM    4  C12 UNL     1      20.242   0.553  51.164  1.00  0.00     0.050 A 
HETATM    5  C20 UNL     1      20.422   0.145  52.500  1.00  0.00     0.060 A 
HETATM    6 CL1  UNL     1      19.278  -0.632  53.606  1.00  0.00    -0.082 Cl
HETATM    7  C21 UNL     1      21.651   0.330  53.162  1.00  0.00     0.035 A 
ENDROOT
BRANCH   1   8
HETATM    8  C8  UNL     1      23.964   1.180  52.980  1.00  0.00     0.141 C 
HETATM    9  C2  UNL     1      24.600  -0.062  53.495  1.00  0.00     0.069 C 
HETATM   10  C3  UNL     1      25.767  -0.612  53.117  1.00  0.00    -0.006 A 
HETATM   11  C4  UNL     1      27.000  -1.430  52.899  1.00  0.00     0.262 A 
HETATM   12  C5  UNL     1      26.758  -0.201  52.097  1.00  0.00     0.079 A 
HETATM   13  C6  UNL     1      27.447   1.059  52.480  1.00  0.00    -0.008 C 
HETATM   14  C7  UNL     1      26.635   2.124  52.324  1.00  0.00     0.043 C 
HETATM   15  S1  UNL     1      24.949   2.030  51.732  1.00  0.00    -0.125 SA
BRANCH   9  16
HETATM   16  O1  UNL     1      23.867  -0.697  54.483  1.00  0.00    -0.358 OA
HETATM   17  C1  UNL     1      24.444  -1.229  55.655  1.00  0.00     0.209 C 
ENDBRANCH   9  16
BRANCH  11  18
HETATM   18  N1  UNL     1      26.928  -2.664  52.169  1.00  0.00     0.088 N 
HETATM   19  H5  UNL     1      26.323  -2.592  51.332  1.00  0.00     0.313 HD
HETATM   20  H6  UNL     1      27.894  -2.895  51.830  1.00  0.00     0.313 HD
ENDBRANCH  11  18
ENDBRANCH   1   8
BRANCH   4  21
HETATM   21  N2  UNL     1      18.910   0.190  50.909  1.00  0.00    -0.384 N 
HETATM   22  H13 UNL     1      18.983  -0.757  51.411  1.00  0.00     0.160 HD
BRANCH  21  23
HETATM   23  C13 UNL     1      17.600  -0.172  50.660  1.00  0.00     0.160 C 
BRANCH  23  24
HETATM   24  C14 UNL     1      16.519   0.485  51.448  1.00  0.00    -0.017 A 
HETATM   25  C15 UNL     1      16.352   1.868  51.338  1.00  0.00     0.125 A 
HETATM   26  N3  UNL     1      15.377   2.476  52.051  1.00  0.00    -0.272 NA
HETATM   27  C16 UNL     1      14.583   1.757  52.850  1.00  0.00     0.116 A 
HETATM   28  C17 UNL     1      14.711   0.391  52.989  1.00  0.00     0.026 A 
HETATM   29  C18 UNL     1      15.698  -0.253  52.274  1.00  0.00    -0.051 A 
HETATM   30  C19 UNL     1      16.019  -1.714  52.267  1.00  0.00     0.049 C 
ENDBRANCH  23  24
ENDBRANCH  21  23
ENDBRANCH   4  21
TORSDOF 6
ENDMDL
MODEL 6
REMARK VINA RESULT:      -7.5      4.920      5.678
REMARK  6 active torsions:
REMARK  status: ('A' for Active; 'I' for Inactive)
REMARK    1  A    between atoms: O1_2  and  C2_3 
REMARK    2  A    between atoms: C4_5  and  N1_6 
REMARK    3  A    between atoms: C8_11  and  C9_12 
REMARK    4  A    between atoms: C12_15  and  N2_16 
REMARK    5  A    between atoms: N2_16  and  C13_17 
REMARK    6  A    between atoms: C13_17  and  C14_18 
ROOT
HETATM    1  C9  UNL     1      22.125   2.286  50.516  1.00  0.00    -0.036 A 
HETATM    2  C10 UNL     1      23.386   2.832  50.531  1.00  0.00     0.011 A 
HETATM    3  C11 UNL     1      24.375   2.268  51.300  1.00  0.00     0.031 A 
HETATM    4  C12 UNL     1      24.079   1.163  52.043  1.00  0.00     0.050 A 
HETATM    5  C20 UNL     1      22.786   0.604  52.026  1.00  0.00     0.060 A 
HETATM    6 CL1  UNL     1      22.157  -0.807  52.889  1.00  0.00    -0.082 Cl
HETATM    7  C21 UNL     1      21.758   1.165  51.246  1.00  0.00     0.035 A 
ENDROOT
BRANCH   1   8
HETATM    8  C8  UNL     1      21.138   2.958  49.662  1.00  0.00     0.141 C 
HETATM    9  C2  UNL     1      20.536   4.149  50.318  1.00  0.00     0.069 C 
HETATM   10  C3  UNL     1      20.562   5.427  49.899  1.00  0.00    -0.006 A 
HETATM   11  C4  UNL     1      20.435   6.900  49.678  1.00  0.00     0.262 A 
HETATM   12  C5  UNL     1      21.185   6.055  48.712  1.00  0.00     0.079 A 
HETATM   13  C6  UNL     1      20.517   5.630  47.454  1.00  0.00    -0.008 C 
HETATM   14  C7  UNL     1      20.848   4.363  47.132  1.00  0.00     0.043 C 
HETATM   15  S1  UNL     1      21.948   3.331  48.094  1.00  0.00    -0.125 SA
BRANCH   9  16
HETATM   16  O1  UNL     1      19.878   3.863  51.501  1.00  0.00    -0.358 OA
HETATM   17  C1  UNL     1      18.564   3.349  51.553  1.00  0.00     0.209 C 
ENDBRANCH   9  16
BRANCH  11  18
HETATM   18  N1  UNL     1      21.234   7.817  50.443  1.00  0.00     0.088 N 
HETATM   19  H5  UNL     1      20.727   8.694  50.659  1.00  0.00     0.313 HD
HETATM   20  H6  UNL     1      21.461   7.361  51.359  1.00  0.00     0.313 HD
ENDBRANCH  11  18
ENDBRANCH   1   8
BRANCH   4  21
HETATM   21  N2  UNL     1      24.769   0.316  52.926  1.00  0.00    -0.384 N 
HETATM   22  H13 UNL     1      24.119   0.516  53.758  1.00  0.00     0.160 HD
BRANCH  21  23
HETATM   23  C13 UNL     1      25.443  -0.515  53.799  1.00  0.00     0.160 C 
BRANCH  23  24
HETATM   24  C14 UNL     1      26.930  -0.432  53.853  1.00  0.00    -0.017 A 
HETATM   25  C15 UNL     1      27.521   0.545  54.658  1.00  0.00     0.125 A 
HETATM   26  N3  UNL     1      28.869   0.632  54.712  1.00  0.00    -0.272 NA
HETATM   27  C16 UNL     1      29.625  -0.211  54.002  1.00  0.00     0.116 A 
HETATM   28  C17 UNL     1      29.085  -1.191  53.195  1.00  0.00     0.026 A 
HETATM   29  C18 UNL     1      27.713  -1.300  53.122  1.00  0.00    -0.051 A 
HETATM   30  C19 UNL     1      26.913  -2.278  52.321  1.00  0.00     0.049 C 
ENDBRANCH  23  24
ENDBRANCH  21  23
ENDBRANCH   4  21
TORSDOF 6
ENDMDL
MODEL 7
REMARK VINA RESULT:      -7.4      3.189      4.239
REMARK  6 active torsions:
REMARK  status: ('A' for Active; 'I' for Inactive)
REMARK    1  A    between atoms: O1_2  and  C2_3 
REMARK    2  A    between atoms: C4_5  and  N1_6 
REMARK    3  A    between atoms: C8_11  and  C9_12 
REMARK    4  A    between atoms: C12_15  and  N2_16 
REMARK    5  A    between atoms: N2_16  and  C13_17 
REMARK    6  A    between atoms: C13_17  and  C14_18 
ROOT
HETATM    1  C9  UNL     1      27.409   6.094  48.610  1.00  0.00    -0.036 A 
HETATM    2  C10 UNL     1      27.536   4.725  48.648  1.00  0.00     0.011 A 
HETATM    3  C11 UNL     1      26.678   3.972  49.413  1.00  0.00     0.031 A 
HETATM    4  C12 UNL     1      25.706   4.608  50.128  1.00  0.00     0.050 A 
HETATM    5  C20 UNL     1      25.577   6.010  50.088  1.00  0.00     0.060 A 
HETATM    6 CL1  UNL     1      24.416   7.059  50.915  1.00  0.00    -0.082 Cl
HETATM    7  C21 UNL     1      26.444   6.801  49.312  1.00  0.00     0.035 A 
ENDROOT
BRANCH   1   8
HETATM    8  C8  UNL     1      28.370   6.810  47.763  1.00  0.00     0.141 C 
HETATM    9  C2  UNL     1      28.518   8.238  48.153  1.00  0.00     0.069 C 
HETATM   10  C3  UNL     1      29.632   8.876  48.552  1.00  0.00    -0.006 A 
HETATM   11  C4  UNL     1      30.693   9.822  49.016  1.00  0.00     0.262 A 
HETATM   12  C5  UNL     1      31.018   8.395  48.749  1.00  0.00     0.079 A 
HETATM   13  C6  UNL     1      31.659   8.030  47.458  1.00  0.00    -0.008 C 
HETATM   14  C7  UNL     1      31.172   6.865  46.986  1.00  0.00     0.043 C 
HETATM   15  S1  UNL     1      29.919   5.887  47.808  1.00  0.00    -0.125 SA
BRANCH   9  16
HETATM   16  O1  UNL     1      27.340   8.961  48.081  1.00  0.00    -0.358 OA
HETATM   17  C1  UNL     1      27.182  10.244  48.647  1.00  0.00     0.209 C 
ENDBRANCH   9  16
BRANCH  11  18
HETATM   18  N1  UNL     1      30.755  10.218  50.395  1.00  0.00     0.088 N 
HETATM   19  H5  UNL     1      31.596   9.849  50.873  1.00  0.00     0.313 HD
HETATM   20  H6  UNL     1      30.819  11.265  50.428  1.00  0.00     0.313 HD
ENDBRANCH  11  18
ENDBRANCH   1   8
BRANCH   4  21
HETATM   21  N2  UNL     1      24.671   4.229  50.998  1.00  0.00    -0.384 N 
HETATM   22  H13 UNL     1      25.050   4.793  51.830  1.00  0.00     0.160 HD
BRANCH  21  23
HETATM   23  C13 UNL     1      23.655   3.859  51.858  1.00  0.00     0.160 C 
BRANCH  23  24
HETATM   24  C14 UNL     1      23.690   2.493  52.452  1.00  0.00    -0.017 A 
HETATM   25  C15 UNL     1      24.918   1.970  52.867  1.00  0.00     0.125 A 
HETATM   26  N3  UNL     1      24.962   0.730  53.405  1.00  0.00    -0.272 NA
HETATM   27  C16 UNL     1      23.840   0.016  53.536  1.00  0.00     0.116 A 
HETATM   28  C17 UNL     1      22.607   0.491  53.141  1.00  0.00     0.026 A 
HETATM   29  C18 UNL     1      22.535   1.752  52.590  1.00  0.00    -0.051 A 
HETATM   30  C19 UNL     1      21.318   2.467  52.095  1.00  0.00     0.049 C 
ENDBRANCH  23  24
ENDBRANCH  21  23
ENDBRANCH   4  21
TORSDOF 6
ENDMDL
MODEL 8
REMARK VINA RESULT:      -7.4      4.958      6.324
REMARK  6 active torsions:
REMARK  status: ('A' for Active; 'I' for Inactive)
REMARK    1  A    between atoms: O1_2  and  C2_3 
REMARK    2  A    between atoms: C4_5  and  N1_6 
REMARK    3  A    between atoms: C8_11  and  C9_12 
REMARK    4  A    between atoms: C12_15  and  N2_16 
REMARK    5  A    between atoms: N2_16  and  C13_17 
REMARK    6  A    between atoms: C13_17  and  C14_18 
ROOT
HETATM    1  C9  UNL     1      21.565   3.118  51.841  1.00  0.00    -0.036 A 
HETATM    2  C10 UNL     1      22.753   3.708  52.203  1.00  0.00     0.011 A 
HETATM    3  C11 UNL     1      23.785   2.942  52.689  1.00  0.00     0.031 A 
HETATM    4  C12 UNL     1      23.605   1.594  52.803  1.00  0.00     0.050 A 
HETATM    5  C20 UNL     1      22.387   0.992  52.432  1.00  0.00     0.060 A 
HETATM    6 CL1  UNL     1      21.909  -0.711  52.484  1.00  0.00    -0.082 Cl
HETATM    7  C21 UNL     1      21.317   1.757  51.932  1.00  0.00     0.035 A 
ENDROOT
BRANCH   1   8
HETATM    8  C8  UNL     1      20.524   4.020  51.331  1.00  0.00     0.141 C 
HETATM    9  C2  UNL     1      20.663   4.283  49.874  1.00  0.00     0.069 C 
HETATM   10  C3  UNL     1      19.775   4.026  48.898  1.00  0.00    -0.006 A 
HETATM   11  C4  UNL     1      18.993   3.856  47.635  1.00  0.00     0.262 A 
HETATM   12  C5  UNL     1      18.431   3.406  48.936  1.00  0.00     0.079 A 
HETATM   13  C6  UNL     1      17.448   4.274  49.637  1.00  0.00    -0.008 C 
HETATM   14  C7  UNL     1      17.648   4.257  50.970  1.00  0.00     0.043 C 
HETATM   15  S1  UNL     1      18.929   3.312  51.787  1.00  0.00    -0.125 SA
BRANCH   9  16
HETATM   16  O1  UNL     1      21.869   4.864  49.524  1.00  0.00    -0.358 OA
HETATM   17  C1  UNL     1      22.289   5.034  48.187  1.00  0.00     0.209 C 
ENDBRANCH   9  16
BRANCH  11  18
HETATM   18  N1  UNL     1      19.327   2.806  46.714  1.00  0.00     0.088 N 
HETATM   19  H5  UNL     1      18.843   2.912  45.805  1.00  0.00     0.313 HD
HETATM   20  H6  UNL     1      20.356   2.863  46.519  1.00  0.00     0.313 HD
ENDBRANCH  11  18
ENDBRANCH   1   8
BRANCH   4  21
HETATM   21  N2  UNL     1      24.370   0.499  53.234  1.00  0.00    -0.384 N 
HETATM   22  H13 UNL     1      24.268   0.731  54.279  1.00  0.00     0.160 HD
BRANCH  21  23
HETATM   23  C13 UNL     1      25.123  -0.577  53.665  1.00  0.00     0.160 C 
BRANCH  23  24
HETATM   24  C14 UNL     1      26.590  -0.391  53.845  1.00  0.00    -0.017 A 
HETATM   25  C15 UNL     1      27.040   0.591  54.731  1.00  0.00     0.125 A 
HETATM   26  N3  UNL     1      28.369   0.771  54.900  1.00  0.00    -0.272 NA
HETATM   27  C16 UNL     1      29.240   0.016  54.224  1.00  0.00     0.116 A 
HETATM   28  C17 UNL     1      28.842  -0.965  53.339  1.00  0.00     0.026 A 
HETATM   29  C18 UNL     1      27.492  -1.168  53.149  1.00  0.00    -0.051 A 
HETATM   30  C19 UNL     1      26.834  -2.165  52.248  1.00  0.00     0.049 C 
ENDBRANCH  23  24
ENDBRANCH  21  23
ENDBRANCH   4  21
TORSDOF 6
ENDMDL
MODEL 9
REMARK VINA RESULT:      -7.4      2.568      3.372
REMARK  6 active torsions:
REMARK  status: ('A' for Active; 'I' for Inactive)
REMARK    1  A    between atoms: O1_2  and  C2_3 
REMARK    2  A    between atoms: C4_5  and  N1_6 
REMARK    3  A    between atoms: C8_11  and  C9_12 
REMARK    4  A    between atoms: C12_15  and  N2_16 
REMARK    5  A    between atoms: N2_16  and  C13_17 
REMARK    6  A    between atoms: C13_17  and  C14_18 
ROOT
HETATM    1  C9  UNL     1      27.028   6.606  48.612  1.00  0.00    -0.036 A 
HETATM    2  C10 UNL     1      27.383   5.284  48.486  1.00  0.00     0.011 A 
HETATM    3  C11 UNL     1      26.747   4.322  49.234  1.00  0.00     0.031 A 
HETATM    4  C12 UNL     1      25.763   4.706  50.097  1.00  0.00     0.050 A 
HETATM    5  C20 UNL     1      25.400   6.062  50.225  1.00  0.00     0.060 A 
HETATM    6 CL1  UNL     1      24.173   6.808  51.260  1.00  0.00    -0.082 Cl
HETATM    7  C21 UNL     1      26.038   7.063  49.469  1.00  0.00     0.035 A 
ENDROOT
BRANCH   1   8
HETATM    8  C8  UNL     1      27.764   7.557  47.770  1.00  0.00     0.141 C 
HETATM    9  C2  UNL     1      26.870   8.559  47.130  1.00  0.00     0.069 C 
HETATM   10  C3  UNL     1      26.901   9.897  47.255  1.00  0.00    -0.006 A 
HETATM   11  C4  UNL     1      26.706  11.378  47.210  1.00  0.00     0.262 A 
HETATM   12  C5  UNL     1      27.780  10.784  48.051  1.00  0.00     0.079 A 
HETATM   13  C6  UNL     1      29.176  10.775  47.538  1.00  0.00    -0.008 C 
HETATM   14  C7  UNL     1      29.804   9.627  47.864  1.00  0.00     0.043 C 
HETATM   15  S1  UNL     1      29.055   8.293  48.791  1.00  0.00    -0.125 SA
BRANCH   9  16
HETATM   16  O1  UNL     1      25.902   8.002  46.312  1.00  0.00    -0.358 OA
HETATM   17  C1  UNL     1      24.555   8.422  46.308  1.00  0.00     0.209 C 
ENDBRANCH   9  16
BRANCH  11  18
HETATM   18  N1  UNL     1      25.626  11.988  47.934  1.00  0.00     0.088 N 
HETATM   19  H5  UNL     1      25.907  12.281  48.886  1.00  0.00     0.313 HD
HETATM   20  H6  UNL     1      25.341  12.856  47.418  1.00  0.00     0.313 HD
ENDBRANCH  11  18
ENDBRANCH   1   8
BRANCH   4  21
HETATM   21  N2  UNL     1      24.902   4.071  51.006  1.00  0.00    -0.384 N 
HETATM   22  H13 UNL     1      24.173   3.809  50.261  1.00  0.00     0.160 HD
BRANCH  21  23
HETATM   23  C13 UNL     1      24.050   3.445  51.895  1.00  0.00     0.160 C 
BRANCH  23  24
HETATM   24  C14 UNL     1      24.546   2.248  52.631  1.00  0.00    -0.017 A 
HETATM   25  C15 UNL     1      25.708   2.362  53.397  1.00  0.00     0.125 A 
HETATM   26  N3  UNL     1      26.170   1.282  54.067  1.00  0.00    -0.272 NA
HETATM   27  C16 UNL     1      25.517   0.118  53.993  1.00  0.00     0.116 A 
HETATM   28  C17 UNL     1      24.366  -0.041  53.250  1.00  0.00     0.026 A 
HETATM   29  C18 UNL     1      23.875   1.045  52.558  1.00  0.00    -0.051 A 
HETATM   30  C19 UNL     1      22.654   1.107  51.695  1.00  0.00     0.049 C 
ENDBRANCH  23  24
ENDBRANCH  21  23
ENDBRANCH   4  21
TORSDOF 6
ENDMDL
