MODEL 1
REMARK VINA RESULT:      -6.8      0.000      0.000
REMARK  6 active torsions:
REMARK  status: ('A' for Active; 'I' for Inactive)
REMARK    1  A    between atoms: O1_2  and  C2_3 
REMARK    2  A    between atoms: C2_3  and  C3_4 
REMARK    3  A    between atoms: C3_4  and  O2_5 
REMARK    4  A    between atoms: O2_5  and  C4_6 
REMARK    5  A    between atoms: C5_7  and  C6_8 
REMARK    6  A    between atoms: C6_8  and  O3_9 
ROOT
HETATM    1  C4  UNL     1      24.835   2.777  51.376  1.00  0.00     0.076 C 
HETATM    2  C5  UNL     1      25.147   3.449  50.236  1.00  0.00    -0.018 C 
HETATM    3  C8  UNL     1      24.135   4.081  49.250  1.00  0.00     0.117 C 
HETATM    4  C9  UNL     1      22.842   4.206  49.977  1.00  0.00     0.112 C 
HETATM    5  N1  UNL     1      22.580   5.203  50.842  1.00  0.00    -0.229 NA
HETATM    6  C10 UNL     1      23.276   5.201  52.150  1.00  0.00     0.229 C 
HETATM    7  N2  UNL     1      23.736   4.277  52.981  1.00  0.00    -0.270 NA
HETATM    8  C11 UNL     1      24.218   2.936  52.722  1.00  0.00     0.174 C 
HETATM    9  C12 UNL     1      23.093   1.916  52.914  1.00  0.00     0.046 C 
HETATM   10  C13 UNL     1      23.617   0.550  53.189  1.00  0.00     0.017 C 
HETATM   11  C14 UNL     1      22.214   1.907  51.716  1.00  0.00    -0.052 C 
HETATM   12  C15 UNL     1      22.119   1.153  50.588  1.00  0.00     0.006 C 
HETATM   13  C16 UNL     1      21.630   1.956  49.385  1.00  0.00     0.110 C 
HETATM   14  C17 UNL     1      22.311   1.712  48.126  1.00  0.00     0.037 C 
HETATM   15  N3  UNL     1      21.744   3.294  49.996  1.00  0.00    -0.337 N 
HETATM   16  C18 UNL     1      20.480   3.405  50.757  1.00  0.00     0.093 C 
HETATM   17  C19 UNL     1      21.316   3.106  51.787  1.00  0.00     0.024 C 
ENDROOT
BRANCH   1  18
HETATM   18  O2  UNL     1      25.139   1.429  51.477  1.00  0.00    -0.351 OA
BRANCH  18  19
HETATM   19  C3  UNL     1      26.420   0.861  51.425  1.00  0.00     0.201 C 
BRANCH  19  20
HETATM   20  C2  UNL     1      27.187   1.106  52.732  1.00  0.00     0.193 C 
BRANCH  20  21
HETATM   21  O1  UNL     1      27.954   2.272  52.582  1.00  0.00    -0.394 OA
HETATM   22  C1  UNL     1      28.820   2.441  53.660  1.00  0.00     0.201 C 
ENDBRANCH  20  21
ENDBRANCH  19  20
ENDBRANCH  18  19
ENDBRANCH   1  18
BRANCH   2  23
HETATM   23  C6  UNL     1      26.490   3.677  49.760  1.00  0.00     0.204 C 
BRANCH  23  24
HETATM   24  O3  UNL     1      26.675   4.786  48.970  1.00  0.00    -0.392 OA
HETATM   25  C7  UNL     1      27.955   5.015  48.538  1.00  0.00     0.201 C 
ENDBRANCH  23  24
ENDBRANCH   2  23
TORSDOF 6
ENDMDL
MODEL 2
REMARK VINA RESULT:      -6.0      3.032      6.092
REMARK  6 active torsions:
REMARK  status: ('A' for Active; 'I' for Inactive)
REMARK    1  A    between atoms: O1_2  and  C2_3 
REMARK    2  A    between atoms: C2_3  and  C3_4 
REMARK    3  A    between atoms: C3_4  and  O2_5 
REMARK    4  A    between atoms: O2_5  and  C4_6 
REMARK    5  A    between atoms: C5_7  and  C6_8 
REMARK    6  A    between atoms: C6_8  and  O3_9 
ROOT
HETATM    1  C4  UNL     1      21.401   3.628  51.885  1.00  0.00     0.076 C 
HETATM    2  C5  UNL     1      21.321   2.272  51.910  1.00  0.00    -0.018 C 
HETATM    3  C8  UNL     1      22.310   1.293  51.232  1.00  0.00     0.117 C 
HETATM    4  C9  UNL     1      23.553   2.061  50.948  1.00  0.00     0.112 C 
HETATM    5  N1  UNL     1      24.488   2.315  51.882  1.00  0.00    -0.229 NA
HETATM    6  C10 UNL     1      24.169   3.293  52.948  1.00  0.00     0.229 C 
HETATM    7  N2  UNL     1      23.429   4.388  53.045  1.00  0.00    -0.270 NA
HETATM    8  C11 UNL     1      22.234   4.781  52.327  1.00  0.00     0.174 C 
HETATM    9  C12 UNL     1      22.595   5.664  51.130  1.00  0.00     0.046 C 
HETATM   10  C13 UNL     1      21.451   6.510  50.694  1.00  0.00     0.017 C 
HETATM   11  C14 UNL     1      23.075   4.816  50.007  1.00  0.00    -0.052 C 
HETATM   12  C15 UNL     1      22.517   4.277  48.891  1.00  0.00     0.006 C 
HETATM   13  C16 UNL     1      23.143   2.938  48.510  1.00  0.00     0.110 C 
HETATM   14  C17 UNL     1      22.225   1.891  48.095  1.00  0.00     0.037 C 
HETATM   15  N3  UNL     1      23.922   2.739  49.746  1.00  0.00    -0.337 N 
HETATM   16  C18 UNL     1      25.140   3.537  49.488  1.00  0.00     0.093 C 
HETATM   17  C19 UNL     1      24.489   4.410  50.301  1.00  0.00     0.024 C 
ENDROOT
BRANCH   1  18
HETATM   18  O2  UNL     1      20.411   4.358  51.246  1.00  0.00    -0.351 OA
BRANCH  18  19
HETATM   19  C3  UNL     1      19.438   3.851  50.374  1.00  0.00     0.201 C 
BRANCH  19  20
HETATM   20  C2  UNL     1      18.047   4.403  50.715  1.00  0.00     0.193 C 
BRANCH  20  21
HETATM   21  O1  UNL     1      17.637   3.843  51.936  1.00  0.00    -0.394 OA
HETATM   22  C1  UNL     1      16.267   4.003  52.122  1.00  0.00     0.201 C 
ENDBRANCH  20  21
ENDBRANCH  19  20
ENDBRANCH  18  19
ENDBRANCH   1  18
BRANCH   2  23
HETATM   23  C6  UNL     1      20.283   1.523  52.577  1.00  0.00     0.204 C 
BRANCH  23  24
HETATM   24  O3  UNL     1      19.539   0.679  51.788  1.00  0.00    -0.392 OA
HETATM   25  C7  UNL     1      18.765  -0.240  52.447  1.00  0.00     0.201 C 
ENDBRANCH  23  24
ENDBRANCH   2  23
TORSDOF 6
ENDMDL
MODEL 3
REMARK VINA RESULT:      -6.0      1.782      4.012
REMARK  6 active torsions:
REMARK  status: ('A' for Active; 'I' for Inactive)
REMARK    1  A    between atoms: O1_2  and  C2_3 
REMARK    2  A    between atoms: C2_3  and  C3_4 
REMARK    3  A    between atoms: C3_4  and  O2_5 
REMARK    4  A    between atoms: O2_5  and  C4_6 
REMARK    5  A    between atoms: C5_7  and  C6_8 
REMARK    6  A    between atoms: C6_8  and  O3_9 
ROOT
HETATM    1  C4  UNL     1      23.093   2.590  50.881  1.00  0.00     0.076 C 
HETATM    2  C5  UNL     1      23.304   3.250  52.050  1.00  0.00    -0.018 C 
HETATM    3  C8  UNL     1      22.344   4.278  52.696  1.00  0.00     0.117 C 
HETATM    4  C9  UNL     1      21.010   4.081  52.066  1.00  0.00     0.112 C 
HETATM    5  N1  UNL     1      20.164   3.102  52.433  1.00  0.00    -0.229 NA
HETATM    6  C10 UNL     1      20.502   1.706  52.069  1.00  0.00     0.229 C 
HETATM    7  N2  UNL     1      21.141   1.111  51.072  1.00  0.00    -0.270 NA
HETATM    8  C11 UNL     1      22.207   1.593  50.218  1.00  0.00     0.174 C 
HETATM    9  C12 UNL     1      21.635   2.170  48.921  1.00  0.00     0.046 C 
HETATM   10  C13 UNL     1      22.639   2.179  47.822  1.00  0.00     0.017 C 
HETATM   11  C14 UNL     1      21.118   3.542  49.168  1.00  0.00    -0.052 C 
HETATM   12  C15 UNL     1      21.600   4.804  49.009  1.00  0.00     0.006 C 
HETATM   13  C16 UNL     1      21.066   5.772  50.061  1.00  0.00     0.110 C 
HETATM   14  C17 UNL     1      22.028   6.697  50.634  1.00  0.00     0.037 C 
HETATM   15  N3  UNL     1      20.449   4.765  50.945  1.00  0.00    -0.337 N 
HETATM   16  C18 UNL     1      19.140   4.532  50.298  1.00  0.00     0.093 C 
HETATM   17  C19 UNL     1      19.790   3.423  49.855  1.00  0.00     0.024 C 
ENDROOT
BRANCH   1  18
HETATM   18  O2  UNL     1      23.933   2.825  49.803  1.00  0.00    -0.351 OA
BRANCH  18  19
HETATM   19  C3  UNL     1      24.965   3.773  49.747  1.00  0.00     0.201 C 
BRANCH  19  20
HETATM   20  C2  UNL     1      26.340   3.093  49.738  1.00  0.00     0.193 C 
BRANCH  20  21
HETATM   21  O1  UNL     1      27.254   3.953  49.107  1.00  0.00    -0.394 OA
HETATM   22  C1  UNL     1      26.703   5.219  48.925  1.00  0.00     0.201 C 
ENDBRANCH  20  21
ENDBRANCH  19  20
ENDBRANCH  18  19
ENDBRANCH   1  18
BRANCH   2  23
HETATM   23  C6  UNL     1      24.475   3.096  52.879  1.00  0.00     0.204 C 
BRANCH  23  24
HETATM   24  O3  UNL     1      24.734   1.825  53.334  1.00  0.00    -0.392 OA
HETATM   25  C7  UNL     1      25.932   1.279  52.954  1.00  0.00     0.201 C 
ENDBRANCH  23  24
ENDBRANCH   2  23
TORSDOF 6
ENDMDL
MODEL 4
REMARK VINA RESULT:      -5.9      1.954      3.604
REMARK  6 active torsions:
REMARK  status: ('A' for Active; 'I' for Inactive)
REMARK    1  A    between atoms: O1_2  and  C2_3 
REMARK    2  A    between atoms: C2_3  and  C3_4 
REMARK    3  A    between atoms: C3_4  and  O2_5 
REMARK    4  A    between atoms: O2_5  and  C4_6 
REMARK    5  A    between atoms: C5_7  and  C6_8 
REMARK    6  A    between atoms: C6_8  and  O3_9 
ROOT
HETATM    1  C4  UNL     1      23.326   3.126  51.695  1.00  0.00     0.076 C 
HETATM    2  C5  UNL     1      24.460   2.769  51.035  1.00  0.00    -0.018 C 
HETATM    3  C8  UNL     1      24.827   3.169  49.585  1.00  0.00     0.117 C 
HETATM    4  C9  UNL     1      23.970   4.332  49.226  1.00  0.00     0.112 C 
HETATM    5  N1  UNL     1      24.243   5.591  49.614  1.00  0.00    -0.229 NA
HETATM    6  C10 UNL     1      24.060   5.943  51.041  1.00  0.00     0.229 C 
HETATM    7  N2  UNL     1      23.254   5.559  52.020  1.00  0.00    -0.270 NA
HETATM    8  C11 UNL     1      22.586   4.294  52.246  1.00  0.00     0.174 C 
HETATM    9  C12 UNL     1      21.163   4.333  51.685  1.00  0.00     0.046 C 
HETATM   10  C13 UNL     1      20.279   3.323  52.331  1.00  0.00     0.017 C 
HETATM   11  C14 UNL     1      21.197   4.131  50.213  1.00  0.00    -0.052 C 
HETATM   12  C15 UNL     1      21.036   3.073  49.374  1.00  0.00     0.006 C 
HETATM   13  C16 UNL     1      21.888   3.189  48.113  1.00  0.00     0.110 C 
HETATM   14  C17 UNL     1      22.561   1.978  47.675  1.00  0.00     0.037 C 
HETATM   15  N3  UNL     1      22.713   4.331  48.550  1.00  0.00    -0.337 N 
HETATM   16  C18 UNL     1      21.846   5.488  48.236  1.00  0.00     0.093 C 
HETATM   17  C19 UNL     1      21.624   5.420  49.575  1.00  0.00     0.024 C 
ENDROOT
BRANCH   1  18
HETATM   18  O2  UNL     1      22.416   2.148  52.064  1.00  0.00    -0.351 OA
BRANCH  18  19
HETATM   19  C3  UNL     1      22.514   0.776  51.790  1.00  0.00     0.201 C 
BRANCH  19  20
HETATM   20  C2  UNL     1      21.791  -0.054  52.859  1.00  0.00     0.193 C 
BRANCH  20  21
HETATM   21  O1  UNL     1      22.716  -0.945  53.426  1.00  0.00    -0.394 OA
HETATM   22  C1  UNL     1      22.443  -1.154  54.776  1.00  0.00     0.201 C 
ENDBRANCH  20  21
ENDBRANCH  19  20
ENDBRANCH  18  19
ENDBRANCH   1  18
BRANCH   2  23
HETATM   23  C6  UNL     1      25.508   1.946  51.588  1.00  0.00     0.204 C 
BRANCH  23  24
HETATM   24  O3  UNL     1      25.666   2.000  52.952  1.00  0.00    -0.392 OA
HETATM   25  C7  UNL     1      25.821   0.798  53.591  1.00  0.00     0.201 C 
ENDBRANCH  23  24
ENDBRANCH   2  23
TORSDOF 6
ENDMDL
MODEL 5
REMARK VINA RESULT:      -5.8      8.365     10.856
REMARK  6 active torsions:
REMARK  status: ('A' for Active; 'I' for Inactive)
REMARK    1  A    between atoms: O1_2  and  C2_3 
REMARK    2  A    between atoms: C2_3  and  C3_4 
REMARK    3  A    between atoms: C3_4  and  O2_5 
REMARK    4  A    between atoms: O2_5  and  C4_6 
REMARK    5  A    between atoms: C5_7  and  C6_8 
REMARK    6  A    between atoms: C6_8  and  O3_9 
ROOT
HETATM    1  C4  UNL     1      33.552   7.174  46.105  1.00  0.00     0.076 C 
HETATM    2  C5  UNL     1      32.512   7.139  45.230  1.00  0.00    -0.018 C 
HETATM    3  C8  UNL     1      31.044   7.511  45.554  1.00  0.00     0.117 C 
HETATM    4  C9  UNL     1      31.066   8.307  46.811  1.00  0.00     0.112 C 
HETATM    5  N1  UNL     1      31.376   9.616  46.846  1.00  0.00    -0.229 NA
HETATM    6  C10 UNL     1      32.784  10.011  46.613  1.00  0.00     0.229 C 
HETATM    7  N2  UNL     1      33.974   9.477  46.846  1.00  0.00    -0.270 NA
HETATM    8  C11 UNL     1      34.379   8.089  46.938  1.00  0.00     0.174 C 
HETATM    9  C12 UNL     1      34.375   7.627  48.397  1.00  0.00     0.046 C 
HETATM   10  C13 UNL     1      35.259   6.448  48.613  1.00  0.00     0.017 C 
HETATM   11  C14 UNL     1      32.985   7.322  48.824  1.00  0.00    -0.052 C 
HETATM   12  C15 UNL     1      32.222   6.200  48.918  1.00  0.00     0.006 C 
HETATM   13  C16 UNL     1      30.743   6.472  48.658  1.00  0.00     0.110 C 
HETATM   14  C17 UNL     1      30.044   5.505  47.830  1.00  0.00     0.037 C 
HETATM   15  N3  UNL     1      30.894   7.850  48.153  1.00  0.00    -0.337 N 
HETATM   16  C18 UNL     1      30.961   8.642  49.401  1.00  0.00     0.093 C 
HETATM   17  C19 UNL     1      32.286   8.621  49.098  1.00  0.00     0.024 C 
ENDROOT
BRANCH   1  18
HETATM   18  O2  UNL     1      34.189   5.992  46.453  1.00  0.00    -0.351 OA
BRANCH  18  19
HETATM   19  C3  UNL     1      33.798   4.698  46.081  1.00  0.00     0.201 C 
BRANCH  19  20
HETATM   20  C2  UNL     1      35.016   3.778  45.920  1.00  0.00     0.193 C 
BRANCH  20  21
HETATM   21  O1  UNL     1      35.268   3.159  47.155  1.00  0.00    -0.394 OA
HETATM   22  C1  UNL     1      34.078   2.883  47.825  1.00  0.00     0.201 C 
ENDBRANCH  20  21
ENDBRANCH  19  20
ENDBRANCH  18  19
ENDBRANCH   1  18
BRANCH   2  23
HETATM   23  C6  UNL     1      32.614   6.742  43.847  1.00  0.00     0.204 C 
BRANCH  23  24
HETATM   24  O3  UNL     1      33.826   6.967  43.238  1.00  0.00    -0.392 OA
HETATM   25  C7  UNL     1      34.390   5.895  42.600  1.00  0.00     0.201 C 
ENDBRANCH  23  24
ENDBRANCH   2  23
TORSDOF 6
ENDMDL
MODEL 6
REMARK VINA RESULT:      -5.7      8.419     10.086
REMARK  6 active torsions:
REMARK  status: ('A' for Active; 'I' for Inactive)
REMARK    1  A    between atoms: O1_2  and  C2_3 
REMARK    2  A    between atoms: C2_3  and  C3_4 
REMARK    3  A    between atoms: C3_4  and  O2_5 
REMARK    4  A    between atoms: O2_5  and  C4_6 
REMARK    5  A    between atoms: C5_7  and  C6_8 
REMARK    6  A    between atoms: C6_8  and  O3_9 
ROOT
HETATM    1  C4  UNL     1      32.488   6.583  47.086  1.00  0.00     0.076 C 
HETATM    2  C5  UNL     1      32.309   6.828  45.761  1.00  0.00    -0.018 C 
HETATM    3  C8  UNL     1      31.568   8.046  45.157  1.00  0.00     0.117 C 
HETATM    4  C9  UNL     1      31.488   9.078  46.226  1.00  0.00     0.112 C 
HETATM    5  N1  UNL     1      32.512   9.892  46.538  1.00  0.00    -0.229 NA
HETATM    6  C10 UNL     1      33.684   9.312  47.235  1.00  0.00     0.229 C 
HETATM    7  N2  UNL     1      33.886   8.329  48.100  1.00  0.00    -0.270 NA
HETATM    8  C11 UNL     1      33.150   7.100  48.315  1.00  0.00     0.174 C 
HETATM    9  C12 UNL     1      32.123   7.280  49.435  1.00  0.00     0.046 C 
HETATM   10  C13 UNL     1      31.734   5.983  50.052  1.00  0.00     0.017 C 
HETATM   11  C14 UNL     1      30.925   7.987  48.909  1.00  0.00    -0.052 C 
HETATM   12  C15 UNL     1      29.706   7.613  48.439  1.00  0.00     0.006 C 
HETATM   13  C16 UNL     1      29.180   8.553  47.358  1.00  0.00     0.110 C 
HETATM   14  C17 UNL     1      28.553   7.928  46.207  1.00  0.00     0.037 C 
HETATM   15  N3  UNL     1      30.426   9.315  47.151  1.00  0.00    -0.337 N 
HETATM   16  C18 UNL     1      30.373  10.315  48.240  1.00  0.00     0.093 C 
HETATM   17  C19 UNL     1      31.256   9.446  48.800  1.00  0.00     0.024 C 
ENDROOT
BRANCH   1  18
HETATM   18  O2  UNL     1      31.893   5.469  47.659  1.00  0.00    -0.351 OA
BRANCH  18  19
HETATM   19  C3  UNL     1      31.714   4.218  47.051  1.00  0.00     0.201 C 
BRANCH  19  20
HETATM   20  C2  UNL     1      32.732   3.197  47.577  1.00  0.00     0.193 C 
BRANCH  20  21
HETATM   21  O1  UNL     1      33.778   3.096  46.646  1.00  0.00    -0.394 OA
HETATM   22  C1  UNL     1      34.983   3.519  47.202  1.00  0.00     0.201 C 
ENDBRANCH  20  21
ENDBRANCH  19  20
ENDBRANCH  18  19
ENDBRANCH   1  18
BRANCH   2  23
HETATM   23  C6  UNL     1      32.786   5.978  44.697  1.00  0.00     0.204 C 
BRANCH  23  24
HETATM   24  O3  UNL     1      34.147   5.797  44.626  1.00  0.00    -0.392 OA
HETATM   25  C7  UNL     1      34.604   5.045  43.576  1.00  0.00     0.201 C 
ENDBRANCH  23  24
ENDBRANCH   2  23
TORSDOF 6
ENDMDL
MODEL 7
REMARK VINA RESULT:      -5.5      7.545      9.851
REMARK  6 active torsions:
REMARK  status: ('A' for Active; 'I' for Inactive)
REMARK    1  A    between atoms: O1_2  and  C2_3 
REMARK    2  A    between atoms: C2_3  and  C3_4 
REMARK    3  A    between atoms: C3_4  and  O2_5 
REMARK    4  A    between atoms: O2_5  and  C4_6 
REMARK    5  A    between atoms: C5_7  and  C6_8 
REMARK    6  A    between atoms: C6_8  and  O3_9 
ROOT
HETATM    1  C4  UNL     1      31.244   7.977  48.329  1.00  0.00     0.076 C 
HETATM    2  C5  UNL     1      32.483   8.443  48.016  1.00  0.00    -0.018 C 
HETATM    3  C8  UNL     1      32.794   9.591  47.026  1.00  0.00     0.117 C 
HETATM    4  C9  UNL     1      31.531  10.353  46.834  1.00  0.00     0.112 C 
HETATM    5  N1  UNL     1      31.087  11.270  47.713  1.00  0.00    -0.229 NA
HETATM    6  C10 UNL     1      30.564  10.799  49.016  1.00  0.00     0.229 C 
HETATM    7  N2  UNL     1      29.930   9.721  49.454  1.00  0.00    -0.270 NA
HETATM    8  C11 UNL     1      29.955   8.355  48.971  1.00  0.00     0.174 C 
HETATM    9  C12 UNL     1      28.791   8.107  48.009  1.00  0.00     0.046 C 
HETATM   10  C13 UNL     1      28.447   6.662  47.907  1.00  0.00     0.017 C 
HETATM   11  C14 UNL     1      29.120   8.661  46.669  1.00  0.00    -0.052 C 
HETATM   12  C15 UNL     1      29.620   8.161  45.508  1.00  0.00     0.006 C 
HETATM   13  C16 UNL     1      30.463   9.179  44.745  1.00  0.00     0.110 C 
HETATM   14  C17 UNL     1      31.700   8.688  44.164  1.00  0.00     0.037 C 
HETATM   15  N3  UNL     1      30.544  10.192  45.815  1.00  0.00    -0.337 N 
HETATM   16  C18 UNL     1      29.269  10.925  45.657  1.00  0.00     0.093 C 
HETATM   17  C19 UNL     1      28.931  10.149  46.721  1.00  0.00     0.024 C 
ENDROOT
BRANCH   1  18
HETATM   18  O2  UNL     1      30.899   6.678  47.988  1.00  0.00    -0.351 OA
BRANCH  18  19
HETATM   19  C3  UNL     1      31.424   5.505  48.549  1.00  0.00     0.201 C 
BRANCH  19  20
HETATM   20  C2  UNL     1      31.788   4.486  47.460  1.00  0.00     0.193 C 
BRANCH  20  21
HETATM   21  O1  UNL     1      32.752   3.608  47.981  1.00  0.00    -0.394 OA
HETATM   22  C1  UNL     1      33.076   2.619  47.056  1.00  0.00     0.201 C 
ENDBRANCH  20  21
ENDBRANCH  19  20
ENDBRANCH  18  19
ENDBRANCH   1  18
BRANCH   2  23
HETATM   23  C6  UNL     1      33.715   7.930  48.564  1.00  0.00     0.204 C 
BRANCH  23  24
HETATM   24  O3  UNL     1      34.419   7.060  47.767  1.00  0.00    -0.392 OA
HETATM   25  C7  UNL     1      35.209   6.148  48.416  1.00  0.00     0.201 C 
ENDBRANCH  23  24
ENDBRANCH   2  23
TORSDOF 6
ENDMDL
MODEL 8
REMARK VINA RESULT:      -5.5      8.746     11.233
REMARK  6 active torsions:
REMARK  status: ('A' for Active; 'I' for Inactive)
REMARK    1  A    between atoms: O1_2  and  C2_3 
REMARK    2  A    between atoms: C2_3  and  C3_4 
REMARK    3  A    between atoms: C3_4  and  O2_5 
REMARK    4  A    between atoms: O2_5  and  C4_6 
REMARK    5  A    between atoms: C5_7  and  C6_8 
REMARK    6  A    between atoms: C6_8  and  O3_9 
ROOT
HETATM    1  C4  UNL     1      33.589   6.230  45.916  1.00  0.00     0.076 C 
HETATM    2  C5  UNL     1      33.362   7.548  45.676  1.00  0.00    -0.018 C 
HETATM    3  C8  UNL     1      32.625   8.527  46.622  1.00  0.00     0.117 C 
HETATM    4  C9  UNL     1      32.611   7.899  47.970  1.00  0.00     0.112 C 
HETATM    5  N1  UNL     1      33.665   7.931  48.806  1.00  0.00    -0.229 NA
HETATM    6  C10 UNL     1      34.850   7.107  48.473  1.00  0.00     0.229 C 
HETATM    7  N2  UNL     1      35.065   5.953  47.859  1.00  0.00    -0.270 NA
HETATM    8  C11 UNL     1      34.312   5.289  46.816  1.00  0.00     0.174 C 
HETATM    9  C12 UNL     1      33.335   4.279  47.422  1.00  0.00     0.046 C 
HETATM   10  C13 UNL     1      32.943   3.225  46.447  1.00  0.00     0.017 C 
HETATM   11  C14 UNL     1      32.133   4.988  47.936  1.00  0.00    -0.052 C 
HETATM   12  C15 UNL     1      30.888   5.256  47.461  1.00  0.00     0.006 C 
HETATM   13  C16 UNL     1      30.339   6.586  47.969  1.00  0.00     0.110 C 
HETATM   14  C17 UNL     1      29.653   7.416  46.995  1.00  0.00     0.037 C 
HETATM   15  N3  UNL     1      31.593   7.090  48.561  1.00  0.00    -0.337 N 
HETATM   16  C18 UNL     1      31.606   6.432  49.886  1.00  0.00     0.093 C 
HETATM   17  C19 UNL     1      32.492   5.624  49.246  1.00  0.00     0.024 C 
ENDROOT
BRANCH   1  18
HETATM   18  O2  UNL     1      32.993   5.277  45.104  1.00  0.00    -0.351 OA
BRANCH  18  19
HETATM   19  C3  UNL     1      32.993   5.264  43.701  1.00  0.00     0.201 C 
BRANCH  19  20
HETATM   20  C2  UNL     1      34.357   4.825  43.153  1.00  0.00     0.193 C 
BRANCH  20  21
HETATM   21  O1  UNL     1      34.681   5.650  42.064  1.00  0.00    -0.394 OA
HETATM   22  C1  UNL     1      35.915   6.266  42.255  1.00  0.00     0.201 C 
ENDBRANCH  20  21
ENDBRANCH  19  20
ENDBRANCH  18  19
ENDBRANCH   1  18
BRANCH   2  23
HETATM   23  C6  UNL     1      33.777   8.249  44.484  1.00  0.00     0.204 C 
BRANCH  23  24
HETATM   24  O3  UNL     1      34.327   9.494  44.672  1.00  0.00    -0.392 OA
HETATM   25  C7  UNL     1      35.687   9.581  44.535  1.00  0.00     0.201 C 
ENDBRANCH  23  24
ENDBRANCH   2  23
TORSDOF 6
ENDMDL
MODEL 9
REMARK VINA RESULT:      -5.4      3.028      4.817
REMARK  6 active torsions:
REMARK  status: ('A' for Active; 'I' for Inactive)
REMARK    1  A    between atoms: O1_2  and  C2_3 
REMARK    2  A    between atoms: C2_3  and  C3_4 
REMARK    3  A    between atoms: C3_4  and  O2_5 
REMARK    4  A    between atoms: O2_5  and  C4_6 
REMARK    5  A    between atoms: C5_7  and  C6_8 
REMARK    6  A    between atoms: C6_8  and  O3_9 
ROOT
HETATM    1  C4  UNL     1      21.489   4.720  51.121  1.00  0.00     0.076 C 
HETATM    2  C5  UNL     1      20.757   5.243  50.102  1.00  0.00    -0.018 C 
HETATM    3  C8  UNL     1      20.070   4.436  48.973  1.00  0.00     0.117 C 
HETATM    4  C9  UNL     1      19.982   3.026  49.441  1.00  0.00     0.112 C 
HETATM    5  N1  UNL     1      19.033   2.593  50.290  1.00  0.00    -0.229 NA
HETATM    6  C10 UNL     1      19.108   3.020  51.706  1.00  0.00     0.229 C 
HETATM    7  N2  UNL     1      20.076   3.318  52.560  1.00  0.00    -0.270 NA
HETATM    8  C11 UNL     1      21.402   3.853  52.328  1.00  0.00     0.174 C 
HETATM    9  C12 UNL     1      22.428   2.720  52.243  1.00  0.00     0.046 C 
HETATM   10  C13 UNL     1      23.808   3.192  52.541  1.00  0.00     0.017 C 
HETATM   11  C14 UNL     1      22.371   2.091  50.897  1.00  0.00    -0.052 C 
HETATM   12  C15 UNL     1      23.062   2.223  49.734  1.00  0.00     0.006 C 
HETATM   13  C16 UNL     1      22.193   1.970  48.504  1.00  0.00     0.110 C 
HETATM   14  C17 UNL     1      22.370   2.885  47.390  1.00  0.00     0.037 C 
HETATM   15  N3  UNL     1      20.891   1.952  49.197  1.00  0.00    -0.337 N 
HETATM   16  C18 UNL     1      20.818   0.564  49.702  1.00  0.00     0.093 C 
HETATM   17  C19 UNL     1      21.175   1.186  50.857  1.00  0.00     0.024 C 
ENDROOT
BRANCH   1  18
HETATM   18  O2  UNL     1      22.842   5.010  51.207  1.00  0.00    -0.351 OA
BRANCH  18  19
HETATM   19  C3  UNL     1      23.595   5.741  50.277  1.00  0.00     0.201 C 
BRANCH  19  20
HETATM   20  C2  UNL     1      24.421   6.833  50.971  1.00  0.00     0.193 C 
BRANCH  20  21
HETATM   21  O1  UNL     1      23.726   8.048  50.863  1.00  0.00    -0.394 OA
HETATM   22  C1  UNL     1      23.704   8.494  49.544  1.00  0.00     0.201 C 
ENDBRANCH  20  21
ENDBRANCH  19  20
ENDBRANCH  18  19
ENDBRANCH   1  18
BRANCH   2  23
HETATM   23  C6  UNL     1      20.507   6.651  49.909  1.00  0.00     0.204 C 
BRANCH  23  24
HETATM   24  O3  UNL     1      19.297   6.982  49.348  1.00  0.00    -0.392 OA
HETATM   25  C7  UNL     1      19.270   8.129  48.600  1.00  0.00     0.201 C 
ENDBRANCH  23  24
ENDBRANCH   2  23
TORSDOF 6
ENDMDL
