MODEL 1
REMARK VINA RESULT:      -7.0      0.000      0.000
REMARK  7 active torsions:
REMARK  status: ('A' for Active; 'I' for Inactive)
REMARK    1  A    between atoms: O1_2  and  C2_3 
REMARK    2  A    between atoms: C3_4  and  O2_5 
REMARK    3  A    between atoms: C5_7  and  O3_8 
REMARK    4  A    between atoms: C7_10  and  N1_11 
REMARK    5  A    between atoms: N1_11  and  C8_12 
REMARK    6  A    between atoms: C12_18  and  O4_19 
REMARK    7  A    between atoms: C14_21  and  O5_22 
ROOT
HETATM    1  C8  UNL     1      22.469  -0.153  52.875  1.00  0.00     0.140 C 
HETATM    2  N2  UNL     1      21.658  -0.897  53.651  1.00  0.00    -0.224 NA
HETATM    3  C9  UNL     1      21.820  -1.405  54.884  1.00  0.00     0.234 C 
HETATM    4  N3  UNL     1      22.969  -1.594  55.557  1.00  0.00    -0.253 NA
HETATM    5  C10 UNL     1      24.234  -1.273  55.233  1.00  0.00     0.133 C 
HETATM    6  C11 UNL     1      24.631  -0.396  54.224  1.00  0.00     0.032 A 
HETATM    7  C12 UNL     1      25.869   0.197  54.000  1.00  0.00     0.114 A 
HETATM    8  C14 UNL     1      25.781   0.989  52.874  1.00  0.00     0.103 A 
HETATM    9  C16 UNL     1      24.502   0.955  52.315  1.00  0.00     0.056 A 
HETATM   10  C17 UNL     1      23.796   0.108  53.141  1.00  0.00     0.027 A 
ENDROOT
BRANCH   1  11
HETATM   11  N1  UNL     1      21.797   0.348  51.730  1.00  0.00    -0.341 N 
HETATM   12  H10 UNL     1      21.906  -0.073  50.762  1.00  0.00     0.167 HD
BRANCH  11  13
HETATM   13  C7  UNL     1      20.908   1.455  51.725  1.00  0.00     0.053 A 
HETATM   14  C5  UNL     1      19.626   1.641  51.957  1.00  0.00     0.127 A 
HETATM   15  C3  UNL     1      19.248   3.062  51.794  1.00  0.00     0.133 A 
HETATM   16  C2  UNL     1      20.349   3.726  51.458  1.00  0.00     0.087 A 
HETATM   17  C18 UNL     1      21.495   2.781  51.384  1.00  0.00     0.127 A 
BRANCH  14  18
HETATM   18  O3  UNL     1      18.816   0.570  52.302  1.00  0.00    -0.351 OA
HETATM   19  C6  UNL     1      18.120  -0.195  51.350  1.00  0.00     0.210 C 
ENDBRANCH  14  18
BRANCH  15  20
HETATM   20  O2  UNL     1      17.969   3.566  51.970  1.00  0.00    -0.351 OA
HETATM   21  C4  UNL     1      17.080   3.859  50.922  1.00  0.00     0.210 C 
ENDBRANCH  15  20
BRANCH  16  22
HETATM   22  O1  UNL     1      20.700   5.030  51.166  1.00  0.00    -0.357 OA
HETATM   23  C1  UNL     1      21.950   5.606  51.468  1.00  0.00     0.209 C 
ENDBRANCH  16  22
ENDBRANCH  11  13
ENDBRANCH   1  11
BRANCH   7  24
HETATM   24  O4  UNL     1      26.945  -0.040  54.832  1.00  0.00    -0.352 OA
HETATM   25  C13 UNL     1      28.174  -0.455  54.263  1.00  0.00     0.210 C 
ENDBRANCH   7  24
BRANCH   8  26
HETATM   26  O5  UNL     1      26.876   1.706  52.414  1.00  0.00    -0.353 OA
HETATM   27  C15 UNL     1      26.852   2.601  51.342  1.00  0.00     0.210 C 
ENDBRANCH   8  26
TORSDOF 7
ENDMDL
MODEL 2
REMARK VINA RESULT:      -6.9      1.003      2.478
REMARK  7 active torsions:
REMARK  status: ('A' for Active; 'I' for Inactive)
REMARK    1  A    between atoms: O1_2  and  C2_3 
REMARK    2  A    between atoms: C3_4  and  O2_5 
REMARK    3  A    between atoms: C5_7  and  O3_8 
REMARK    4  A    between atoms: C7_10  and  N1_11 
REMARK    5  A    between atoms: N1_11  and  C8_12 
REMARK    6  A    between atoms: C12_18  and  O4_19 
REMARK    7  A    between atoms: C14_21  and  O5_22 
ROOT
HETATM    1  C8  UNL     1      22.389  -0.348  52.879  1.00  0.00     0.140 C 
HETATM    2  N2  UNL     1      21.672  -1.133  53.707  1.00  0.00    -0.224 NA
HETATM    3  C9  UNL     1      21.905  -1.554  54.961  1.00  0.00     0.234 C 
HETATM    4  N3  UNL     1      23.076  -1.583  55.622  1.00  0.00    -0.253 NA
HETATM    5  C10 UNL     1      24.295  -1.145  55.259  1.00  0.00     0.133 C 
HETATM    6  C11 UNL     1      24.581  -0.285  54.198  1.00  0.00     0.032 A 
HETATM    7  C12 UNL     1      25.744   0.425  53.921  1.00  0.00     0.114 A 
HETATM    8  C14 UNL     1      25.556   1.142  52.758  1.00  0.00     0.103 A 
HETATM    9  C16 UNL     1      24.281   0.941  52.225  1.00  0.00     0.056 A 
HETATM   10  C17 UNL     1      23.683   0.068  53.106  1.00  0.00     0.027 A 
ENDROOT
BRANCH   1  11
HETATM   11  N1  UNL     1      21.651   0.016  51.722  1.00  0.00    -0.341 N 
HETATM   12  H10 UNL     1      21.915  -0.296  50.743  1.00  0.00     0.167 HD
BRANCH  11  13
HETATM   13  C7  UNL     1      20.487   0.829  51.720  1.00  0.00     0.053 A 
HETATM   14  C5  UNL     1      20.217   2.098  51.943  1.00  0.00     0.127 A 
HETATM   15  C3  UNL     1      18.773   2.378  51.790  1.00  0.00     0.133 A 
HETATM   16  C2  UNL     1      18.182   1.233  51.464  1.00  0.00     0.087 A 
HETATM   17  C18 UNL     1      19.202   0.153  51.388  1.00  0.00     0.127 A 
BRANCH  14  18
HETATM   18  O3  UNL     1      21.234   2.980  52.276  1.00  0.00    -0.351 OA
HETATM   19  C6  UNL     1      21.939   3.725  51.316  1.00  0.00     0.210 C 
ENDBRANCH  14  18
BRANCH  15  20
HETATM   20  O2  UNL     1      18.186   3.622  51.962  1.00  0.00    -0.351 OA
HETATM   21  C4  UNL     1      17.535   4.340  50.945  1.00  0.00     0.210 C 
ENDBRANCH  15  20
BRANCH  16  22
HETATM   22  O1  UNL     1      16.902   0.794  51.185  1.00  0.00    -0.357 OA
HETATM   23  C1  UNL     1      15.773   1.069  51.983  1.00  0.00     0.209 C 
ENDBRANCH  16  22
ENDBRANCH  11  13
ENDBRANCH   1  11
BRANCH   7  24
HETATM   24  O4  UNL     1      26.850   0.350  54.745  1.00  0.00    -0.352 OA
HETATM   25  C13 UNL     1      28.052  -0.197  54.231  1.00  0.00     0.210 C 
ENDBRANCH   7  24
BRANCH   8  26
HETATM   26  O5  UNL     1      26.562   1.947  52.242  1.00  0.00    -0.353 OA
HETATM   27  C15 UNL     1      26.450   2.719  51.082  1.00  0.00     0.210 C 
ENDBRANCH   8  26
TORSDOF 7
ENDMDL
MODEL 3
REMARK VINA RESULT:      -6.8      3.347      7.109
REMARK  7 active torsions:
REMARK  status: ('A' for Active; 'I' for Inactive)
REMARK    1  A    between atoms: O1_2  and  C2_3 
REMARK    2  A    between atoms: C3_4  and  O2_5 
REMARK    3  A    between atoms: C5_7  and  O3_8 
REMARK    4  A    between atoms: C7_10  and  N1_11 
REMARK    5  A    between atoms: N1_11  and  C8_12 
REMARK    6  A    between atoms: C12_18  and  O4_19 
REMARK    7  A    between atoms: C14_21  and  O5_22 
ROOT
HETATM    1  C8  UNL     1      24.540   3.281  50.845  1.00  0.00     0.140 C 
HETATM    2  N2  UNL     1      23.425   3.672  51.492  1.00  0.00    -0.224 NA
HETATM    3  C9  UNL     1      22.792   4.856  51.544  1.00  0.00     0.234 C 
HETATM    4  N3  UNL     1      23.278   6.070  51.230  1.00  0.00    -0.253 NA
HETATM    5  C10 UNL     1      24.471   6.429  50.722  1.00  0.00     0.133 C 
HETATM    6  C11 UNL     1      25.403   5.581  50.125  1.00  0.00     0.032 A 
HETATM    7  C12 UNL     1      26.511   5.890  49.344  1.00  0.00     0.114 A 
HETATM    8  C14 UNL     1      27.135   4.715  48.980  1.00  0.00     0.103 A 
HETATM    9  C16 UNL     1      26.477   3.596  49.496  1.00  0.00     0.056 A 
HETATM   10  C17 UNL     1      25.416   4.125  50.198  1.00  0.00     0.027 A 
ENDROOT
BRANCH   1  11
HETATM   11  N1  UNL     1      24.719   1.874  50.898  1.00  0.00    -0.341 N 
HETATM   12  H10 UNL     1      24.476   1.227  50.093  1.00  0.00     0.167 HD
BRANCH  11  13
HETATM   13  C7  UNL     1      25.235   1.158  52.010  1.00  0.00     0.053 A 
HETATM   14  C5  UNL     1      24.761   0.724  53.160  1.00  0.00     0.127 A 
HETATM   15  C3  UNL     1      25.801   0.018  53.940  1.00  0.00     0.133 A 
HETATM   16  C2  UNL     1      26.917   0.039  53.219  1.00  0.00     0.087 A 
HETATM   17  C18 UNL     1      26.667   0.756  51.940  1.00  0.00     0.127 A 
BRANCH  14  18
HETATM   18  O3  UNL     1      23.438   0.956  53.503  1.00  0.00    -0.351 OA
HETATM   19  C6  UNL     1      22.371   0.228  52.949  1.00  0.00     0.210 C 
ENDBRANCH  14  18
BRANCH  15  20
HETATM   20  O2  UNL     1      25.604  -0.549  55.189  1.00  0.00    -0.351 OA
HETATM   21  C4  UNL     1      24.484  -1.320  55.543  1.00  0.00     0.210 C 
ENDBRANCH  15  20
BRANCH  16  22
HETATM   22  O1  UNL     1      28.215  -0.416  53.342  1.00  0.00    -0.357 OA
HETATM   23  C1  UNL     1      29.094  -0.051  54.382  1.00  0.00     0.209 C 
ENDBRANCH  16  22
ENDBRANCH  11  13
ENDBRANCH   1  11
BRANCH   7  24
HETATM   24  O4  UNL     1      26.842   7.196  49.043  1.00  0.00    -0.352 OA
HETATM   25  C13 UNL     1      26.449   7.733  47.793  1.00  0.00     0.210 C 
ENDBRANCH   7  24
BRANCH   8  26
HETATM   26  O5  UNL     1      28.277   4.724  48.191  1.00  0.00    -0.353 OA
HETATM   27  C15 UNL     1      29.406   5.512  48.429  1.00  0.00     0.210 C 
ENDBRANCH   8  26
TORSDOF 7
ENDMDL
MODEL 4
REMARK VINA RESULT:      -6.8      3.981      6.740
REMARK  7 active torsions:
REMARK  status: ('A' for Active; 'I' for Inactive)
REMARK    1  A    between atoms: O1_2  and  C2_3 
REMARK    2  A    between atoms: C3_4  and  O2_5 
REMARK    3  A    between atoms: C5_7  and  O3_8 
REMARK    4  A    between atoms: C7_10  and  N1_11 
REMARK    5  A    between atoms: N1_11  and  C8_12 
REMARK    6  A    between atoms: C12_18  and  O4_19 
REMARK    7  A    between atoms: C14_21  and  O5_22 
ROOT
HETATM    1  C8  UNL     1      25.976   2.616  50.872  1.00  0.00     0.140 C 
HETATM    2  N2  UNL     1      27.159   2.599  51.516  1.00  0.00    -0.224 NA
HETATM    3  C9  UNL     1      27.554   1.980  52.642  1.00  0.00     0.234 C 
HETATM    4  N3  UNL     1      26.785   1.473  53.622  1.00  0.00    -0.253 NA
HETATM    5  C10 UNL     1      25.447   1.374  53.721  1.00  0.00     0.133 C 
HETATM    6  C11 UNL     1      24.529   1.525  52.681  1.00  0.00     0.032 A 
HETATM    7  C12 UNL     1      23.183   1.178  52.629  1.00  0.00     0.114 A 
HETATM    8  C14 UNL     1      22.687   1.523  51.389  1.00  0.00     0.103 A 
HETATM    9  C16 UNL     1      23.668   2.103  50.581  1.00  0.00     0.056 A 
HETATM   10  C17 UNL     1      24.797   2.105  51.371  1.00  0.00     0.027 A 
ENDROOT
BRANCH   1  11
HETATM   11  N1  UNL     1      26.075   3.226  49.595  1.00  0.00    -0.341 N 
HETATM   12  H10 UNL     1      25.919   2.700  48.687  1.00  0.00     0.167 HD
BRANCH  11  13
HETATM   13  C7  UNL     1      26.389   4.591  49.365  1.00  0.00     0.053 A 
HETATM   14  C5  UNL     1      25.850   5.752  49.673  1.00  0.00     0.127 A 
HETATM   15  C3  UNL     1      26.652   6.877  49.144  1.00  0.00     0.133 A 
HETATM   16  C2  UNL     1      27.694   6.353  48.508  1.00  0.00     0.087 A 
HETATM   17  C18 UNL     1      27.629   4.869  48.588  1.00  0.00     0.127 A 
BRANCH  14  18
HETATM   18  O3  UNL     1      24.673   5.804  50.404  1.00  0.00    -0.351 OA
HETATM   19  C6  UNL     1      23.403   5.775  49.804  1.00  0.00     0.210 C 
ENDBRANCH  14  18
BRANCH  15  20
HETATM   20  O2  UNL     1      26.337   8.217  49.306  1.00  0.00    -0.351 OA
HETATM   21  C4  UNL     1      27.068   9.113  50.105  1.00  0.00     0.210 C 
ENDBRANCH  15  20
BRANCH  16  22
HETATM   22  O1  UNL     1      28.795   6.812  47.810  1.00  0.00    -0.357 OA
HETATM   23  C1  UNL     1      30.133   6.545  48.166  1.00  0.00     0.209 C 
ENDBRANCH  16  22
ENDBRANCH  11  13
ENDBRANCH   1  11
BRANCH   7  24
HETATM   24  O4  UNL     1      22.546   0.589  53.703  1.00  0.00    -0.352 OA
HETATM   25  C13 UNL     1      22.391  -0.818  53.722  1.00  0.00     0.210 C 
ENDBRANCH   7  24
BRANCH   8  26
HETATM   26  O5  UNL     1      21.361   1.289  51.057  1.00  0.00    -0.353 OA
HETATM   27  C15 UNL     1      20.269   1.969  51.604  1.00  0.00     0.210 C 
ENDBRANCH   8  26
TORSDOF 7
ENDMDL
MODEL 5
REMARK VINA RESULT:      -6.7      3.276      5.158
REMARK  7 active torsions:
REMARK  status: ('A' for Active; 'I' for Inactive)
REMARK    1  A    between atoms: O1_2  and  C2_3 
REMARK    2  A    between atoms: C3_4  and  O2_5 
REMARK    3  A    between atoms: C5_7  and  O3_8 
REMARK    4  A    between atoms: C7_10  and  N1_11 
REMARK    5  A    between atoms: N1_11  and  C8_12 
REMARK    6  A    between atoms: C12_18  and  O4_19 
REMARK    7  A    between atoms: C14_21  and  O5_22 
ROOT
HETATM    1  C8  UNL     1      26.245   1.921  52.034  1.00  0.00     0.140 C 
HETATM    2  N2  UNL     1      27.476   2.426  52.245  1.00  0.00    -0.224 NA
HETATM    3  C9  UNL     1      28.464   2.053  53.076  1.00  0.00     0.234 C 
HETATM    4  N3  UNL     1      28.377   1.273  54.168  1.00  0.00    -0.253 NA
HETATM    5  C10 UNL     1      27.330   0.604  54.684  1.00  0.00     0.133 C 
HETATM    6  C11 UNL     1      26.125   0.331  54.036  1.00  0.00     0.032 A 
HETATM    7  C12 UNL     1      25.119  -0.567  54.376  1.00  0.00     0.114 A 
HETATM    8  C14 UNL     1      24.117  -0.485  53.432  1.00  0.00     0.103 A 
HETATM    9  C16 UNL     1      24.414   0.455  52.441  1.00  0.00     0.056 A 
HETATM   10  C17 UNL     1      25.643   0.954  52.810  1.00  0.00     0.027 A 
ENDROOT
BRANCH   1  11
HETATM   11  N1  UNL     1      25.622   2.500  50.898  1.00  0.00    -0.341 N 
HETATM   12  H10 UNL     1      25.373   1.947  50.027  1.00  0.00     0.167 HD
BRANCH  11  13
HETATM   13  C7  UNL     1      25.254   3.866  50.777  1.00  0.00     0.053 A 
HETATM   14  C5  UNL     1      24.366   4.661  51.336  1.00  0.00     0.127 A 
HETATM   15  C3  UNL     1      24.450   6.033  50.789  1.00  0.00     0.133 A 
HETATM   16  C2  UNL     1      25.421   6.037  49.883  1.00  0.00     0.087 A 
HETATM   17  C18 UNL     1      26.018   4.679  49.790  1.00  0.00     0.127 A 
BRANCH  14  18
HETATM   18  O3  UNL     1      23.504   4.173  52.305  1.00  0.00    -0.351 OA
HETATM   19  C6  UNL     1      22.233   3.655  52.002  1.00  0.00     0.210 C 
ENDBRANCH  14  18
BRANCH  15  20
HETATM   20  O2  UNL     1      23.644   7.091  51.181  1.00  0.00    -0.351 OA
HETATM   21  C4  UNL     1      22.738   7.754  50.335  1.00  0.00     0.210 C 
ENDBRANCH  15  20
BRANCH  16  22
HETATM   22  O1  UNL     1      26.007   6.949  49.025  1.00  0.00    -0.357 OA
HETATM   23  C1  UNL     1      26.829   8.018  49.438  1.00  0.00     0.209 C 
ENDBRANCH  16  22
ENDBRANCH  11  13
ENDBRANCH   1  11
BRANCH   7  24
HETATM   24  O4  UNL     1      25.210  -1.362  55.501  1.00  0.00    -0.352 OA
HETATM   25  C13 UNL     1      24.858  -0.814  56.759  1.00  0.00     0.210 C 
ENDBRANCH   7  24
BRANCH   8  26
HETATM   26  O5  UNL     1      22.980  -1.275  53.521  1.00  0.00    -0.353 OA
HETATM   27  C15 UNL     1      21.921  -1.052  54.405  1.00  0.00     0.210 C 
ENDBRANCH   8  26
TORSDOF 7
ENDMDL
MODEL 6
REMARK VINA RESULT:      -6.7      2.480      3.414
REMARK  7 active torsions:
REMARK  status: ('A' for Active; 'I' for Inactive)
REMARK    1  A    between atoms: O1_2  and  C2_3 
REMARK    2  A    between atoms: C3_4  and  O2_5 
REMARK    3  A    between atoms: C5_7  and  O3_8 
REMARK    4  A    between atoms: C7_10  and  N1_11 
REMARK    5  A    between atoms: N1_11  and  C8_12 
REMARK    6  A    between atoms: C12_18  and  O4_19 
REMARK    7  A    between atoms: C14_21  and  O5_22 
ROOT
HETATM    1  C8  UNL     1      23.005   1.998  52.592  1.00  0.00     0.140 C 
HETATM    2  N2  UNL     1      21.973   1.157  52.387  1.00  0.00    -0.224 NA
HETATM    3  C9  UNL     1      21.776  -0.121  52.752  1.00  0.00     0.234 C 
HETATM    4  N3  UNL     1      22.695  -1.023  53.138  1.00  0.00    -0.253 NA
HETATM    5  C10 UNL     1      24.020  -0.892  53.335  1.00  0.00     0.133 C 
HETATM    6  C11 UNL     1      24.721   0.307  53.458  1.00  0.00     0.032 A 
HETATM    7  C12 UNL     1      26.010   0.536  53.926  1.00  0.00     0.114 A 
HETATM    8  C14 UNL     1      26.270   1.889  53.859  1.00  0.00     0.103 A 
HETATM    9  C16 UNL     1      25.180   2.601  53.352  1.00  0.00     0.056 A 
HETATM   10  C17 UNL     1      24.231   1.633  53.106  1.00  0.00     0.027 A 
ENDROOT
BRANCH   1  11
HETATM   11  N1  UNL     1      22.688   3.330  52.220  1.00  0.00    -0.341 N 
HETATM   12  H10 UNL     1      22.343   4.059  52.909  1.00  0.00     0.167 HD
BRANCH  11  13
HETATM   13  C7  UNL     1      22.787   3.854  50.904  1.00  0.00     0.053 A 
HETATM   14  C5  UNL     1      22.005   3.910  49.846  1.00  0.00     0.127 A 
HETATM   15  C3  UNL     1      22.670   4.605  48.721  1.00  0.00     0.133 A 
HETATM   16  C2  UNL     1      23.878   4.966  49.139  1.00  0.00     0.087 A 
HETATM   17  C18 UNL     1      24.065   4.531  50.549  1.00  0.00     0.127 A 
BRANCH  14  18
HETATM   18  O3  UNL     1      20.736   3.355  49.884  1.00  0.00    -0.351 OA
HETATM   19  C6  UNL     1      20.448   2.079  49.370  1.00  0.00     0.210 C 
ENDBRANCH  14  18
BRANCH  15  20
HETATM   20  O2  UNL     1      22.100   4.818  47.475  1.00  0.00    -0.351 OA
HETATM   21  C4  UNL     1      21.913   3.818  46.506  1.00  0.00     0.210 C 
ENDBRANCH  15  20
BRANCH  16  22
HETATM   22  O1  UNL     1      24.978   5.623  48.623  1.00  0.00    -0.357 OA
HETATM   23  C1  UNL     1      26.312   5.362  48.998  1.00  0.00     0.209 C 
ENDBRANCH  16  22
ENDBRANCH  11  13
ENDBRANCH   1  11
BRANCH   7  24
HETATM   24  O4  UNL     1      26.815  -0.497  54.363  1.00  0.00    -0.352 OA
HETATM   25  C13 UNL     1      27.760  -1.056  53.468  1.00  0.00     0.210 C 
ENDBRANCH   7  24
BRANCH   8  26
HETATM   26  O5  UNL     1      27.491   2.406  54.266  1.00  0.00    -0.353 OA
HETATM   27  C15 UNL     1      28.638   2.467  53.470  1.00  0.00     0.210 C 
ENDBRANCH   8  26
TORSDOF 7
ENDMDL
MODEL 7
REMARK VINA RESULT:      -6.7      3.009      4.729
REMARK  7 active torsions:
REMARK  status: ('A' for Active; 'I' for Inactive)
REMARK    1  A    between atoms: O1_2  and  C2_3 
REMARK    2  A    between atoms: C3_4  and  O2_5 
REMARK    3  A    between atoms: C5_7  and  O3_8 
REMARK    4  A    between atoms: C7_10  and  N1_11 
REMARK    5  A    between atoms: N1_11  and  C8_12 
REMARK    6  A    between atoms: C12_18  and  O4_19 
REMARK    7  A    between atoms: C14_21  and  O5_22 
ROOT
HETATM    1  C8  UNL     1      23.601   2.945  52.745  1.00  0.00     0.140 C 
HETATM    2  N2  UNL     1      22.351   2.578  52.400  1.00  0.00    -0.224 NA
HETATM    3  C9  UNL     1      21.702   1.407  52.510  1.00  0.00     0.234 C 
HETATM    4  N3  UNL     1      22.228   0.182  52.691  1.00  0.00    -0.253 NA
HETATM    5  C10 UNL     1      23.503  -0.202  52.882  1.00  0.00     0.133 C 
HETATM    6  C11 UNL     1      24.572   0.626  53.224  1.00  0.00     0.032 A 
HETATM    7  C12 UNL     1      25.836   0.292  53.701  1.00  0.00     0.114 A 
HETATM    8  C14 UNL     1      26.554   1.453  53.895  1.00  0.00     0.103 A 
HETATM    9  C16 UNL     1      25.809   2.586  53.562  1.00  0.00     0.056 A 
HETATM   10  C17 UNL     1      24.595   2.081  53.151  1.00  0.00     0.027 A 
ENDROOT
BRANCH   1  11
HETATM   11  N1  UNL     1      23.787   4.349  52.649  1.00  0.00    -0.341 N 
HETATM   12  H10 UNL     1      23.925   4.976  53.494  1.00  0.00     0.167 HD
BRANCH  11  13
HETATM   13  C7  UNL     1      23.815   5.087  51.436  1.00  0.00     0.053 A 
HETATM   14  C5  UNL     1      24.640   5.201  50.416  1.00  0.00     0.127 A 
HETATM   15  C3  UNL     1      24.124   6.156  49.410  1.00  0.00     0.133 A 
HETATM   16  C2  UNL     1      22.959   6.610  49.859  1.00  0.00     0.087 A 
HETATM   17  C18 UNL     1      22.655   5.982  51.172  1.00  0.00     0.127 A 
BRANCH  14  18
HETATM   18  O3  UNL     1      25.820   4.475  50.387  1.00  0.00    -0.351 OA
HETATM   19  C6  UNL     1      25.963   3.286  49.651  1.00  0.00     0.210 C 
ENDBRANCH  14  18
BRANCH  15  20
HETATM   20  O2  UNL     1      24.770   6.485  48.229  1.00  0.00    -0.351 OA
HETATM   21  C4  UNL     1      25.967   7.217  48.156  1.00  0.00     0.210 C 
ENDBRANCH  15  20
BRANCH  16  22
HETATM   22  O1  UNL     1      21.982   7.491  49.438  1.00  0.00    -0.357 OA
HETATM   23  C1  UNL     1      21.152   7.285  48.317  1.00  0.00     0.209 C 
ENDBRANCH  16  22
ENDBRANCH  11  13
ENDBRANCH   1  11
BRANCH   7  24
HETATM   24  O4  UNL     1      26.206  -1.022  53.908  1.00  0.00    -0.352 OA
HETATM   25  C13 UNL     1      26.915  -1.704  52.889  1.00  0.00     0.210 C 
ENDBRANCH   7  24
BRANCH   8  26
HETATM   26  O5  UNL     1      27.857   1.419  54.370  1.00  0.00    -0.353 OA
HETATM   27  C15 UNL     1      28.927   2.131  53.820  1.00  0.00     0.210 C 
ENDBRANCH   8  26
TORSDOF 7
ENDMDL
MODEL 8
REMARK VINA RESULT:      -6.6      3.526      7.580
REMARK  7 active torsions:
REMARK  status: ('A' for Active; 'I' for Inactive)
REMARK    1  A    between atoms: O1_2  and  C2_3 
REMARK    2  A    between atoms: C3_4  and  O2_5 
REMARK    3  A    between atoms: C5_7  and  O3_8 
REMARK    4  A    between atoms: C7_10  and  N1_11 
REMARK    5  A    between atoms: N1_11  and  C8_12 
REMARK    6  A    between atoms: C12_18  and  O4_19 
REMARK    7  A    between atoms: C14_21  and  O5_22 
ROOT
HETATM    1  C8  UNL     1      24.361   2.924  51.363  1.00  0.00     0.140 C 
HETATM    2  N2  UNL     1      23.222   2.843  52.077  1.00  0.00    -0.224 NA
HETATM    3  C9  UNL     1      22.209   3.710  52.245  1.00  0.00     0.234 C 
HETATM    4  N3  UNL     1      22.207   5.035  52.014  1.00  0.00    -0.253 NA
HETATM    5  C10 UNL     1      23.158   5.834  51.497  1.00  0.00     0.133 C 
HETATM    6  C11 UNL     1      24.295   5.421  50.803  1.00  0.00     0.032 A 
HETATM    7  C12 UNL     1      25.168   6.160  50.012  1.00  0.00     0.114 A 
HETATM    8  C14 UNL     1      26.149   5.317  49.533  1.00  0.00     0.103 A 
HETATM    9  C16 UNL     1      25.969   4.006  49.979  1.00  0.00     0.056 A 
HETATM   10  C17 UNL     1      24.834   4.068  50.756  1.00  0.00     0.027 A 
ENDROOT
BRANCH   1  11
HETATM   11  N1  UNL     1      25.036   1.678  51.296  1.00  0.00    -0.341 N 
HETATM   12  H10 UNL     1      25.147   1.125  50.396  1.00  0.00     0.167 HD
BRANCH  11  13
HETATM   13  C7  UNL     1      25.640   1.017  52.397  1.00  0.00     0.053 A 
HETATM   14  C5  UNL     1      26.825   1.024  52.972  1.00  0.00     0.127 A 
HETATM   15  C3  UNL     1      26.872   0.096  54.123  1.00  0.00     0.133 A 
HETATM   16  C2  UNL     1      25.674  -0.469  54.223  1.00  0.00     0.087 A 
HETATM   17  C18 UNL     1      24.788   0.056  53.150  1.00  0.00     0.127 A 
BRANCH  14  18
HETATM   18  O3  UNL     1      27.835   1.836  52.480  1.00  0.00    -0.351 OA
HETATM   19  C6  UNL     1      28.623   2.656  53.307  1.00  0.00     0.210 C 
ENDBRANCH  14  18
BRANCH  15  20
HETATM   20  O2  UNL     1      27.983  -0.114  54.924  1.00  0.00    -0.351 OA
HETATM   21  C4  UNL     1      29.222  -0.584  54.456  1.00  0.00     0.210 C 
ENDBRANCH  15  20
BRANCH  16  22
HETATM   22  O1  UNL     1      25.051  -1.393  55.039  1.00  0.00    -0.357 OA
HETATM   23  C1  UNL     1      23.730  -1.273  55.516  1.00  0.00     0.209 C 
ENDBRANCH  16  22
ENDBRANCH  11  13
ENDBRANCH   1  11
BRANCH   7  24
HETATM   24  O4  UNL     1      24.988   7.514  49.807  1.00  0.00    -0.352 OA
HETATM   25  C13 UNL     1      24.337   7.949  48.627  1.00  0.00     0.210 C 
ENDBRANCH   7  24
BRANCH   8  26
HETATM   26  O5  UNL     1      27.161   5.790  48.710  1.00  0.00    -0.353 OA
HETATM   27  C15 UNL     1      28.313   5.076  48.371  1.00  0.00     0.210 C 
ENDBRANCH   8  26
TORSDOF 7
ENDMDL
MODEL 9
REMARK VINA RESULT:      -6.6      2.456      4.352
REMARK  7 active torsions:
REMARK  status: ('A' for Active; 'I' for Inactive)
REMARK    1  A    between atoms: O1_2  and  C2_3 
REMARK    2  A    between atoms: C3_4  and  O2_5 
REMARK    3  A    between atoms: C5_7  and  O3_8 
REMARK    4  A    between atoms: C7_10  and  N1_11 
REMARK    5  A    between atoms: N1_11  and  C8_12 
REMARK    6  A    between atoms: C12_18  and  O4_19 
REMARK    7  A    between atoms: C14_21  and  O5_22 
ROOT
HETATM    1  C8  UNL     1      23.344   1.447  51.579  1.00  0.00     0.140 C 
HETATM    2  N2  UNL     1      22.003   1.513  51.695  1.00  0.00    -0.224 NA
HETATM    3  C9  UNL     1      21.171   1.122  52.675  1.00  0.00     0.234 C 
HETATM    4  N3  UNL     1      21.416   0.253  53.671  1.00  0.00    -0.253 NA
HETATM    5  C10 UNL     1      22.544  -0.397  54.007  1.00  0.00     0.133 C 
HETATM    6  C11 UNL     1      23.832  -0.102  53.559  1.00  0.00     0.032 A 
HETATM    7  C12 UNL     1      25.062  -0.527  54.050  1.00  0.00     0.114 A 
HETATM    8  C14 UNL     1      26.060   0.028  53.277  1.00  0.00     0.103 A 
HETATM    9  C16 UNL     1      25.542   0.833  52.259  1.00  0.00     0.056 A 
HETATM   10  C17 UNL     1      24.177   0.754  52.431  1.00  0.00     0.027 A 
ENDROOT
BRANCH   1  11
HETATM   11  N1  UNL     1      23.818   2.186  50.464  1.00  0.00    -0.341 N 
HETATM   12  H10 UNL     1      23.914   1.771  49.492  1.00  0.00     0.167 HD
BRANCH  11  13
HETATM   13  C7  UNL     1      24.218   3.547  50.498  1.00  0.00     0.053 A 
HETATM   14  C5  UNL     1      23.791   4.645  51.087  1.00  0.00     0.127 A 
HETATM   15  C3  UNL     1      24.636   5.808  50.738  1.00  0.00     0.133 A 
HETATM   16  C2  UNL     1      25.588   5.372  49.920  1.00  0.00     0.087 A 
HETATM   17  C18 UNL     1      25.416   3.912  49.693  1.00  0.00     0.127 A 
BRANCH  14  18
HETATM   18  O3  UNL     1      22.677   4.608  51.911  1.00  0.00    -0.351 OA
HETATM   19  C6  UNL     1      21.416   5.080  51.507  1.00  0.00     0.210 C 
ENDBRANCH  14  18
BRANCH  15  20
HETATM   20  O2  UNL     1      24.436   7.099  51.202  1.00  0.00    -0.351 OA
HETATM   21  C4  UNL     1      23.803   8.117  50.469  1.00  0.00     0.210 C 
ENDBRANCH  15  20
BRANCH  16  22
HETATM   22  O1  UNL     1      26.667   5.904  49.241  1.00  0.00    -0.357 OA
HETATM   23  C1  UNL     1      26.565   6.811  48.166  1.00  0.00     0.209 C 
ENDBRANCH  16  22
ENDBRANCH  11  13
ENDBRANCH   1  11
BRANCH   7  24
HETATM   24  O4  UNL     1      25.152  -1.370  55.139  1.00  0.00    -0.352 OA
HETATM   25  C13 UNL     1      25.160  -0.812  56.441  1.00  0.00     0.210 C 
ENDBRANCH   7  24
BRANCH   8  26
HETATM   26  O5  UNL     1      27.398  -0.228  53.542  1.00  0.00    -0.353 OA
HETATM   27  C15 UNL     1      28.163   0.437  54.504  1.00  0.00     0.210 C 
ENDBRANCH   8  26
TORSDOF 7
ENDMDL
