MODEL 1
REMARK VINA RESULT:      -7.1      0.000      0.000
REMARK  4 active torsions:
REMARK  status: ('A' for Active; 'I' for Inactive)
REMARK    1  A    between atoms: C6_6  and  O1_7 
REMARK    2  A    between atoms: C8_9  and  C9_10 
REMARK    3  A    between atoms: C9_10  and  C10_11 
REMARK    4  A    between atoms: C10_11  and  N1_12 
ROOT
HETATM    1  C1  UNL     1      27.388   5.185  48.757  1.00  0.00     0.012 C 
HETATM    2  C2  UNL     1      26.644   4.358  49.217  1.00  0.00    -0.109 C 
HETATM    3  C3  UNL     1      25.757   3.338  49.762  1.00  0.00     0.039 C 
HETATM    4  C4  UNL     1      26.521   2.774  50.762  1.00  0.00     0.101 C 
HETATM    5  C5  UNL     1      26.073   1.650  51.645  1.00  0.00    -0.038 C 
HETATM    6  C6  UNL     1      27.249   1.673  52.324  1.00  0.00     0.135 C 
HETATM    7  C7  UNL     1      25.121   0.598  52.132  1.00  0.00     0.096 A 
HETATM    8  C8  UNL     1      25.868  -0.482  52.820  1.00  0.00    -0.049 A 
HETATM    9  C11 UNL     1      25.534  -0.674  54.083  1.00  0.00     0.092 A 
HETATM   10  N2  UNL     1      24.501   0.277  54.300  1.00  0.00    -0.368 N 
HETATM   11  C12 UNL     1      24.180   1.052  53.136  1.00  0.00     0.018 A 
HETATM   12  C13 UNL     1      23.136   1.902  53.078  1.00  0.00     0.007 C 
HETATM   13  C14 UNL     1      23.058   2.357  51.711  1.00  0.00     0.052 C 
HETATM   14  C15 UNL     1      22.673   2.974  50.616  1.00  0.00     0.159 C 
HETATM   15  O2  UNL     1      23.639   2.463  49.751  1.00  0.00    -0.381 OA
HETATM   16  C16 UNL     1      24.417   3.421  49.030  1.00  0.00     0.186 C 
HETATM   17  H13 UNL     1      24.073   0.336  55.248  1.00  0.00     0.165 HD
ENDROOT
BRANCH   6  18
HETATM   18  O1  UNL     1      28.184   1.267  53.298  1.00  0.00    -0.372 OA
HETATM   19  H4  UNL     1      28.402   0.277  53.445  1.00  0.00     0.216 HD
ENDBRANCH   6  18
BRANCH   8  20
HETATM   20  C9  UNL     1      26.833  -1.208  51.973  1.00  0.00     0.066 C 
BRANCH  20  21
HETATM   21  C10 UNL     1      27.491  -2.321  52.769  1.00  0.00     0.271 C 
BRANCH  21  22
HETATM   22  N1  UNL     1      28.744  -1.900  53.338  1.00  0.00     0.078 N 
HETATM   23  H10 UNL     1      29.490  -2.600  53.121  1.00  0.00     0.312 HD
HETATM   24  H11 UNL     1      29.044  -0.941  53.015  1.00  0.00     0.312 HD
ENDBRANCH  21  22
ENDBRANCH  20  21
ENDBRANCH   8  20
TORSDOF 4
ENDMDL
MODEL 2
REMARK VINA RESULT:      -7.1      2.100      2.364
REMARK  4 active torsions:
REMARK  status: ('A' for Active; 'I' for Inactive)
REMARK    1  A    between atoms: C6_6  and  O1_7 
REMARK    2  A    between atoms: C8_9  and  C9_10 
REMARK    3  A    between atoms: C9_10  and  C10_11 
REMARK    4  A    between atoms: C10_11  and  N1_12 
ROOT
HETATM    1  C1  UNL     1      23.189   5.577  50.146  1.00  0.00     0.012 C 
HETATM    2  C2  UNL     1      23.183   4.405  50.419  1.00  0.00    -0.109 C 
HETATM    3  C3  UNL     1      23.198   2.981  50.736  1.00  0.00     0.039 C 
HETATM    4  C4  UNL     1      24.155   2.902  51.726  1.00  0.00     0.101 C 
HETATM    5  C5  UNL     1      24.572   1.635  52.408  1.00  0.00    -0.038 C 
HETATM    6  C6  UNL     1      25.447   2.310  53.198  1.00  0.00     0.135 C 
HETATM    7  C7  UNL     1      24.559   0.156  52.657  1.00  0.00     0.096 A 
HETATM    8  C8  UNL     1      25.841  -0.266  53.271  1.00  0.00    -0.049 A 
HETATM    9  C11 UNL     1      25.731  -0.832  54.459  1.00  0.00     0.092 A 
HETATM   10  N2  UNL     1      24.330  -0.840  54.692  1.00  0.00    -0.368 N 
HETATM   11  C12 UNL     1      23.564  -0.288  53.612  1.00  0.00     0.018 A 
HETATM   12  C13 UNL     1      22.219  -0.333  53.561  1.00  0.00     0.007 C 
HETATM   13  C14 UNL     1      21.844   0.174  52.264  1.00  0.00     0.052 C 
HETATM   14  C15 UNL     1      21.136   0.557  51.224  1.00  0.00     0.159 C 
HETATM   15  O2  UNL     1      22.189   0.952  50.401  1.00  0.00    -0.381 OA
HETATM   16  C16 UNL     1      22.131   2.287  49.892  1.00  0.00     0.186 C 
HETATM   17  H13 UNL     1      23.980  -1.230  55.593  1.00  0.00     0.165 HD
ENDROOT
BRANCH   6  18
HETATM   18  O1  UNL     1      26.426   2.463  54.200  1.00  0.00    -0.372 OA
HETATM   19  H4  UNL     1      26.218   2.950  55.076  1.00  0.00     0.216 HD
ENDBRANCH   6  18
BRANCH   8  20
HETATM   20  C9  UNL     1      27.036  -0.033  52.437  1.00  0.00     0.066 C 
BRANCH  20  21
HETATM   21  C10 UNL     1      28.291  -0.390  53.215  1.00  0.00     0.271 C 
BRANCH  21  22
HETATM   22  N1  UNL     1      28.953   0.782  53.723  1.00  0.00     0.078 N 
HETATM   23  H10 UNL     1      29.536   0.532  54.555  1.00  0.00     0.312 HD
HETATM   24  H11 UNL     1      29.547   1.268  53.000  1.00  0.00     0.312 HD
ENDBRANCH  21  22
ENDBRANCH  20  21
ENDBRANCH   8  20
TORSDOF 4
ENDMDL
MODEL 3
REMARK VINA RESULT:      -7.0      3.153      5.619
REMARK  4 active torsions:
REMARK  status: ('A' for Active; 'I' for Inactive)
REMARK    1  A    between atoms: C6_6  and  O1_7 
REMARK    2  A    between atoms: C8_9  and  C9_10 
REMARK    3  A    between atoms: C9_10  and  C10_11 
REMARK    4  A    between atoms: C10_11  and  N1_12 
ROOT
HETATM    1  C1  UNL     1      27.892  -0.871  53.077  1.00  0.00     0.012 C 
HETATM    2  C2  UNL     1      26.755  -0.477  53.108  1.00  0.00    -0.109 C 
HETATM    3  C3  UNL     1      25.385   0.021  53.157  1.00  0.00     0.039 C 
HETATM    4  C4  UNL     1      25.389   1.012  52.199  1.00  0.00     0.101 C 
HETATM    5  C5  UNL     1      24.206   1.862  51.849  1.00  0.00    -0.038 C 
HETATM    6  C6  UNL     1      24.919   2.518  50.897  1.00  0.00     0.135 C 
HETATM    7  C7  UNL     1      22.792   2.347  51.979  1.00  0.00     0.096 A 
HETATM    8  C8  UNL     1      22.683   3.734  51.465  1.00  0.00    -0.049 A 
HETATM    9  C11 UNL     1      21.841   3.891  50.459  1.00  0.00     0.092 A 
HETATM   10  N2  UNL     1      21.313   2.587  50.264  1.00  0.00    -0.368 N 
HETATM   11  C12 UNL     1      21.826   1.615  51.187  1.00  0.00     0.018 A 
HETATM   12  C13 UNL     1      21.352   0.357  51.276  1.00  0.00     0.007 C 
HETATM   13  C14 UNL     1      22.006  -0.245  52.412  1.00  0.00     0.052 C 
HETATM   14  C15 UNL     1      22.374  -1.105  53.336  1.00  0.00     0.159 C 
HETATM   15  O2  UNL     1      23.283  -0.293  54.012  1.00  0.00    -0.381 OA
HETATM   16  C16 UNL     1      24.604  -0.814  54.171  1.00  0.00     0.186 C 
HETATM   17  H13 UNL     1      20.622   2.441  49.498  1.00  0.00     0.165 HD
ENDROOT
BRANCH   6  18
HETATM   18  O1  UNL     1      25.138   3.458  49.869  1.00  0.00    -0.372 OA
HETATM   19  H4  UNL     1      24.460   4.200  49.674  1.00  0.00     0.216 HD
ENDBRANCH   6  18
BRANCH   8  20
HETATM   20  C9  UNL     1      23.494   4.731  52.188  1.00  0.00     0.066 C 
BRANCH  20  21
HETATM   21  C10 UNL     1      23.496   6.049  51.432  1.00  0.00     0.271 C 
BRANCH  21  22
HETATM   22  N1  UNL     1      24.546   6.921  51.886  1.00  0.00     0.078 N 
HETATM   23  H10 UNL     1      24.641   6.857  52.926  1.00  0.00     0.312 HD
HETATM   24  H11 UNL     1      25.475   6.726  51.426  1.00  0.00     0.312 HD
ENDBRANCH  21  22
ENDBRANCH  20  21
ENDBRANCH   8  20
TORSDOF 4
ENDMDL
MODEL 4
REMARK VINA RESULT:      -6.5      2.690      6.186
REMARK  4 active torsions:
REMARK  status: ('A' for Active; 'I' for Inactive)
REMARK    1  A    between atoms: C6_6  and  O1_7 
REMARK    2  A    between atoms: C8_9  and  C9_10 
REMARK    3  A    between atoms: C9_10  and  C10_11 
REMARK    4  A    between atoms: C10_11  and  N1_12 
ROOT
HETATM    1  C1  UNL     1      21.939  -0.871  54.963  1.00  0.00     0.012 C 
HETATM    2  C2  UNL     1      22.770  -0.526  54.164  1.00  0.00    -0.109 C 
HETATM    3  C3  UNL     1      23.761  -0.113  53.177  1.00  0.00     0.039 C 
HETATM    4  C4  UNL     1      23.271   1.102  52.745  1.00  0.00     0.101 C 
HETATM    5  C5  UNL     1      23.921   1.961  51.704  1.00  0.00    -0.038 C 
HETATM    6  C6  UNL     1      22.955   2.907  51.836  1.00  0.00     0.135 C 
HETATM    7  C7  UNL     1      24.959   2.304  50.678  1.00  0.00     0.096 A 
HETATM    8  C8  UNL     1      24.404   3.270  49.700  1.00  0.00    -0.049 A 
HETATM    9  C11 UNL     1      25.046   4.423  49.628  1.00  0.00     0.092 A 
HETATM   10  N2  UNL     1      26.105   4.269  50.562  1.00  0.00    -0.368 N 
HETATM   11  C12 UNL     1      26.126   2.985  51.201  1.00  0.00     0.018 A 
HETATM   12  C13 UNL     1      27.126   2.575  52.005  1.00  0.00     0.007 C 
HETATM   13  C14 UNL     1      26.859   1.191  52.314  1.00  0.00     0.052 C 
HETATM   14  C15 UNL     1      26.957  -0.026  52.801  1.00  0.00     0.159 C 
HETATM   15  O2  UNL     1      25.801  -0.560  52.236  1.00  0.00    -0.381 OA
HETATM   16  C16 UNL     1      24.871  -1.162  53.140  1.00  0.00     0.186 C 
HETATM   17  H13 UNL     1      26.760   5.067  50.705  1.00  0.00     0.165 HD
ENDROOT
BRANCH   6  18
HETATM   18  O1  UNL     1      22.295   4.122  51.564  1.00  0.00    -0.372 OA
HETATM   19  H4  UNL     1      22.820   4.977  51.356  1.00  0.00     0.216 HD
ENDBRANCH   6  18
BRANCH   8  20
HETATM   20  C9  UNL     1      23.252   2.776  48.922  1.00  0.00     0.066 C 
BRANCH  20  21
HETATM   21  C10 UNL     1      22.638   3.912  48.122  1.00  0.00     0.271 C 
BRANCH  21  22
HETATM   22  N1  UNL     1      21.393   4.353  48.693  1.00  0.00     0.078 N 
HETATM   23  H10 UNL     1      21.512   4.534  49.716  1.00  0.00     0.312 HD
HETATM   24  H11 UNL     1      21.000   5.210  48.219  1.00  0.00     0.312 HD
ENDBRANCH  21  22
ENDBRANCH  20  21
ENDBRANCH   8  20
TORSDOF 4
ENDMDL
MODEL 5
REMARK VINA RESULT:      -6.5      3.802      6.702
REMARK  4 active torsions:
REMARK  status: ('A' for Active; 'I' for Inactive)
REMARK    1  A    between atoms: C6_6  and  O1_7 
REMARK    2  A    between atoms: C8_9  and  C9_10 
REMARK    3  A    between atoms: C9_10  and  C10_11 
REMARK    4  A    between atoms: C10_11  and  N1_12 
ROOT
HETATM    1  C1  UNL     1      21.522  -1.716  54.552  1.00  0.00     0.012 C 
HETATM    2  C2  UNL     1      22.008  -0.788  53.960  1.00  0.00    -0.109 C 
HETATM    3  C3  UNL     1      22.588   0.327  53.219  1.00  0.00     0.039 C 
HETATM    4  C4  UNL     1      21.487   1.109  52.938  1.00  0.00     0.101 C 
HETATM    5  C5  UNL     1      21.530   2.396  52.172  1.00  0.00    -0.038 C 
HETATM    6  C6  UNL     1      20.190   2.565  52.320  1.00  0.00     0.135 C 
HETATM    7  C7  UNL     1      22.190   3.492  51.389  1.00  0.00     0.096 A 
HETATM    8  C8  UNL     1      21.193   4.165  50.522  1.00  0.00    -0.049 A 
HETATM    9  C11 UNL     1      21.037   5.457  50.750  1.00  0.00     0.092 A 
HETATM   10  N2  UNL     1      21.967   5.722  51.791  1.00  0.00    -0.368 N 
HETATM   11  C12 UNL     1      22.725   4.572  52.193  1.00  0.00     0.018 A 
HETATM   12  C13 UNL     1      23.758   4.631  53.054  1.00  0.00     0.007 C 
HETATM   13  C14 UNL     1      24.348   3.315  53.073  1.00  0.00     0.052 C 
HETATM   14  C15 UNL     1      25.132   2.296  53.350  1.00  0.00     0.159 C 
HETATM   15  O2  UNL     1      24.520   1.347  52.533  1.00  0.00    -0.381 OA
HETATM   16  C16 UNL     1      24.103   0.137  53.168  1.00  0.00     0.186 C 
HETATM   17  H13 UNL     1      22.026   6.692  52.168  1.00  0.00     0.165 HD
ENDROOT
BRANCH   6  18
HETATM   18  O1  UNL     1      18.948   3.214  52.168  1.00  0.00    -0.372 OA
HETATM   19  H4  UNL     1      18.070   2.744  52.407  1.00  0.00     0.216 HD
ENDBRANCH   6  18
BRANCH   8  20
HETATM   20  C9  UNL     1      20.566   3.299  49.506  1.00  0.00     0.066 C 
BRANCH  20  21
HETATM   21  C10 UNL     1      21.621   2.765  48.553  1.00  0.00     0.271 C 
BRANCH  21  22
HETATM   22  N1  UNL     1      21.591   1.328  48.478  1.00  0.00     0.078 N 
HETATM   23  H10 UNL     1      21.944   0.914  49.371  1.00  0.00     0.312 HD
HETATM   24  H11 UNL     1      20.633   0.945  48.257  1.00  0.00     0.312 HD
ENDBRANCH  21  22
ENDBRANCH  20  21
ENDBRANCH   8  20
TORSDOF 4
ENDMDL
MODEL 6
REMARK VINA RESULT:      -6.5      2.553      3.313
REMARK  4 active torsions:
REMARK  status: ('A' for Active; 'I' for Inactive)
REMARK    1  A    between atoms: C6_6  and  O1_7 
REMARK    2  A    between atoms: C8_9  and  C9_10 
REMARK    3  A    between atoms: C9_10  and  C10_11 
REMARK    4  A    between atoms: C10_11  and  N1_12 
ROOT
HETATM    1  C1  UNL     1      21.631   6.717  49.663  1.00  0.00     0.012 C 
HETATM    2  C2  UNL     1      21.869   5.541  49.744  1.00  0.00    -0.109 C 
HETATM    3  C3  UNL     1      22.183   4.119  49.834  1.00  0.00     0.039 C 
HETATM    4  C4  UNL     1      22.935   4.048  50.988  1.00  0.00     0.101 C 
HETATM    5  C5  UNL     1      23.526   2.788  51.542  1.00  0.00    -0.038 C 
HETATM    6  C6  UNL     1      24.047   3.460  52.601  1.00  0.00     0.135 C 
HETATM    7  C7  UNL     1      23.839   1.321  51.552  1.00  0.00     0.096 A 
HETATM    8  C8  UNL     1      25.054   1.067  52.363  1.00  0.00    -0.049 A 
HETATM    9  C11 UNL     1      24.878   0.263  53.396  1.00  0.00     0.092 A 
HETATM   10  N2  UNL     1      23.505  -0.091  53.308  1.00  0.00    -0.368 N 
HETATM   11  C12 UNL     1      22.832   0.491  52.182  1.00  0.00     0.018 A 
HETATM   12  C13 UNL     1      21.572   0.172  51.827  1.00  0.00     0.007 C 
HETATM   13  C14 UNL     1      21.322   0.838  50.572  1.00  0.00     0.052 C 
HETATM   14  C15 UNL     1      20.739   1.263  49.473  1.00  0.00     0.159 C 
HETATM   15  O2  UNL     1      21.790   2.032  48.975  1.00  0.00    -0.381 OA
HETATM   16  C16 UNL     1      21.493   3.397  48.677  1.00  0.00     0.186 C 
HETATM   17  H13 UNL     1      23.107  -0.721  54.037  1.00  0.00     0.165 HD
ENDROOT
BRANCH   6  18
HETATM   18  O1  UNL     1      24.761   3.613  53.807  1.00  0.00    -0.372 OA
HETATM   19  H4  UNL     1      24.458   3.145  54.666  1.00  0.00     0.216 HD
ENDBRANCH   6  18
BRANCH   8  20
HETATM   20  C9  UNL     1      26.282   1.712  51.862  1.00  0.00     0.066 C 
BRANCH  20  21
HETATM   21  C10 UNL     1      27.427   1.478  52.832  1.00  0.00     0.271 C 
BRANCH  21  22
HETATM   22  N1  UNL     1      27.586   2.580  53.743  1.00  0.00     0.078 N 
HETATM   23  H10 UNL     1      28.390   3.178  53.445  1.00  0.00     0.312 HD
HETATM   24  H11 UNL     1      26.715   3.167  53.839  1.00  0.00     0.312 HD
ENDBRANCH  21  22
ENDBRANCH  20  21
ENDBRANCH   8  20
TORSDOF 4
ENDMDL
MODEL 7
REMARK VINA RESULT:      -6.4      2.711      5.091
REMARK  4 active torsions:
REMARK  status: ('A' for Active; 'I' for Inactive)
REMARK    1  A    between atoms: C6_6  and  O1_7 
REMARK    2  A    between atoms: C8_9  and  C9_10 
REMARK    3  A    between atoms: C9_10  and  C10_11 
REMARK    4  A    between atoms: C10_11  and  N1_12 
ROOT
HETATM    1  C1  UNL     1      18.740   3.236  51.886  1.00  0.00     0.012 C 
HETATM    2  C2  UNL     1      19.755   2.591  51.839  1.00  0.00    -0.109 C 
HETATM    3  C3  UNL     1      20.989   1.817  51.757  1.00  0.00     0.039 C 
HETATM    4  C4  UNL     1      21.962   2.793  51.796  1.00  0.00     0.101 C 
HETATM    5  C5  UNL     1      23.435   2.530  51.733  1.00  0.00    -0.038 C 
HETATM    6  C6  UNL     1      23.710   3.855  51.843  1.00  0.00     0.135 C 
HETATM    7  C7  UNL     1      24.660   1.672  51.609  1.00  0.00     0.096 A 
HETATM    8  C8  UNL     1      25.792   2.478  51.091  1.00  0.00    -0.049 A 
HETATM    9  C11 UNL     1      26.843   2.542  51.888  1.00  0.00     0.092 A 
HETATM   10  N2  UNL     1      26.465   1.738  52.997  1.00  0.00    -0.368 N 
HETATM   11  C12 UNL     1      25.163   1.151  52.865  1.00  0.00     0.018 A 
HETATM   12  C13 UNL     1      24.671   0.240  53.726  1.00  0.00     0.007 C 
HETATM   13  C14 UNL     1      23.422  -0.217  53.166  1.00  0.00     0.052 C 
HETATM   14  C15 UNL     1      22.289  -0.859  52.987  1.00  0.00     0.159 C 
HETATM   15  O2  UNL     1      21.919  -0.276  51.777  1.00  0.00    -0.381 OA
HETATM   16  C16 UNL     1      20.627   0.333  51.734  1.00  0.00     0.186 C 
HETATM   17  H13 UNL     1      27.135   1.640  53.790  1.00  0.00     0.165 HD
ENDROOT
BRANCH   6  18
HETATM   18  O1  UNL     1      24.528   5.000  51.923  1.00  0.00    -0.372 OA
HETATM   19  H4  UNL     1      24.668   5.492  52.811  1.00  0.00     0.216 HD
ENDBRANCH   6  18
BRANCH   8  20
HETATM   20  C9  UNL     1      25.588   3.043  49.744  1.00  0.00     0.066 C 
BRANCH  20  21
HETATM   21  C10 UNL     1      26.752   3.946  49.375  1.00  0.00     0.271 C 
BRANCH  21  22
HETATM   22  N1  UNL     1      26.443   5.332  49.608  1.00  0.00     0.078 N 
HETATM   23  H10 UNL     1      25.759   5.672  48.894  1.00  0.00     0.312 HD
HETATM   24  H11 UNL     1      26.073   5.517  50.578  1.00  0.00     0.312 HD
ENDBRANCH  21  22
ENDBRANCH  20  21
ENDBRANCH   8  20
TORSDOF 4
ENDMDL
MODEL 8
REMARK VINA RESULT:      -6.3      5.439      8.761
REMARK  4 active torsions:
REMARK  status: ('A' for Active; 'I' for Inactive)
REMARK    1  A    between atoms: C6_6  and  O1_7 
REMARK    2  A    between atoms: C8_9  and  C9_10 
REMARK    3  A    between atoms: C9_10  and  C10_11 
REMARK    4  A    between atoms: C10_11  and  N1_12 
ROOT
HETATM    1  C1  UNL     1      26.097   3.289  49.551  1.00  0.00     0.012 C 
HETATM    2  C2  UNL     1      26.574   4.333  49.190  1.00  0.00    -0.109 C 
HETATM    3  C3  UNL     1      27.166   5.599  48.774  1.00  0.00     0.039 C 
HETATM    4  C4  UNL     1      28.437   5.228  48.390  1.00  0.00     0.101 C 
HETATM    5  C5  UNL     1      29.482   6.171  47.878  1.00  0.00    -0.038 C 
HETATM    6  C6  UNL     1      30.363   5.152  47.705  1.00  0.00     0.135 C 
HETATM    7  C7  UNL     1      30.037   7.513  47.501  1.00  0.00     0.096 A 
HETATM    8  C8  UNL     1      31.518   7.486  47.567  1.00  0.00    -0.049 A 
HETATM    9  C11 UNL     1      32.132   7.758  46.430  1.00  0.00     0.092 A 
HETATM   10  N2  UNL     1      31.063   8.013  45.530  1.00  0.00    -0.368 N 
HETATM   11  C12 UNL     1      29.766   7.918  46.136  1.00  0.00     0.018 A 
HETATM   12  C13 UNL     1      28.628   8.265  45.506  1.00  0.00     0.007 C 
HETATM   13  C14 UNL     1      27.576   8.179  46.489  1.00  0.00     0.052 C 
HETATM   14  C15 UNL     1      26.397   8.222  47.071  1.00  0.00     0.159 C 
HETATM   15  O2  UNL     1      26.791   7.818  48.346  1.00  0.00    -0.381 OA
HETATM   16  C16 UNL     1      26.105   6.692  48.896  1.00  0.00     0.186 C 
HETATM   17  H13 UNL     1      31.293   8.241  44.540  1.00  0.00     0.165 HD
ENDROOT
BRANCH   6  18
HETATM   18  O1  UNL     1      31.588   4.554  47.347  1.00  0.00    -0.372 OA
HETATM   19  H4  UNL     1      32.310   4.362  48.048  1.00  0.00     0.216 HD
ENDBRANCH   6  18
BRANCH   8  20
HETATM   20  C9  UNL     1      32.076   7.208  48.904  1.00  0.00     0.066 C 
BRANCH  20  21
HETATM   21  C10 UNL     1      33.556   6.888  48.795  1.00  0.00     0.271 C 
BRANCH  21  22
HETATM   22  N1  UNL     1      33.820   5.497  49.055  1.00  0.00     0.078 N 
HETATM   23  H10 UNL     1      34.830   5.362  49.292  1.00  0.00     0.312 HD
HETATM   24  H11 UNL     1      33.213   5.096  49.819  1.00  0.00     0.312 HD
ENDBRANCH  21  22
ENDBRANCH  20  21
ENDBRANCH   8  20
TORSDOF 4
ENDMDL
MODEL 9
REMARK VINA RESULT:      -6.2      2.836      4.593
REMARK  4 active torsions:
REMARK  status: ('A' for Active; 'I' for Inactive)
REMARK    1  A    between atoms: C6_6  and  O1_7 
REMARK    2  A    between atoms: C8_9  and  C9_10 
REMARK    3  A    between atoms: C9_10  and  C10_11 
REMARK    4  A    between atoms: C10_11  and  N1_12 
ROOT
HETATM    1  C1  UNL     1      19.060   4.244  51.376  1.00  0.00     0.012 C 
HETATM    2  C2  UNL     1      19.658   3.224  51.597  1.00  0.00    -0.109 C 
HETATM    3  C3  UNL     1      20.396   1.990  51.843  1.00  0.00     0.039 C 
HETATM    4  C4  UNL     1      21.611   2.452  52.306  1.00  0.00     0.101 C 
HETATM    5  C5  UNL     1      22.759   1.577  52.704  1.00  0.00    -0.038 C 
HETATM    6  C6  UNL     1      23.509   2.658  53.040  1.00  0.00     0.135 C 
HETATM    7  C7  UNL     1      23.470   0.271  52.900  1.00  0.00     0.096 A 
HETATM    8  C8  UNL     1      24.938   0.484  52.873  1.00  0.00    -0.049 A 
HETATM    9  C11 UNL     1      25.574   0.127  53.975  1.00  0.00     0.092 A 
HETATM   10  N2  UNL     1      24.538  -0.381  54.804  1.00  0.00    -0.368 N 
HETATM   11  C12 UNL     1      23.242  -0.355  54.187  1.00  0.00     0.018 A 
HETATM   12  C13 UNL     1      22.151  -0.922  54.735  1.00  0.00     0.007 C 
HETATM   13  C14 UNL     1      21.102  -0.823  53.749  1.00  0.00     0.052 C 
HETATM   14  C15 UNL     1      19.942  -0.922  53.139  1.00  0.00     0.159 C 
HETATM   15  O2  UNL     1      20.291  -0.296  51.944  1.00  0.00    -0.381 OA
HETATM   16  C16 UNL     1      19.477   0.808  51.543  1.00  0.00     0.186 C 
HETATM   17  H13 UNL     1      24.787  -0.719  55.757  1.00  0.00     0.165 HD
ENDROOT
BRANCH   6  18
HETATM   18  O1  UNL     1      24.650   3.341  53.508  1.00  0.00    -0.372 OA
HETATM   19  H4  UNL     1      25.527   2.846  53.691  1.00  0.00     0.216 HD
ENDBRANCH   6  18
BRANCH   8  20
HETATM   20  C9  UNL     1      25.466   1.015  51.603  1.00  0.00     0.066 C 
BRANCH  20  21
HETATM   21  C10 UNL     1      26.885   1.519  51.799  1.00  0.00     0.271 C 
BRANCH  21  22
HETATM   22  N1  UNL     1      26.997   2.922  51.500  1.00  0.00     0.078 N 
HETATM   23  H10 UNL     1      26.354   3.472  52.115  1.00  0.00     0.312 HD
HETATM   24  H11 UNL     1      27.983   3.287  51.591  1.00  0.00     0.312 HD
ENDBRANCH  21  22
ENDBRANCH  20  21
ENDBRANCH   8  20
TORSDOF 4
ENDMDL
