MODEL 1
REMARK VINA RESULT:      -9.5      0.000      0.000
REMARK  5 active torsions:
REMARK  status: ('A' for Active; 'I' for Inactive)
REMARK    1  A    between atoms: C1_2  and  C2_3 
REMARK    2  A    between atoms: C1_2  and  C8_10 
REMARK    3  A    between atoms: C6_7  and  O2_8 
REMARK    4  A    between atoms: C11_13  and  N1_14 
REMARK    5  A    between atoms: N1_14  and  C12_15 
ROOT
HETATM    1  C8  UNL     1      25.792   1.713  53.320  1.00  0.00     0.058 A 
HETATM    2  C9  UNL     1      26.049   2.358  52.086  1.00  0.00     0.041 A 
HETATM    3  C10 UNL     1      25.234   2.648  50.970  1.00  0.00     0.047 A 
HETATM    4  C11 UNL     1      25.145   3.201  49.701  1.00  0.00     0.142 A 
HETATM    5  N2  UNL     1      24.014   3.190  49.023  1.00  0.00    -0.223 NA
HETATM    6  C18 UNL     1      22.838   2.712  49.347  1.00  0.00     0.236 A 
HETATM    7  N3  UNL     1      22.807   2.144  50.572  1.00  0.00    -0.234 NA
HETATM    8  C19 UNL     1      23.990   2.148  51.294  1.00  0.00     0.113 A 
HETATM    9  S1  UNL     1      24.128   1.459  52.865  1.00  0.00    -0.066 SA
ENDROOT
BRANCH   1  10
HETATM   10  C1  UNL     1      27.256   1.936  53.720  1.00  0.00     0.195 C 
HETATM   11  O1  UNL     1      28.278   2.643  54.092  1.00  0.00    -0.286 OA
BRANCH  10  12
HETATM   12  C2  UNL     1      27.936   0.594  53.668  1.00  0.00    -0.004 C 
HETATM   13  C3  UNL     1      29.271   0.403  53.781  1.00  0.00    -0.011 C 
HETATM   14  C4  UNL     1      30.142  -0.820  53.758  1.00  0.00     0.057 C 
HETATM   15  C5  UNL     1      29.463  -2.004  53.220  1.00  0.00     0.009 C 
HETATM   16  C6  UNL     1      28.175  -1.789  53.164  1.00  0.00     0.044 C 
HETATM   17  C7  UNL     1      27.231  -0.727  53.476  1.00  0.00     0.106 C 
BRANCH  16  18
HETATM   18  O2  UNL     1      27.535  -2.926  52.648  1.00  0.00    -0.365 OA
HETATM   19  H5  UNL     1      27.771  -3.159  51.700  1.00  0.00     0.217 HD
ENDBRANCH  16  18
ENDBRANCH  10  12
ENDBRANCH   1  10
BRANCH   4  20
HETATM   20  N1  UNL     1      26.385   3.741  49.283  1.00  0.00    -0.340 N 
HETATM   21  H9  UNL     1      27.232   3.134  49.061  1.00  0.00     0.167 HD
BRANCH  20  22
HETATM   22  C12 UNL     1      26.746   5.088  49.093  1.00  0.00     0.035 A 
HETATM   23  C13 UNL     1      27.901   5.439  48.413  1.00  0.00     0.032 A 
HETATM   24  C14 UNL     1      28.306   6.740  48.211  1.00  0.00     0.046 A 
HETATM   25  C15 UNL     1      27.516   7.736  48.715  1.00  0.00     0.138 A 
HETATM   26  F1  UNL     1      27.853   9.046  48.548  1.00  0.00    -0.204 F 
HETATM   27  C16 UNL     1      26.371   7.486  49.393  1.00  0.00     0.074 A 
HETATM   28 CL1  UNL     1      25.351   8.741  50.039  1.00  0.00    -0.081 Cl
HETATM   29  C17 UNL     1      26.036   6.169  49.553  1.00  0.00     0.056 A 
ENDBRANCH  20  22
ENDBRANCH   4  20
TORSDOF 5
ENDMDL
MODEL 2
REMARK VINA RESULT:      -9.4      2.061      2.939
REMARK  5 active torsions:
REMARK  status: ('A' for Active; 'I' for Inactive)
REMARK    1  A    between atoms: C1_2  and  C2_3 
REMARK    2  A    between atoms: C1_2  and  C8_10 
REMARK    3  A    between atoms: C6_7  and  O2_8 
REMARK    4  A    between atoms: C11_13  and  N1_14 
REMARK    5  A    between atoms: N1_14  and  C12_15 
ROOT
HETATM    1  C8  UNL     1      24.965   0.544  53.000  1.00  0.00     0.058 A 
HETATM    2  C9  UNL     1      24.331   1.183  51.907  1.00  0.00     0.041 A 
HETATM    3  C10 UNL     1      22.994   1.204  51.456  1.00  0.00     0.047 A 
HETATM    4  C11 UNL     1      22.087   1.663  50.511  1.00  0.00     0.142 A 
HETATM    5  N2  UNL     1      20.812   1.328  50.561  1.00  0.00    -0.223 NA
HETATM    6  C18 UNL     1      20.169   0.571  51.416  1.00  0.00     0.236 A 
HETATM    7  N3  UNL     1      20.959   0.065  52.387  1.00  0.00    -0.234 NA
HETATM    8  C19 UNL     1      22.302   0.408  52.344  1.00  0.00     0.113 A 
HETATM    9  S1  UNL     1      23.447  -0.157  53.497  1.00  0.00    -0.066 SA
ENDROOT
BRANCH   1  10
HETATM   10  C1  UNL     1      26.300   1.159  52.562  1.00  0.00     0.195 C 
HETATM   11  O1  UNL     1      27.056   2.068  52.031  1.00  0.00    -0.286 OA
BRANCH  10  12
HETATM   12  C2  UNL     1      27.382   0.187  52.953  1.00  0.00    -0.004 C 
HETATM   13  C3  UNL     1      28.646   0.536  53.283  1.00  0.00    -0.011 C 
HETATM   14  C4  UNL     1      29.858  -0.250  53.695  1.00  0.00     0.057 C 
HETATM   15  C5  UNL     1      29.743  -1.684  53.404  1.00  0.00     0.009 C 
HETATM   16  C6  UNL     1      28.501  -1.982  53.127  1.00  0.00     0.044 C 
HETATM   17  C7  UNL     1      27.214  -1.311  53.024  1.00  0.00     0.106 C 
BRANCH  16  18
HETATM   18  O2  UNL     1      28.403  -3.353  52.849  1.00  0.00    -0.365 OA
HETATM   19  H5  UNL     1      27.543  -3.644  52.419  1.00  0.00     0.217 HD
ENDBRANCH  16  18
ENDBRANCH  10  12
ENDBRANCH   1  10
BRANCH   4  20
HETATM   20  N1  UNL     1      22.713   2.492  49.551  1.00  0.00    -0.340 N 
HETATM   21  H9  UNL     1      22.606   2.342  48.502  1.00  0.00     0.167 HD
BRANCH  20  22
HETATM   22  C12 UNL     1      23.556   3.601  49.753  1.00  0.00     0.035 A 
HETATM   23  C13 UNL     1      23.123   4.726  50.436  1.00  0.00     0.032 A 
HETATM   24  C14 UNL     1      23.902   5.841  50.650  1.00  0.00     0.046 A 
HETATM   25  C15 UNL     1      25.177   5.828  50.155  1.00  0.00     0.138 A 
HETATM   26  F1  UNL     1      26.006   6.895  50.334  1.00  0.00    -0.204 F 
HETATM   27  C16 UNL     1      25.685   4.774  49.475  1.00  0.00     0.074 A 
HETATM   28 CL1  UNL     1      27.307   4.737  48.841  1.00  0.00    -0.081 Cl
HETATM   29  C17 UNL     1      24.850   3.704  49.303  1.00  0.00     0.056 A 
ENDBRANCH  20  22
ENDBRANCH   4  20
TORSDOF 5
ENDMDL
MODEL 3
REMARK VINA RESULT:      -9.3      5.026      7.571
REMARK  5 active torsions:
REMARK  status: ('A' for Active; 'I' for Inactive)
REMARK    1  A    between atoms: C1_2  and  C2_3 
REMARK    2  A    between atoms: C1_2  and  C8_10 
REMARK    3  A    between atoms: C6_7  and  O2_8 
REMARK    4  A    between atoms: C11_13  and  N1_14 
REMARK    5  A    between atoms: N1_14  and  C12_15 
ROOT
HETATM    1  C8  UNL     1      22.054   1.610  51.342  1.00  0.00     0.058 A 
HETATM    2  C9  UNL     1      23.361   1.817  51.845  1.00  0.00     0.041 A 
HETATM    3  C10 UNL     1      24.498   2.465  51.317  1.00  0.00     0.047 A 
HETATM    4  C11 UNL     1      25.826   2.825  51.496  1.00  0.00     0.142 A 
HETATM    5  N2  UNL     1      26.489   3.492  50.571  1.00  0.00    -0.223 NA
HETATM    6  C18 UNL     1      26.099   3.926  49.398  1.00  0.00     0.236 A 
HETATM    7  N3  UNL     1      24.813   3.629  49.115  1.00  0.00    -0.234 NA
HETATM    8  C19 UNL     1      24.105   2.927  50.078  1.00  0.00     0.113 A 
HETATM    9  S1  UNL     1      22.462   2.460  49.875  1.00  0.00    -0.066 SA
ENDROOT
BRANCH   1  10
HETATM   10  C1  UNL     1      21.695   0.861  52.632  1.00  0.00     0.195 C 
HETATM   11  O1  UNL     1      21.898   0.442  53.842  1.00  0.00    -0.286 OA
BRANCH  10  12
HETATM   12  C2  UNL     1      20.338   0.243  52.420  1.00  0.00    -0.004 C 
HETATM   13  C3  UNL     1      19.566   0.441  51.326  1.00  0.00    -0.011 C 
HETATM   14  C4  UNL     1      18.212  -0.064  50.917  1.00  0.00     0.057 C 
HETATM   15  C5  UNL     1      17.451  -0.645  52.030  1.00  0.00     0.009 C 
HETATM   16  C6  UNL     1      18.243  -0.852  53.048  1.00  0.00     0.044 C 
HETATM   17  C7  UNL     1      19.645  -0.676  53.395  1.00  0.00     0.106 C 
BRANCH  16  18
HETATM   18  O2  UNL     1      17.506  -1.406  54.106  1.00  0.00    -0.365 OA
HETATM   19  H5  UNL     1      17.128  -0.743  54.760  1.00  0.00     0.217 HD
ENDBRANCH  16  18
ENDBRANCH  10  12
ENDBRANCH   1  10
BRANCH   4  20
HETATM   20  N1  UNL     1      26.318   2.387  52.749  1.00  0.00    -0.340 N 
HETATM   21  H9  UNL     1      26.018   2.827  53.671  1.00  0.00     0.167 HD
BRANCH  20  22
HETATM   22  C12 UNL     1      27.243   1.365  53.029  1.00  0.00     0.035 A 
HETATM   23  C13 UNL     1      28.478   1.641  53.593  1.00  0.00     0.032 A 
HETATM   24  C14 UNL     1      29.424   0.681  53.876  1.00  0.00     0.046 A 
HETATM   25  C15 UNL     1      29.117  -0.619  53.579  1.00  0.00     0.138 A 
HETATM   26  F1  UNL     1      30.003  -1.622  53.836  1.00  0.00    -0.204 F 
HETATM   27  C16 UNL     1      27.936  -0.981  53.026  1.00  0.00     0.074 A 
HETATM   28 CL1  UNL     1      27.525  -2.630  52.645  1.00  0.00    -0.081 Cl
HETATM   29  C17 UNL     1      27.048   0.030  52.775  1.00  0.00     0.056 A 
ENDBRANCH  20  22
ENDBRANCH   4  20
TORSDOF 5
ENDMDL
MODEL 4
REMARK VINA RESULT:      -9.3      2.073      2.545
REMARK  5 active torsions:
REMARK  status: ('A' for Active; 'I' for Inactive)
REMARK    1  A    between atoms: C1_2  and  C2_3 
REMARK    2  A    between atoms: C1_2  and  C8_10 
REMARK    3  A    between atoms: C6_7  and  O2_8 
REMARK    4  A    between atoms: C11_13  and  N1_14 
REMARK    5  A    between atoms: N1_14  and  C12_15 
ROOT
HETATM    1  C8  UNL     1      25.276   1.200  52.497  1.00  0.00     0.058 A 
HETATM    2  C9  UNL     1      24.874   2.547  52.334  1.00  0.00     0.041 A 
HETATM    3  C10 UNL     1      23.609   3.171  52.305  1.00  0.00     0.047 A 
HETATM    4  C11 UNL     1      22.890   4.350  52.168  1.00  0.00     0.142 A 
HETATM    5  N2  UNL     1      21.572   4.363  52.216  1.00  0.00    -0.223 NA
HETATM    6  C18 UNL     1      20.723   3.380  52.386  1.00  0.00     0.236 A 
HETATM    7  N3  UNL     1      21.315   2.175  52.530  1.00  0.00    -0.234 NA
HETATM    8  C19 UNL     1      22.700   2.148  52.480  1.00  0.00     0.113 A 
HETATM    9  S1  UNL     1      23.612   0.698  52.636  1.00  0.00    -0.066 SA
ENDROOT
BRANCH   1  10
HETATM   10  C1  UNL     1      26.740   1.640  52.373  1.00  0.00     0.195 C 
HETATM   11  O1  UNL     1      27.699   2.465  52.084  1.00  0.00    -0.286 OA
BRANCH  10  12
HETATM   12  C2  UNL     1      27.588   0.490  52.848  1.00  0.00    -0.004 C 
HETATM   13  C3  UNL     1      28.834   0.614  53.361  1.00  0.00    -0.011 C 
HETATM   14  C4  UNL     1      29.835  -0.376  53.885  1.00  0.00     0.057 C 
HETATM   15  C5  UNL     1      29.535  -1.760  53.502  1.00  0.00     0.009 C 
HETATM   16  C6  UNL     1      28.312  -1.839  53.048  1.00  0.00     0.044 C 
HETATM   17  C7  UNL     1      27.175  -0.961  52.814  1.00  0.00     0.106 C 
BRANCH  16  18
HETATM   18  O2  UNL     1      28.035  -3.165  52.684  1.00  0.00    -0.365 OA
HETATM   19  H5  UNL     1      28.373  -3.865  53.321  1.00  0.00     0.217 HD
ENDBRANCH  16  18
ENDBRANCH  10  12
ENDBRANCH   1  10
BRANCH   4  20
HETATM   20  N1  UNL     1      23.747   5.461  51.981  1.00  0.00    -0.340 N 
HETATM   21  H9  UNL     1      24.079   6.075  52.785  1.00  0.00     0.167 HD
BRANCH  20  22
HETATM   22  C12 UNL     1      24.297   5.964  50.787  1.00  0.00     0.035 A 
HETATM   23  C13 UNL     1      23.671   6.972  50.071  1.00  0.00     0.032 A 
HETATM   24  C14 UNL     1      24.159   7.492  48.893  1.00  0.00     0.046 A 
HETATM   25  C15 UNL     1      25.330   6.976  48.409  1.00  0.00     0.138 A 
HETATM   26  F1  UNL     1      25.874   7.445  47.250  1.00  0.00    -0.204 F 
HETATM   27  C16 UNL     1      26.009   5.990  49.041  1.00  0.00     0.074 A 
HETATM   28 CL1  UNL     1      27.503   5.323  48.443  1.00  0.00    -0.081 Cl
HETATM   29  C17 UNL     1      25.461   5.526  50.205  1.00  0.00     0.056 A 
ENDBRANCH  20  22
ENDBRANCH   4  20
TORSDOF 5
ENDMDL
MODEL 5
REMARK VINA RESULT:      -9.1      4.462      6.367
REMARK  5 active torsions:
REMARK  status: ('A' for Active; 'I' for Inactive)
REMARK    1  A    between atoms: C1_2  and  C2_3 
REMARK    2  A    between atoms: C1_2  and  C8_10 
REMARK    3  A    between atoms: C6_7  and  O2_8 
REMARK    4  A    between atoms: C11_13  and  N1_14 
REMARK    5  A    between atoms: N1_14  and  C12_15 
ROOT
HETATM    1  C8  UNL     1      26.562   2.051  52.241  1.00  0.00     0.058 A 
HETATM    2  C9  UNL     1      25.164   2.143  52.437  1.00  0.00     0.041 A 
HETATM    3  C10 UNL     1      24.105   2.555  51.600  1.00  0.00     0.047 A 
HETATM    4  C11 UNL     1      22.741   2.769  51.460  1.00  0.00     0.142 A 
HETATM    5  N2  UNL     1      22.228   3.226  50.335  1.00  0.00    -0.223 NA
HETATM    6  C18 UNL     1      22.813   3.548  49.207  1.00  0.00     0.236 A 
HETATM    7  N3  UNL     1      24.152   3.379  49.228  1.00  0.00    -0.234 NA
HETATM    8  C19 UNL     1      24.704   2.901  50.406  1.00  0.00     0.113 A 
HETATM    9  S1  UNL     1      26.393   2.636  50.607  1.00  0.00    -0.066 SA
ENDROOT
BRANCH   1  10
HETATM   10  C1  UNL     1      26.713   1.538  53.678  1.00  0.00     0.195 C 
HETATM   11  O1  UNL     1      26.476   1.528  54.953  1.00  0.00    -0.286 OA
BRANCH  10  12
HETATM   12  C2  UNL     1      27.675   0.380  53.634  1.00  0.00    -0.004 C 
HETATM   13  C3  UNL     1      29.022   0.498  53.694  1.00  0.00    -0.011 C 
HETATM   14  C4  UNL     1      30.144  -0.500  53.668  1.00  0.00     0.057 C 
HETATM   15  C5  UNL     1      29.729  -1.826  53.194  1.00  0.00     0.009 C 
HETATM   16  C6  UNL     1      28.425  -1.906  53.188  1.00  0.00     0.044 C 
HETATM   17  C7  UNL     1      27.278  -1.071  53.511  1.00  0.00     0.106 C 
BRANCH  16  18
HETATM   18  O2  UNL     1      28.039  -3.175  52.734  1.00  0.00    -0.365 OA
HETATM   19  H5  UNL     1      28.315  -3.944  53.319  1.00  0.00     0.217 HD
ENDBRANCH  16  18
ENDBRANCH  10  12
ENDBRANCH   1  10
BRANCH   4  20
HETATM   20  N1  UNL     1      22.041   2.441  52.645  1.00  0.00    -0.340 N 
HETATM   21  H9  UNL     1      22.017   3.080  53.497  1.00  0.00     0.167 HD
BRANCH  20  22
HETATM   22  C12 UNL     1      21.292   1.287  52.940  1.00  0.00     0.035 A 
HETATM   23  C13 UNL     1      21.707   0.379  53.901  1.00  0.00     0.032 A 
HETATM   24  C14 UNL     1      21.019  -0.770  54.219  1.00  0.00     0.046 A 
HETATM   25  C15 UNL     1      19.858  -1.022  53.541  1.00  0.00     0.138 A 
HETATM   26  F1  UNL     1      19.122  -2.139  53.807  1.00  0.00    -0.204 F 
HETATM   27  C16 UNL     1      19.376  -0.193  52.586  1.00  0.00     0.074 A 
HETATM   28 CL1  UNL     1      17.898  -0.495  51.715  1.00  0.00    -0.081 Cl
HETATM   29  C17 UNL     1      20.116   0.928  52.327  1.00  0.00     0.056 A 
ENDBRANCH  20  22
ENDBRANCH   4  20
TORSDOF 5
ENDMDL
MODEL 6
REMARK VINA RESULT:      -8.9      2.860      3.860
REMARK  5 active torsions:
REMARK  status: ('A' for Active; 'I' for Inactive)
REMARK    1  A    between atoms: C1_2  and  C2_3 
REMARK    2  A    between atoms: C1_2  and  C8_10 
REMARK    3  A    between atoms: C6_7  and  O2_8 
REMARK    4  A    between atoms: C11_13  and  N1_14 
REMARK    5  A    between atoms: N1_14  and  C12_15 
ROOT
HETATM    1  C8  UNL     1      24.382   0.133  53.124  1.00  0.00     0.058 A 
HETATM    2  C9  UNL     1      23.530   0.617  52.103  1.00  0.00     0.041 A 
HETATM    3  C10 UNL     1      22.133   0.559  51.916  1.00  0.00     0.047 A 
HETATM    4  C11 UNL     1      21.047   0.879  51.113  1.00  0.00     0.142 A 
HETATM    5  N2  UNL     1      19.819   0.534  51.446  1.00  0.00    -0.223 NA
HETATM    6  C18 UNL     1      19.378  -0.117  52.494  1.00  0.00     0.236 A 
HETATM    7  N3  UNL     1      20.355  -0.483  53.351  1.00  0.00    -0.234 NA
HETATM    8  C19 UNL     1      21.651  -0.127  53.011  1.00  0.00     0.113 A 
HETATM    9  S1  UNL     1      23.014  -0.522  53.985  1.00  0.00    -0.066 SA
ENDROOT
BRANCH   1  10
HETATM   10  C1  UNL     1      25.586   0.707  52.368  1.00  0.00     0.195 C 
HETATM   11  O1  UNL     1      26.178   1.504  51.533  1.00  0.00    -0.286 OA
BRANCH  10  12
HETATM   12  C2  UNL     1      26.800  -0.061  52.822  1.00  0.00    -0.004 C 
HETATM   13  C3  UNL     1      27.971   0.503  53.198  1.00  0.00    -0.011 C 
HETATM   14  C4  UNL     1      29.278  -0.060  53.675  1.00  0.00     0.057 C 
HETATM   15  C5  UNL     1      29.422  -1.496  53.407  1.00  0.00     0.009 C 
HETATM   16  C6  UNL     1      28.263  -2.004  53.085  1.00  0.00     0.044 C 
HETATM   17  C7  UNL     1      26.886  -1.565  52.916  1.00  0.00     0.106 C 
BRANCH  16  18
HETATM   18  O2  UNL     1      28.411  -3.376  52.830  1.00  0.00    -0.365 OA
HETATM   19  H5  UNL     1      27.559  -3.909  52.837  1.00  0.00     0.217 HD
ENDBRANCH  16  18
ENDBRANCH  10  12
ENDBRANCH   1  10
BRANCH   4  20
HETATM   20  N1  UNL     1      21.450   1.588  49.956  1.00  0.00    -0.340 N 
HETATM   21  H9  UNL     1      21.278   1.226  48.969  1.00  0.00     0.167 HD
BRANCH  20  22
HETATM   22  C12 UNL     1      22.120   2.821  49.861  1.00  0.00     0.035 A 
HETATM   23  C13 UNL     1      23.336   2.936  49.207  1.00  0.00     0.032 A 
HETATM   24  C14 UNL     1      24.039   4.115  49.096  1.00  0.00     0.046 A 
HETATM   25  C15 UNL     1      23.497   5.233  49.669  1.00  0.00     0.138 A 
HETATM   26  F1  UNL     1      24.135   6.435  49.594  1.00  0.00    -0.204 F 
HETATM   27  C16 UNL     1      22.315   5.215  50.328  1.00  0.00     0.074 A 
HETATM   28 CL1  UNL     1      21.607   6.628  51.059  1.00  0.00    -0.081 Cl
HETATM   29  C17 UNL     1      21.677   4.006  50.395  1.00  0.00     0.056 A 
ENDBRANCH  20  22
ENDBRANCH   4  20
TORSDOF 5
ENDMDL
MODEL 7
REMARK VINA RESULT:      -8.7      3.892      7.476
REMARK  5 active torsions:
REMARK  status: ('A' for Active; 'I' for Inactive)
REMARK    1  A    between atoms: C1_2  and  C2_3 
REMARK    2  A    between atoms: C1_2  and  C8_10 
REMARK    3  A    between atoms: C6_7  and  O2_8 
REMARK    4  A    between atoms: C11_13  and  N1_14 
REMARK    5  A    between atoms: N1_14  and  C12_15 
ROOT
HETATM    1  C8  UNL     1      24.335   5.576  49.847  1.00  0.00     0.058 A 
HETATM    2  C9  UNL     1      24.249   4.258  50.355  1.00  0.00     0.041 A 
HETATM    3  C10 UNL     1      23.235   3.564  51.049  1.00  0.00     0.047 A 
HETATM    4  C11 UNL     1      22.832   2.384  51.658  1.00  0.00     0.142 A 
HETATM    5  N2  UNL     1      21.648   2.273  52.229  1.00  0.00    -0.223 NA
HETATM    6  C18 UNL     1      20.679   3.146  52.343  1.00  0.00     0.236 A 
HETATM    7  N3  UNL     1      20.962   4.342  51.782  1.00  0.00    -0.234 NA
HETATM    8  C19 UNL     1      22.204   4.472  51.181  1.00  0.00     0.113 A 
HETATM    9  S1  UNL     1      22.730   5.928  50.429  1.00  0.00    -0.066 SA
ENDROOT
BRANCH   1  10
HETATM   10  C1  UNL     1      25.748   5.268  49.336  1.00  0.00     0.195 C 
HETATM   11  O1  UNL     1      26.706   4.497  48.923  1.00  0.00    -0.286 OA
BRANCH  10  12
HETATM   12  C2  UNL     1      26.480   6.581  49.244  1.00  0.00    -0.004 C 
HETATM   13  C3  UNL     1      27.480   6.844  48.371  1.00  0.00    -0.011 C 
HETATM   14  C4  UNL     1      28.328   8.056  48.111  1.00  0.00     0.057 C 
HETATM   15  C5  UNL     1      28.271   9.044  49.195  1.00  0.00     0.009 C 
HETATM   16  C6  UNL     1      27.271   8.772  49.991  1.00  0.00     0.044 C 
HETATM   17  C7  UNL     1      26.210   7.784  50.113  1.00  0.00     0.106 C 
BRANCH  16  18
HETATM   18  O2  UNL     1      27.227   9.721  51.023  1.00  0.00    -0.365 OA
HETATM   19  H5  UNL     1      28.119   9.985  51.403  1.00  0.00     0.217 HD
ENDBRANCH  16  18
ENDBRANCH  10  12
ENDBRANCH   1  10
BRANCH   4  20
HETATM   20  N1  UNL     1      23.835   1.389  51.573  1.00  0.00    -0.340 N 
HETATM   21  H9  UNL     1      23.916   0.722  50.747  1.00  0.00     0.167 HD
BRANCH  20  22
HETATM   22  C12 UNL     1      24.855   1.079  52.491  1.00  0.00     0.035 A 
HETATM   23  C13 UNL     1      24.741   0.011  53.367  1.00  0.00     0.032 A 
HETATM   24  C14 UNL     1      25.704  -0.328  54.292  1.00  0.00     0.046 A 
HETATM   25  C15 UNL     1      26.834   0.441  54.341  1.00  0.00     0.138 A 
HETATM   26  F1  UNL     1      27.831   0.161  55.229  1.00  0.00    -0.204 F 
HETATM   27  C16 UNL     1      27.031   1.502  53.525  1.00  0.00     0.074 A 
HETATM   28 CL1  UNL     1      28.466   2.489  53.570  1.00  0.00    -0.081 Cl
HETATM   29  C17 UNL     1      26.030   1.776  52.634  1.00  0.00     0.056 A 
ENDBRANCH  20  22
ENDBRANCH   4  20
TORSDOF 5
ENDMDL
MODEL 8
REMARK VINA RESULT:      -8.7      4.668      6.742
REMARK  5 active torsions:
REMARK  status: ('A' for Active; 'I' for Inactive)
REMARK    1  A    between atoms: C1_2  and  C2_3 
REMARK    2  A    between atoms: C1_2  and  C8_10 
REMARK    3  A    between atoms: C6_7  and  O2_8 
REMARK    4  A    between atoms: C11_13  and  N1_14 
REMARK    5  A    between atoms: N1_14  and  C12_15 
ROOT
HETATM    1  C8  UNL     1      25.174   2.017  51.369  1.00  0.00     0.058 A 
HETATM    2  C9  UNL     1      23.868   2.367  51.786  1.00  0.00     0.041 A 
HETATM    3  C10 UNL     1      22.959   3.357  51.354  1.00  0.00     0.047 A 
HETATM    4  C11 UNL     1      21.715   3.951  51.514  1.00  0.00     0.142 A 
HETATM    5  N2  UNL     1      21.335   4.966  50.763  1.00  0.00    -0.223 NA
HETATM    6  C18 UNL     1      21.966   5.586  49.796  1.00  0.00     0.236 A 
HETATM    7  N3  UNL     1      23.198   5.089  49.551  1.00  0.00    -0.234 NA
HETATM    8  C19 UNL     1      23.609   4.022  50.335  1.00  0.00     0.113 A 
HETATM    9  S1  UNL     1      25.150   3.276  50.163  1.00  0.00    -0.066 SA
ENDROOT
BRANCH   1  10
HETATM   10  C1  UNL     1      25.197   0.909  52.429  1.00  0.00     0.195 C 
HETATM   11  O1  UNL     1      24.669   0.006  53.196  1.00  0.00    -0.286 OA
BRANCH  10  12
HETATM   12  C2  UNL     1      26.631   0.734  52.853  1.00  0.00    -0.004 C 
HETATM   13  C3  UNL     1      27.251  -0.461  52.991  1.00  0.00    -0.011 C 
HETATM   14  C4  UNL     1      28.643  -0.859  53.392  1.00  0.00     0.057 C 
HETATM   15  C5  UNL     1      29.390   0.225  54.041  1.00  0.00     0.009 C 
HETATM   16  C6  UNL     1      28.775   1.362  53.852  1.00  0.00     0.044 C 
HETATM   17  C7  UNL     1      27.577   1.860  53.191  1.00  0.00     0.106 C 
BRANCH  16  18
HETATM   18  O2  UNL     1      29.495   2.391  54.476  1.00  0.00    -0.365 OA
HETATM   19  H5  UNL     1      29.517   2.353  55.480  1.00  0.00     0.217 HD
ENDBRANCH  16  18
ENDBRANCH  10  12
ENDBRANCH   1  10
BRANCH   4  20
HETATM   20  N1  UNL     1      20.974   3.330  52.547  1.00  0.00    -0.340 N 
HETATM   21  H9  UNL     1      20.857   3.762  53.513  1.00  0.00     0.167 HD
BRANCH  20  22
HETATM   22  C12 UNL     1      20.291   2.099  52.530  1.00  0.00     0.035 A 
HETATM   23  C13 UNL     1      19.140   1.920  51.779  1.00  0.00     0.032 A 
HETATM   24  C14 UNL     1      18.428   0.742  51.738  1.00  0.00     0.046 A 
HETATM   25  C15 UNL     1      18.892  -0.306  52.485  1.00  0.00     0.138 A 
HETATM   26  F1  UNL     1      18.240  -1.504  52.489  1.00  0.00    -0.204 F 
HETATM   27  C16 UNL     1      20.006  -0.222  53.249  1.00  0.00     0.074 A 
HETATM   28 CL1  UNL     1      20.613  -1.545  54.203  1.00  0.00    -0.081 Cl
HETATM   29  C17 UNL     1      20.658   0.981  53.238  1.00  0.00     0.056 A 
ENDBRANCH  20  22
ENDBRANCH   4  20
TORSDOF 5
ENDMDL
MODEL 9
REMARK VINA RESULT:      -8.6      4.222      7.396
REMARK  5 active torsions:
REMARK  status: ('A' for Active; 'I' for Inactive)
REMARK    1  A    between atoms: C1_2  and  C2_3 
REMARK    2  A    between atoms: C1_2  and  C8_10 
REMARK    3  A    between atoms: C6_7  and  O2_8 
REMARK    4  A    between atoms: C11_13  and  N1_14 
REMARK    5  A    between atoms: N1_14  and  C12_15 
ROOT
HETATM    1  C8  UNL     1      22.089   2.617  51.119  1.00  0.00     0.058 A 
HETATM    2  C9  UNL     1      23.042   1.683  51.590  1.00  0.00     0.041 A 
HETATM    3  C10 UNL     1      23.018   0.736  52.636  1.00  0.00     0.047 A 
HETATM    4  C11 UNL     1      23.698  -0.251  53.336  1.00  0.00     0.142 A 
HETATM    5  N2  UNL     1      23.143  -0.881  54.353  1.00  0.00    -0.223 NA
HETATM    6  C18 UNL     1      21.954  -0.744  54.885  1.00  0.00     0.236 A 
HETATM    7  N3  UNL     1      21.198   0.197  54.281  1.00  0.00    -0.234 NA
HETATM    8  C19 UNL     1      21.771   0.868  53.211  1.00  0.00     0.113 A 
HETATM    9  S1  UNL     1      20.951   2.101  52.335  1.00  0.00    -0.066 SA
ENDROOT
BRANCH   1  10
HETATM   10  C1  UNL     1      23.090   3.072  50.050  1.00  0.00     0.195 C 
HETATM   11  O1  UNL     1      23.822   2.929  48.989  1.00  0.00    -0.286 OA
BRANCH  10  12
HETATM   12  C2  UNL     1      23.468   4.493  50.376  1.00  0.00    -0.004 C 
HETATM   13  C3  UNL     1      22.585   5.506  50.537  1.00  0.00    -0.011 C 
HETATM   14  C4  UNL     1      22.740   6.965  50.858  1.00  0.00     0.057 C 
HETATM   15  C5  UNL     1      24.110   7.456  50.675  1.00  0.00     0.009 C 
HETATM   16  C6  UNL     1      24.931   6.446  50.561  1.00  0.00     0.044 C 
HETATM   17  C7  UNL     1      24.880   4.992  50.563  1.00  0.00     0.106 C 
BRANCH  16  18
HETATM   18  O2  UNL     1      26.238   6.925  50.385  1.00  0.00    -0.365 OA
HETATM   19  H5  UNL     1      26.321   7.922  50.294  1.00  0.00     0.217 HD
ENDBRANCH  16  18
ENDBRANCH  10  12
ENDBRANCH   1  10
BRANCH   4  20
HETATM   20  N1  UNL     1      24.997  -0.454  52.813  1.00  0.00    -0.340 N 
HETATM   21  H9  UNL     1      25.202  -1.150  52.033  1.00  0.00     0.167 HD
BRANCH  20  22
HETATM   22  C12 UNL     1      26.208   0.159  53.185  1.00  0.00     0.035 A 
HETATM   23  C13 UNL     1      26.271   1.508  53.495  1.00  0.00     0.032 A 
HETATM   24  C14 UNL     1      27.431   2.159  53.853  1.00  0.00     0.046 A 
HETATM   25  C15 UNL     1      28.582   1.422  53.903  1.00  0.00     0.138 A 
HETATM   26  F1  UNL     1      29.767   1.999  54.254  1.00  0.00    -0.204 F 
HETATM   27  C16 UNL     1      28.615   0.099  53.616  1.00  0.00     0.074 A 
HETATM   28 CL1  UNL     1      30.070  -0.856  53.678  1.00  0.00    -0.081 Cl
HETATM   29  C17 UNL     1      27.423  -0.475  53.269  1.00  0.00     0.056 A 
ENDBRANCH  20  22
ENDBRANCH   4  20
TORSDOF 5
ENDMDL
