MODEL 1
REMARK VINA RESULT:      -8.9      0.000      0.000
REMARK  4 active torsions:
REMARK  status: ('A' for Active; 'I' for Inactive)
REMARK    1  A    between atoms: C3_3  and  C4_4 
REMARK    2  A    between atoms: C23_26  and  C24_27 
REMARK    3  A    between atoms: C24_27  and  C25_28 
REMARK    4  A    between atoms: C25_28  and  O2_29 
ROOT
HETATM    1  C4  UNL     1      23.265   6.356  50.632  1.00  0.00     0.025 C 
HETATM    2  C5  UNL     1      23.061   5.412  51.518  1.00  0.00     0.014 C 
HETATM    3  C6  UNL     1      23.626   5.037  52.870  1.00  0.00     0.063 C 
HETATM    4  C7  UNL     1      23.928   3.510  52.632  1.00  0.00     0.065 C 
HETATM    5  C8  UNL     1      22.608   3.130  52.070  1.00  0.00     0.042 C 
HETATM    6  C9  UNL     1      22.007   1.904  52.250  1.00  0.00     0.070 A 
HETATM    7  C10 UNL     1      22.893   1.216  53.012  1.00  0.00     0.010 A 
HETATM    8  C11 UNL     1      24.157   1.010  53.235  1.00  0.00    -0.040 C 
HETATM    9  C12 UNL     1      24.943   0.193  54.191  1.00  0.00     0.158 C 
HETATM   10  N1  UNL     1      25.422  -0.945  53.517  1.00  0.00    -0.357 N 
HETATM   11  C13 UNL     1      26.082  -0.223  52.499  1.00  0.00     0.221 C 
HETATM   12  O1  UNL     1      26.996  -0.504  51.645  1.00  0.00    -0.273 OA
HETATM   13  C14 UNL     1      25.495   1.177  52.517  1.00  0.00     0.139 C 
HETATM   14  C15 UNL     1      22.062   0.145  53.425  1.00  0.00     0.004 A 
HETATM   15  C16 UNL     1      22.094  -0.988  54.207  1.00  0.00     0.014 A 
HETATM   16  C17 UNL     1      21.079  -1.872  54.450  1.00  0.00     0.001 A 
HETATM   17  C18 UNL     1      19.842  -1.617  53.841  1.00  0.00     0.002 A 
HETATM   18  C19 UNL     1      19.749  -0.508  53.052  1.00  0.00     0.030 A 
HETATM   19  C20 UNL     1      20.804   0.354  52.834  1.00  0.00     0.046 A 
HETATM   20  N2  UNL     1      20.754   1.480  52.062  1.00  0.00    -0.337 N 
HETATM   21  C21 UNL     1      19.700   1.945  51.230  1.00  0.00     0.115 C 
HETATM   22  C22 UNL     1      18.816   0.790  50.710  1.00  0.00     0.035 C 
HETATM   23  C23 UNL     1      20.180   2.532  49.918  1.00  0.00     0.148 C 
HETATM   24  O3  UNL     1      20.817   3.643  49.796  1.00  0.00    -0.364 OA
HETATM   25  C26 UNL     1      20.830   4.614  50.732  1.00  0.00     0.299 C 
HETATM   26  N3  UNL     1      22.127   4.350  51.423  1.00  0.00    -0.330 N 
HETATM   27  H13 UNL     1      25.442  -1.968  53.524  1.00  0.00     0.162 HD
ENDROOT
BRANCH  23  28
HETATM   28  C24 UNL     1      21.028   1.414  49.280  1.00  0.00     0.060 C 
BRANCH  28  29
HETATM   29  C25 UNL     1      21.837   2.009  48.117  1.00  0.00     0.166 C 
BRANCH  29  30
HETATM   30  O2  UNL     1      23.018   2.491  48.633  1.00  0.00    -0.401 OA
HETATM   31  H29 UNL     1      22.907   3.466  48.788  1.00  0.00     0.209 HD
ENDBRANCH  29  30
ENDBRANCH  28  29
ENDBRANCH  23  28
BRANCH   1  32
HETATM   32  C3  UNL     1      22.929   6.947  49.353  1.00  0.00    -0.002 C 
HETATM   33  C2  UNL     1      21.888   7.741  49.166  1.00  0.00    -0.031 C 
HETATM   34  C1  UNL     1      20.808   8.280  50.014  1.00  0.00     0.036 C 
ENDBRANCH   1  32
TORSDOF 4
ENDMDL
MODEL 2
REMARK VINA RESULT:      -8.4      3.217      7.400
REMARK  4 active torsions:
REMARK  status: ('A' for Active; 'I' for Inactive)
REMARK    1  A    between atoms: C3_3  and  C4_4 
REMARK    2  A    between atoms: C23_26  and  C24_27 
REMARK    3  A    between atoms: C24_27  and  C25_28 
REMARK    4  A    between atoms: C25_28  and  O2_29 
ROOT
HETATM    1  C4  UNL     1      26.742   2.005  51.737  1.00  0.00     0.025 C 
HETATM    2  C5  UNL     1      26.286   2.633  50.681  1.00  0.00     0.014 C 
HETATM    3  C6  UNL     1      26.869   3.193  49.402  1.00  0.00     0.063 C 
HETATM    4  C7  UNL     1      26.248   4.639  49.424  1.00  0.00     0.065 C 
HETATM    5  C8  UNL     1      24.839   4.248  49.677  1.00  0.00     0.042 C 
HETATM    6  C9  UNL     1      23.742   4.924  49.188  1.00  0.00     0.070 A 
HETATM    7  C10 UNL     1      24.279   5.951  48.483  1.00  0.00     0.010 A 
HETATM    8  C11 UNL     1      25.250   6.813  48.450  1.00  0.00    -0.040 C 
HETATM    9  C12 UNL     1      25.685   7.882  47.518  1.00  0.00     0.158 C 
HETATM   10  N1  UNL     1      25.310   9.126  48.060  1.00  0.00    -0.357 N 
HETATM   11  C13 UNL     1      25.987   8.941  49.284  1.00  0.00     0.221 C 
HETATM   12  O1  UNL     1      26.378   9.723  50.222  1.00  0.00    -0.273 OA
HETATM   13  C14 UNL     1      26.257   7.452  49.405  1.00  0.00     0.139 C 
HETATM   14  C15 UNL     1      23.133   6.358  47.756  1.00  0.00     0.004 A 
HETATM   15  C16 UNL     1      22.745   7.279  46.808  1.00  0.00     0.014 A 
HETATM   16  C17 UNL     1      21.508   7.437  46.247  1.00  0.00     0.001 A 
HETATM   17  C18 UNL     1      20.491   6.568  46.668  1.00  0.00     0.002 A 
HETATM   18  C19 UNL     1      20.816   5.633  47.608  1.00  0.00     0.030 A 
HETATM   19  C20 UNL     1      22.080   5.514  48.149  1.00  0.00     0.046 A 
HETATM   20  N2  UNL     1      22.453   4.588  49.082  1.00  0.00    -0.337 N 
HETATM   21  C21 UNL     1      21.644   3.657  49.787  1.00  0.00     0.115 C 
HETATM   22  C22 UNL     1      20.188   4.150  49.941  1.00  0.00     0.035 C 
HETATM   23  C23 UNL     1      22.033   3.499  51.243  1.00  0.00     0.148 C 
HETATM   24  O3  UNL     1      23.112   2.937  51.662  1.00  0.00    -0.364 OA
HETATM   25  C26 UNL     1      23.861   2.094  50.922  1.00  0.00     0.299 C 
HETATM   26  N3  UNL     1      24.940   3.000  50.430  1.00  0.00    -0.330 N 
HETATM   27  H13 UNL     1      24.785   9.985  47.880  1.00  0.00     0.162 HD
ENDROOT
BRANCH  23  28
HETATM   28  C24 UNL     1      21.978   4.929  51.816  1.00  0.00     0.060 C 
BRANCH  28  29
HETATM   29  C25 UNL     1      23.048   5.065  52.911  1.00  0.00     0.166 C 
BRANCH  29  30
HETATM   30  O2  UNL     1      23.982   5.974  52.471  1.00  0.00    -0.401 OA
HETATM   31  H29 UNL     1      23.502   6.693  51.983  1.00  0.00     0.209 HD
ENDBRANCH  29  30
ENDBRANCH  28  29
ENDBRANCH  23  28
BRANCH   1  32
HETATM   32  C3  UNL     1      26.477   1.389  53.021  1.00  0.00    -0.002 C 
HETATM   33  C2  UNL     1      26.481   0.081  53.219  1.00  0.00    -0.031 C 
HETATM   34  C1  UNL     1      26.712  -1.111  52.381  1.00  0.00     0.036 C 
ENDBRANCH   1  32
TORSDOF 4
ENDMDL
MODEL 3
REMARK VINA RESULT:      -8.2      2.077      4.874
REMARK  4 active torsions:
REMARK  status: ('A' for Active; 'I' for Inactive)
REMARK    1  A    between atoms: C3_3  and  C4_4 
REMARK    2  A    between atoms: C23_26  and  C24_27 
REMARK    3  A    between atoms: C24_27  and  C25_28 
REMARK    4  A    between atoms: C25_28  and  O2_29 
ROOT
HETATM    1  C4  UNL     1      22.274   4.745  46.880  1.00  0.00     0.025 C 
HETATM    2  C5  UNL     1      22.138   3.627  47.550  1.00  0.00     0.014 C 
HETATM    3  C6  UNL     1      21.439   2.301  47.339  1.00  0.00     0.063 C 
HETATM    4  C7  UNL     1      20.676   2.169  48.710  1.00  0.00     0.065 C 
HETATM    5  C8  UNL     1      21.824   2.451  49.607  1.00  0.00     0.042 C 
HETATM    6  C9  UNL     1      21.997   1.887  50.853  1.00  0.00     0.070 A 
HETATM    7  C10 UNL     1      20.914   1.085  51.001  1.00  0.00     0.010 A 
HETATM    8  C11 UNL     1      19.644   0.970  50.751  1.00  0.00    -0.040 C 
HETATM    9  C12 UNL     1      18.608  -0.064  50.991  1.00  0.00     0.158 C 
HETATM   10  N1  UNL     1      17.814   0.344  52.079  1.00  0.00    -0.357 N 
HETATM   11  C13 UNL     1      17.452   1.586  51.514  1.00  0.00     0.221 C 
HETATM   12  O1  UNL     1      16.525   2.441  51.742  1.00  0.00    -0.273 OA
HETATM   13  C14 UNL     1      18.453   1.862  50.406  1.00  0.00     0.139 C 
HETATM   14  C15 UNL     1      21.348   0.311  52.106  1.00  0.00     0.004 A 
HETATM   15  C16 UNL     1      20.931  -0.729  52.908  1.00  0.00     0.014 A 
HETATM   16  C17 UNL     1      21.604  -1.313  53.945  1.00  0.00     0.001 A 
HETATM   17  C18 UNL     1      22.877  -0.811  54.252  1.00  0.00     0.002 A 
HETATM   18  C19 UNL     1      23.344   0.222  53.493  1.00  0.00     0.030 A 
HETATM   19  C20 UNL     1      22.625   0.781  52.456  1.00  0.00     0.046 A 
HETATM   20  N2  UNL     1      23.056   1.807  51.663  1.00  0.00    -0.337 N 
HETATM   21  C21 UNL     1      24.230   2.598  51.788  1.00  0.00     0.115 C 
HETATM   22  C22 UNL     1      24.717   2.690  53.251  1.00  0.00     0.035 C 
HETATM   23  C23 UNL     1      24.005   4.066  51.484  1.00  0.00     0.148 C 
HETATM   24  O3  UNL     1      23.758   4.548  50.316  1.00  0.00    -0.364 OA
HETATM   25  C26 UNL     1      24.024   3.905  49.162  1.00  0.00     0.299 C 
HETATM   26  N3  UNL     1      22.689   3.329  48.821  1.00  0.00    -0.330 N 
HETATM   27  H13 UNL     1      17.470   0.074  53.003  1.00  0.00     0.162 HD
ENDROOT
BRANCH  23  28
HETATM   28  C24 UNL     1      22.866   4.488  52.433  1.00  0.00     0.060 C 
BRANCH  28  29
HETATM   29  C25 UNL     1      21.989   5.530  51.721  1.00  0.00     0.166 C 
BRANCH  29  30
HETATM   30  O2  UNL     1      22.707   6.702  51.652  1.00  0.00    -0.401 OA
HETATM   31  H29 UNL     1      22.710   7.111  52.557  1.00  0.00     0.209 HD
ENDBRANCH  29  30
ENDBRANCH  28  29
ENDBRANCH  23  28
BRANCH   1  32
HETATM   32  C3  UNL     1      22.822   6.084  46.804  1.00  0.00    -0.002 C 
HETATM   33  C2  UNL     1      22.350   7.107  47.495  1.00  0.00    -0.031 C 
HETATM   34  C1  UNL     1      21.260   7.308  48.470  1.00  0.00     0.036 C 
ENDBRANCH   1  32
TORSDOF 4
ENDMDL
MODEL 4
REMARK VINA RESULT:      -7.9      3.388      6.519
REMARK  4 active torsions:
REMARK  status: ('A' for Active; 'I' for Inactive)
REMARK    1  A    between atoms: C3_3  and  C4_4 
REMARK    2  A    between atoms: C23_26  and  C24_27 
REMARK    3  A    between atoms: C24_27  and  C25_28 
REMARK    4  A    between atoms: C25_28  and  O2_29 
ROOT
HETATM    1  C4  UNL     1      19.324   2.927  48.593  1.00  0.00     0.025 C 
HETATM    2  C5  UNL     1      20.605   3.036  48.342  1.00  0.00     0.014 C 
HETATM    3  C6  UNL     1      21.751   2.090  48.061  1.00  0.00     0.063 C 
HETATM    4  C7  UNL     1      22.818   2.633  49.084  1.00  0.00     0.065 C 
HETATM    5  C8  UNL     1      22.726   4.070  48.725  1.00  0.00     0.042 C 
HETATM    6  C9  UNL     1      23.782   4.954  48.766  1.00  0.00     0.070 A 
HETATM    7  C10 UNL     1      24.823   4.197  49.194  1.00  0.00     0.010 A 
HETATM    8  C11 UNL     1      25.166   3.223  49.983  1.00  0.00    -0.040 C 
HETATM    9  C12 UNL     1      26.424   2.499  50.285  1.00  0.00     0.158 C 
HETATM   10  N1  UNL     1      26.922   2.963  51.517  1.00  0.00    -0.357 N 
HETATM   11  C13 UNL     1      25.749   2.672  52.246  1.00  0.00     0.221 C 
HETATM   12  O1  UNL     1      25.476   2.535  53.491  1.00  0.00    -0.273 OA
HETATM   13  C14 UNL     1      24.638   2.508  51.225  1.00  0.00     0.139 C 
HETATM   14  C15 UNL     1      25.892   5.070  48.873  1.00  0.00     0.004 A 
HETATM   15  C16 UNL     1      27.267   5.135  48.925  1.00  0.00     0.014 A 
HETATM   16  C17 UNL     1      28.078   6.152  48.502  1.00  0.00     0.001 A 
HETATM   17  C18 UNL     1      27.460   7.280  47.943  1.00  0.00     0.002 A 
HETATM   18  C19 UNL     1      26.098   7.275  47.866  1.00  0.00     0.030 A 
HETATM   19  C20 UNL     1      25.321   6.224  48.310  1.00  0.00     0.046 A 
HETATM   20  N2  UNL     1      23.957   6.171  48.243  1.00  0.00    -0.337 N 
HETATM   21  C21 UNL     1      23.043   7.184  47.846  1.00  0.00     0.115 C 
HETATM   22  C22 UNL     1      23.603   8.602  48.094  1.00  0.00     0.035 C 
HETATM   23  C23 UNL     1      21.790   7.234  48.697  1.00  0.00     0.148 C 
HETATM   24  O3  UNL     1      20.861   6.343  48.696  1.00  0.00    -0.364 OA
HETATM   25  C26 UNL     1      20.674   5.448  47.705  1.00  0.00     0.299 C 
HETATM   26  N3  UNL     1      21.351   4.238  48.257  1.00  0.00    -0.330 N 
HETATM   27  H13 UNL     1      27.732   3.380  51.980  1.00  0.00     0.162 HD
ENDROOT
BRANCH  23  28
HETATM   28  C24 UNL     1      22.307   7.393  50.140  1.00  0.00     0.060 C 
BRANCH  28  29
HETATM   29  C25 UNL     1      21.415   6.566  51.080  1.00  0.00     0.166 C 
BRANCH  29  30
HETATM   30  O2  UNL     1      22.241   5.855  51.919  1.00  0.00    -0.401 OA
HETATM   31  H29 UNL     1      23.138   6.279  51.895  1.00  0.00     0.209 HD
ENDBRANCH  29  30
ENDBRANCH  28  29
ENDBRANCH  23  28
BRANCH   1  32
HETATM   32  C3  UNL     1      18.059   3.571  48.884  1.00  0.00    -0.002 C 
HETATM   33  C2  UNL     1      17.701   3.965  50.094  1.00  0.00    -0.031 C 
HETATM   34  C1  UNL     1      18.311   3.931  51.437  1.00  0.00     0.036 C 
ENDBRANCH   1  32
TORSDOF 4
ENDMDL
MODEL 5
REMARK VINA RESULT:      -7.7      9.267     12.953
REMARK  4 active torsions:
REMARK  status: ('A' for Active; 'I' for Inactive)
REMARK    1  A    between atoms: C3_3  and  C4_4 
REMARK    2  A    between atoms: C23_26  and  C24_27 
REMARK    3  A    between atoms: C24_27  and  C25_28 
REMARK    4  A    between atoms: C25_28  and  O2_29 
ROOT
HETATM    1  C4  UNL     1      31.714   4.165  46.967  1.00  0.00     0.025 C 
HETATM    2  C5  UNL     1      31.157   5.168  47.599  1.00  0.00     0.014 C 
HETATM    3  C6  UNL     1      30.004   5.352  48.561  1.00  0.00     0.063 C 
HETATM    4  C7  UNL     1      29.242   6.538  47.858  1.00  0.00     0.065 C 
HETATM    5  C8  UNL     1      30.406   7.437  47.664  1.00  0.00     0.042 C 
HETATM    6  C9  UNL     1      30.345   8.813  47.705  1.00  0.00     0.070 A 
HETATM    7  C10 UNL     1      29.036   9.073  47.946  1.00  0.00     0.010 A 
HETATM    8  C11 UNL     1      27.820   8.688  47.698  1.00  0.00    -0.040 C 
HETATM    9  C12 UNL     1      26.466   9.124  48.116  1.00  0.00     0.158 C 
HETATM   10  N1  UNL     1      25.884   9.847  47.057  1.00  0.00    -0.357 N 
HETATM   11  C13 UNL     1      26.029   8.817  46.104  1.00  0.00     0.221 C 
HETATM   12  O1  UNL     1      25.500   8.566  44.963  1.00  0.00    -0.273 OA
HETATM   13  C14 UNL     1      27.064   7.857  46.663  1.00  0.00     0.139 C 
HETATM   14  C15 UNL     1      29.134  10.439  48.312  1.00  0.00     0.004 A 
HETATM   15  C16 UNL     1      28.347  11.490  48.727  1.00  0.00     0.014 A 
HETATM   16  C17 UNL     1      28.740  12.761  49.044  1.00  0.00     0.001 A 
HETATM   17  C18 UNL     1      30.107  13.059  48.942  1.00  0.00     0.002 A 
HETATM   18  C19 UNL     1      30.938  12.057  48.534  1.00  0.00     0.030 A 
HETATM   19  C20 UNL     1      30.493  10.787  48.222  1.00  0.00     0.046 A 
HETATM   20  N2  UNL     1      31.288   9.752  47.820  1.00  0.00    -0.337 N 
HETATM   21  C21 UNL     1      32.675   9.760  47.511  1.00  0.00     0.115 C 
HETATM   22  C22 UNL     1      33.154  11.144  47.020  1.00  0.00     0.035 C 
HETATM   23  C23 UNL     1      33.032   8.907  46.310  1.00  0.00     0.148 C 
HETATM   24  O3  UNL     1      32.994   7.621  46.281  1.00  0.00    -0.364 OA
HETATM   25  C26 UNL     1      32.997   6.840  47.380  1.00  0.00     0.299 C 
HETATM   26  N3  UNL     1      31.545   6.530  47.536  1.00  0.00    -0.330 N 
HETATM   27  H13 UNL     1      25.459  10.740  46.797  1.00  0.00     0.162 HD
ENDROOT
BRANCH  23  28
HETATM   28  C24 UNL     1      32.138   9.443  45.175  1.00  0.00     0.060 C 
BRANCH  28  29
HETATM   29  C25 UNL     1      32.045   8.376  44.072  1.00  0.00     0.166 C 
BRANCH  29  30
HETATM   30  O2  UNL     1      30.817   7.767  44.185  1.00  0.00    -0.401 OA
HETATM   31  H29 UNL     1      30.842   6.931  43.649  1.00  0.00     0.209 HD
ENDBRANCH  29  30
ENDBRANCH  28  29
ENDBRANCH  23  28
BRANCH   1  32
HETATM   32  C3  UNL     1      32.735   3.690  46.055  1.00  0.00    -0.002 C 
HETATM   33  C2  UNL     1      33.961   3.372  46.432  1.00  0.00    -0.031 C 
HETATM   34  C1  UNL     1      34.701   3.359  47.709  1.00  0.00     0.036 C 
ENDBRANCH   1  32
TORSDOF 4
ENDMDL
MODEL 6
REMARK VINA RESULT:      -7.7     10.720     13.310
REMARK  4 active torsions:
REMARK  status: ('A' for Active; 'I' for Inactive)
REMARK    1  A    between atoms: C3_3  and  C4_4 
REMARK    2  A    between atoms: C23_26  and  C24_27 
REMARK    3  A    between atoms: C24_27  and  C25_28 
REMARK    4  A    between atoms: C25_28  and  O2_29 
ROOT
HETATM    1  C4  UNL     1      31.559  11.907  45.895  1.00  0.00     0.025 C 
HETATM    2  C5  UNL     1      32.409  10.910  45.861  1.00  0.00     0.014 C 
HETATM    3  C6  UNL     1      33.688  10.585  45.122  1.00  0.00     0.063 C 
HETATM    4  C7  UNL     1      33.347   9.139  44.599  1.00  0.00     0.065 C 
HETATM    5  C8  UNL     1      32.877   8.566  45.885  1.00  0.00     0.042 C 
HETATM    6  C9  UNL     1      33.043   7.250  46.259  1.00  0.00     0.070 A 
HETATM    7  C10 UNL     1      33.692   6.692  45.207  1.00  0.00     0.010 A 
HETATM    8  C11 UNL     1      33.798   6.691  43.912  1.00  0.00    -0.040 C 
HETATM    9  C12 UNL     1      34.642   5.982  42.920  1.00  0.00     0.158 C 
HETATM   10  N1  UNL     1      33.872   4.965  42.325  1.00  0.00    -0.357 N 
HETATM   11  C13 UNL     1      32.842   5.826  41.887  1.00  0.00     0.221 C 
HETATM   12  O1  UNL     1      31.901   5.733  41.020  1.00  0.00    -0.273 OA
HETATM   13  C14 UNL     1      32.981   7.106  42.690  1.00  0.00     0.139 C 
HETATM   14  C15 UNL     1      34.117   5.483  45.812  1.00  0.00     0.004 A 
HETATM   15  C16 UNL     1      34.834   4.342  45.525  1.00  0.00     0.014 A 
HETATM   16  C17 UNL     1      35.114   3.293  46.356  1.00  0.00     0.001 A 
HETATM   17  C18 UNL     1      34.624   3.361  47.668  1.00  0.00     0.002 A 
HETATM   18  C19 UNL     1      33.904   4.468  48.012  1.00  0.00     0.030 A 
HETATM   19  C20 UNL     1      33.644   5.502  47.135  1.00  0.00     0.046 A 
HETATM   20  N2  UNL     1      32.939   6.631  47.438  1.00  0.00    -0.337 N 
HETATM   21  C21 UNL     1      32.223   6.945  48.625  1.00  0.00     0.115 C 
HETATM   22  C22 UNL     1      31.719   5.679  49.352  1.00  0.00     0.035 C 
HETATM   23  C23 UNL     1      30.907   7.652  48.368  1.00  0.00     0.148 C 
HETATM   24  O3  UNL     1      30.790   8.858  47.934  1.00  0.00    -0.364 OA
HETATM   25  C26 UNL     1      31.771   9.781  47.994  1.00  0.00     0.299 C 
HETATM   26  N3  UNL     1      32.337   9.712  46.615  1.00  0.00    -0.330 N 
HETATM   27  H13 UNL     1      33.825   3.961  42.138  1.00  0.00     0.162 HD
ENDROOT
BRANCH  23  28
HETATM   28  C24 UNL     1      30.144   6.716  47.410  1.00  0.00     0.060 C 
BRANCH  28  29
HETATM   29  C25 UNL     1      28.636   6.865  47.668  1.00  0.00     0.166 C 
BRANCH  29  30
HETATM   30  O2  UNL     1      28.463   7.082  49.015  1.00  0.00    -0.401 OA
HETATM   31  H29 UNL     1      27.644   7.630  49.133  1.00  0.00     0.209 HD
ENDBRANCH  29  30
ENDBRANCH  28  29
ENDBRANCH  23  28
BRANCH   1  32
HETATM   32  C3  UNL     1      30.345  12.482  46.437  1.00  0.00    -0.002 C 
HETATM   33  C2  UNL     1      29.161  11.900  46.353  1.00  0.00    -0.031 C 
HETATM   34  C1  UNL     1      28.641  10.644  45.779  1.00  0.00     0.036 C 
ENDBRANCH   1  32
TORSDOF 4
ENDMDL
MODEL 7
REMARK VINA RESULT:      -7.7      3.592      8.000
REMARK  4 active torsions:
REMARK  status: ('A' for Active; 'I' for Inactive)
REMARK    1  A    between atoms: C3_3  and  C4_4 
REMARK    2  A    between atoms: C23_26  and  C24_27 
REMARK    3  A    between atoms: C24_27  and  C25_28 
REMARK    4  A    between atoms: C25_28  and  O2_29 
ROOT
HETATM    1  C4  UNL     1      25.199   2.412  51.568  1.00  0.00     0.025 C 
HETATM    2  C5  UNL     1      25.294   3.096  50.454  1.00  0.00     0.014 C 
HETATM    3  C6  UNL     1      26.401   3.491  49.502  1.00  0.00     0.063 C 
HETATM    4  C7  UNL     1      26.122   5.036  49.377  1.00  0.00     0.065 C 
HETATM    5  C8  UNL     1      24.669   4.954  49.087  1.00  0.00     0.042 C 
HETATM    6  C9  UNL     1      23.986   5.833  48.275  1.00  0.00     0.070 A 
HETATM    7  C10 UNL     1      24.938   6.707  47.867  1.00  0.00     0.010 A 
HETATM    8  C11 UNL     1      26.010   7.347  48.231  1.00  0.00    -0.040 C 
HETATM    9  C12 UNL     1      26.959   8.279  47.575  1.00  0.00     0.158 C 
HETATM   10  N1  UNL     1      26.675   9.586  48.013  1.00  0.00    -0.357 N 
HETATM   11  C13 UNL     1      26.810   9.292  49.387  1.00  0.00     0.221 C 
HETATM   12  O1  UNL     1      26.986   9.997  50.444  1.00  0.00    -0.273 OA
HETATM   13  C14 UNL     1      26.709   7.783  49.516  1.00  0.00     0.139 C 
HETATM   14  C15 UNL     1      24.242   7.328  46.800  1.00  0.00     0.004 A 
HETATM   15  C16 UNL     1      24.419   8.288  45.828  1.00  0.00     0.014 A 
HETATM   16  C17 UNL     1      23.529   8.687  44.869  1.00  0.00     0.001 A 
HETATM   17  C18 UNL     1      22.275   8.060  44.850  1.00  0.00     0.002 A 
HETATM   18  C19 UNL     1      22.040   7.100  45.791  1.00  0.00     0.030 A 
HETATM   19  C20 UNL     1      22.970   6.732  46.743  1.00  0.00     0.046 A 
HETATM   20  N2  UNL     1      22.784   5.771  47.695  1.00  0.00    -0.337 N 
HETATM   21  C21 UNL     1      21.603   5.047  48.012  1.00  0.00     0.115 C 
HETATM   22  C22 UNL     1      20.323   5.836  47.660  1.00  0.00     0.035 C 
HETATM   23  C23 UNL     1      21.398   4.845  49.500  1.00  0.00     0.148 C 
HETATM   24  O3  UNL     1      22.114   4.080  50.247  1.00  0.00    -0.364 OA
HETATM   25  C26 UNL     1      22.891   3.082  49.780  1.00  0.00     0.299 C 
HETATM   26  N3  UNL     1      24.235   3.730  49.758  1.00  0.00    -0.330 N 
HETATM   27  H13 UNL     1      26.437  10.531  47.705  1.00  0.00     0.162 HD
ENDROOT
BRANCH  23  28
HETATM   28  C24 UNL     1      21.432   6.268  50.092  1.00  0.00     0.060 C 
BRANCH  28  29
HETATM   29  C25 UNL     1      21.911   6.187  51.550  1.00  0.00     0.166 C 
BRANCH  29  30
HETATM   30  O2  UNL     1      23.219   6.614  51.583  1.00  0.00    -0.401 OA
HETATM   31  H29 UNL     1      23.802   5.818  51.471  1.00  0.00     0.209 HD
ENDBRANCH  29  30
ENDBRANCH  28  29
ENDBRANCH  23  28
BRANCH   1  32
HETATM   32  C3  UNL     1      24.368   1.894  52.636  1.00  0.00    -0.002 C 
HETATM   33  C2  UNL     1      24.568   0.723  53.216  1.00  0.00    -0.031 C 
HETATM   34  C1  UNL     1      25.542  -0.376  53.064  1.00  0.00     0.036 C 
ENDBRANCH   1  32
TORSDOF 4
ENDMDL
MODEL 8
REMARK VINA RESULT:      -7.6      9.366     12.196
REMARK  4 active torsions:
REMARK  status: ('A' for Active; 'I' for Inactive)
REMARK    1  A    between atoms: C3_3  and  C4_4 
REMARK    2  A    between atoms: C23_26  and  C24_27 
REMARK    3  A    between atoms: C24_27  and  C25_28 
REMARK    4  A    between atoms: C25_28  and  O2_29 
ROOT
HETATM    1  C4  UNL     1      28.142  13.389  48.619  1.00  0.00     0.025 C 
HETATM    2  C5  UNL     1      29.091  12.516  48.854  1.00  0.00     0.014 C 
HETATM    3  C6  UNL     1      30.533  12.561  49.311  1.00  0.00     0.063 C 
HETATM    4  C7  UNL     1      31.200  11.651  48.212  1.00  0.00     0.065 C 
HETATM    5  C8  UNL     1      30.261  10.506  48.303  1.00  0.00     0.042 C 
HETATM    6  C9  UNL     1      30.615   9.188  48.109  1.00  0.00     0.070 A 
HETATM    7  C10 UNL     1      31.942   9.246  47.833  1.00  0.00     0.010 A 
HETATM    8  C11 UNL     1      32.867   9.937  47.236  1.00  0.00    -0.040 C 
HETATM    9  C12 UNL     1      34.337   9.823  47.080  1.00  0.00     0.158 C 
HETATM   10  N1  UNL     1      34.612   9.338  45.787  1.00  0.00    -0.357 N 
HETATM   11  C13 UNL     1      33.909  10.362  45.115  1.00  0.00     0.221 C 
HETATM   12  O1  UNL     1      33.905  10.810  43.914  1.00  0.00    -0.273 OA
HETATM   13  C14 UNL     1      32.988  10.996  46.142  1.00  0.00     0.139 C 
HETATM   14  C15 UNL     1      32.273   7.878  47.997  1.00  0.00     0.004 A 
HETATM   15  C16 UNL     1      33.357   7.030  47.943  1.00  0.00     0.014 A 
HETATM   16  C17 UNL     1      33.383   5.682  48.178  1.00  0.00     0.001 A 
HETATM   17  C18 UNL     1      32.172   5.062  48.518  1.00  0.00     0.002 A 
HETATM   18  C19 UNL     1      31.061   5.852  48.586  1.00  0.00     0.030 A 
HETATM   19  C20 UNL     1      31.084   7.209  48.336  1.00  0.00     0.046 A 
HETATM   20  N2  UNL     1      30.001   8.039  48.403  1.00  0.00    -0.337 N 
HETATM   21  C21 UNL     1      28.634   7.707  48.603  1.00  0.00     0.115 C 
HETATM   22  C22 UNL     1      28.301   6.284  48.105  1.00  0.00     0.035 C 
HETATM   23  C23 UNL     1      27.683   8.522  47.749  1.00  0.00     0.148 C 
HETATM   24  O3  UNL     1      27.441   9.777  47.906  1.00  0.00    -0.364 OA
HETATM   25  C26 UNL     1      27.691  10.458  49.042  1.00  0.00     0.299 C 
HETATM   26  N3  UNL     1      28.997  11.108  48.724  1.00  0.00    -0.330 N 
HETATM   27  H13 UNL     1      35.082   8.599  45.261  1.00  0.00     0.162 HD
ENDROOT
BRANCH  23  28
HETATM   28  C24 UNL     1      28.172   8.301  46.304  1.00  0.00     0.060 C 
BRANCH  28  29
HETATM   29  C25 UNL     1      27.582   9.401  45.408  1.00  0.00     0.166 C 
BRANCH  29  30
HETATM   30  O2  UNL     1      28.529  10.392  45.286  1.00  0.00    -0.401 OA
HETATM   31  H29 UNL     1      28.218  11.026  44.588  1.00  0.00     0.209 HD
ENDBRANCH  29  30
ENDBRANCH  28  29
ENDBRANCH  23  28
BRANCH   1  32
HETATM   32  C3  UNL     1      26.779  13.655  48.208  1.00  0.00    -0.002 C 
HETATM   33  C2  UNL     1      26.438  14.651  47.408  1.00  0.00    -0.031 C 
HETATM   34  C1  UNL     1      27.156  15.733  46.707  1.00  0.00     0.036 C 
ENDBRANCH   1  32
TORSDOF 4
ENDMDL
MODEL 9
REMARK VINA RESULT:      -7.4      2.677      7.864
REMARK  4 active torsions:
REMARK  status: ('A' for Active; 'I' for Inactive)
REMARK    1  A    between atoms: C3_3  and  C4_4 
REMARK    2  A    between atoms: C23_26  and  C24_27 
REMARK    3  A    between atoms: C24_27  and  C25_28 
REMARK    4  A    between atoms: C25_28  and  O2_29 
ROOT
HETATM    1  C4  UNL     1      21.169   0.949  51.504  1.00  0.00     0.025 C 
HETATM    2  C5  UNL     1      20.884   2.133  51.020  1.00  0.00     0.014 C 
HETATM    3  C6  UNL     1      19.669   2.811  50.426  1.00  0.00     0.063 C 
HETATM    4  C7  UNL     1      20.301   3.416  49.117  1.00  0.00     0.065 C 
HETATM    5  C8  UNL     1      21.479   4.065  49.744  1.00  0.00     0.042 C 
HETATM    6  C9  UNL     1      22.050   5.238  49.302  1.00  0.00     0.070 A 
HETATM    7  C10 UNL     1      21.296   5.584  48.230  1.00  0.00     0.010 A 
HETATM    8  C11 UNL     1      20.639   5.122  47.208  1.00  0.00    -0.040 C 
HETATM    9  C12 UNL     1      19.816   5.713  46.125  1.00  0.00     0.158 C 
HETATM   10  N1  UNL     1      20.584   5.736  44.945  1.00  0.00    -0.357 N 
HETATM   11  C13 UNL     1      20.860   4.352  44.945  1.00  0.00     0.221 C 
HETATM   12  O1  UNL     1      21.266   3.517  44.061  1.00  0.00    -0.273 OA
HETATM   13  C14 UNL     1      20.580   3.858  46.353  1.00  0.00     0.139 C 
HETATM   14  C15 UNL     1      21.719   6.928  48.072  1.00  0.00     0.004 A 
HETATM   15  C16 UNL     1      21.486   8.032  47.283  1.00  0.00     0.014 A 
HETATM   16  C17 UNL     1      22.059   9.271  47.379  1.00  0.00     0.001 A 
HETATM   17  C18 UNL     1      23.003   9.468  48.397  1.00  0.00     0.002 A 
HETATM   18  C19 UNL     1      23.278   8.408  49.212  1.00  0.00     0.030 A 
HETATM   19  C20 UNL     1      22.674   7.174  49.074  1.00  0.00     0.046 A 
HETATM   20  N2  UNL     1      22.909   6.090  49.871  1.00  0.00    -0.337 N 
HETATM   21  C21 UNL     1      23.877   5.931  50.899  1.00  0.00     0.115 C 
HETATM   22  C22 UNL     1      25.119   6.821  50.671  1.00  0.00     0.035 C 
HETATM   23  C23 UNL     1      24.524   4.561  50.913  1.00  0.00     0.148 C 
HETATM   24  O3  UNL     1      23.932   3.469  51.250  1.00  0.00    -0.364 OA
HETATM   25  C26 UNL     1      22.798   3.417  51.978  1.00  0.00     0.299 C 
HETATM   26  N3  UNL     1      21.764   3.239  50.916  1.00  0.00    -0.330 N 
HETATM   27  H13 UNL     1      20.950   6.340  44.205  1.00  0.00     0.162 HD
ENDROOT
BRANCH  23  28
HETATM   28  C24 UNL     1      25.092   4.385  49.491  1.00  0.00     0.060 C 
BRANCH  28  29
HETATM   29  C25 UNL     1      26.295   3.430  49.553  1.00  0.00     0.166 C 
BRANCH  29  30
HETATM   30  O2  UNL     1      26.916   3.619  50.766  1.00  0.00    -0.401 OA
HETATM   31  H29 UNL     1      26.214   3.635  51.468  1.00  0.00     0.209 HD
ENDBRANCH  29  30
ENDBRANCH  28  29
ENDBRANCH  23  28
BRANCH   1  32
HETATM   32  C3  UNL     1      22.143   0.055  52.096  1.00  0.00    -0.002 C 
HETATM   33  C2  UNL     1      22.137  -0.291  53.372  1.00  0.00    -0.031 C 
HETATM   34  C1  UNL     1      21.296   0.019  54.544  1.00  0.00     0.036 C 
ENDBRANCH   1  32
TORSDOF 4
ENDMDL
