MODEL 1
REMARK VINA RESULT:      -7.9      0.000      0.000
REMARK  4 active torsions:
REMARK  status: ('A' for Active; 'I' for Inactive)
REMARK    1  A    between atoms: O1_2  and  C2_3 
REMARK       I    between atoms: C2_3  and  N1_5 
REMARK    2  A    between atoms: N1_5  and  C3_6 
REMARK    3  A    between atoms: C6_9  and  C7_10 
REMARK    4  A    between atoms: C11_16  and  O3_17 
ROOT
HETATM    1  C7  UNL     1      20.407  -0.523  53.039  1.00  0.00     0.069 A 
HETATM    2  N2  UNL     1      20.207   0.225  52.005  1.00  0.00    -0.232 NA
HETATM    3  C8  UNL     1      18.883   0.386  51.446  1.00  0.00     0.137 A 
HETATM    4  N3  UNL     1      18.964   1.232  50.447  1.00  0.00    -0.244 NA
HETATM    5  C9  UNL     1      17.857   1.655  49.631  1.00  0.00     0.121 C 
HETATM    6  C10 UNL     1      16.559   1.716  49.951  1.00  0.00     0.055 C 
HETATM    7  C11 UNL     1      16.023   1.332  51.277  1.00  0.00     0.066 C 
HETATM    8  C13 UNL     1      16.496   0.469  52.167  1.00  0.00     0.026 C 
HETATM    9  C14 UNL     1      17.724  -0.314  51.975  1.00  0.00     0.105 A 
HETATM   10  C15 UNL     1      18.129  -1.119  53.149  1.00  0.00    -0.008 A 
HETATM   11  C16 UNL     1      19.322  -1.255  53.679  1.00  0.00     0.029 A 
ENDROOT
BRANCH   1  12
HETATM   12  C6  UNL     1      21.782  -0.610  53.521  1.00  0.00    -0.007 A 
HETATM   13  C5  UNL     1      22.794  -0.125  52.720  1.00  0.00     0.016 A 
HETATM   14  C4  UNL     1      24.146  -0.155  53.075  1.00  0.00     0.030 A 
HETATM   15  C3  UNL     1      24.491  -0.697  54.288  1.00  0.00     0.036 A 
HETATM   16  C18 UNL     1      23.494  -1.185  55.098  1.00  0.00     0.030 A 
HETATM   17  C17 UNL     1      22.146  -1.151  54.736  1.00  0.00     0.016 A 
BRANCH  15  18
HETATM   18  N1  UNL     1      25.831  -0.760  54.710  1.00  0.00    -0.303 N 
HETATM   19  C2  UNL     1      26.775   0.318  54.862  1.00  0.00     0.364 C 
HETATM   20  O2  UNL     1      26.405   1.491  54.597  1.00  0.00    -0.238 OA
HETATM   21  H4  UNL     1      25.989  -1.784  54.891  1.00  0.00     0.171 HD
BRANCH  19  22
HETATM   22  O1  UNL     1      28.030  -0.090  55.303  1.00  0.00    -0.309 OA
HETATM   23  C1  UNL     1      29.048  -0.207  54.329  1.00  0.00     0.215 C 
ENDBRANCH  19  22
ENDBRANCH  15  18
ENDBRANCH   1  12
BRANCH   7  24
HETATM   24  O3  UNL     1      14.830   1.966  51.679  1.00  0.00    -0.356 OA
HETATM   25  C12 UNL     1      14.249   1.489  52.878  1.00  0.00     0.210 C 
ENDBRANCH   7  24
TORSDOF 4
ENDMDL
MODEL 2
REMARK VINA RESULT:      -7.8      1.896      9.029
REMARK  4 active torsions:
REMARK  status: ('A' for Active; 'I' for Inactive)
REMARK    1  A    between atoms: O1_2  and  C2_3 
REMARK       I    between atoms: C2_3  and  N1_5 
REMARK    2  A    between atoms: N1_5  and  C3_6 
REMARK    3  A    between atoms: C6_9  and  C7_10 
REMARK    4  A    between atoms: C11_16  and  O3_17 
ROOT
HETATM    1  C7  UNL     1      21.512  -0.386  53.189  1.00  0.00     0.069 A 
HETATM    2  N2  UNL     1      22.334   0.284  52.452  1.00  0.00    -0.232 NA
HETATM    3  C8  UNL     1      23.732   0.394  52.804  1.00  0.00     0.137 A 
HETATM    4  N3  UNL     1      24.336   1.078  51.863  1.00  0.00    -0.244 NA
HETATM    5  C9  UNL     1      25.737   1.404  51.846  1.00  0.00     0.121 C 
HETATM    6  C10 UNL     1      26.754   0.745  52.416  1.00  0.00     0.055 C 
HETATM    7  C11 UNL     1      26.587  -0.499  53.201  1.00  0.00     0.066 C 
HETATM    8  C13 UNL     1      25.543  -0.930  53.897  1.00  0.00     0.026 C 
HETATM    9  C14 UNL     1      24.278  -0.191  54.018  1.00  0.00     0.105 A 
HETATM   10  C15 UNL     1      23.209  -0.919  54.737  1.00  0.00    -0.008 A 
HETATM   11  C16 UNL     1      21.942  -1.044  54.416  1.00  0.00     0.029 A 
ENDROOT
BRANCH   1  12
HETATM   12  C6  UNL     1      20.125  -0.434  52.738  1.00  0.00    -0.007 A 
HETATM   13  C5  UNL     1      19.224  -1.196  53.451  1.00  0.00     0.016 A 
HETATM   14  C4  UNL     1      17.873  -1.318  53.114  1.00  0.00     0.030 A 
HETATM   15  C3  UNL     1      17.411  -0.641  52.012  1.00  0.00     0.036 A 
HETATM   16  C18 UNL     1      18.296   0.123  51.291  1.00  0.00     0.030 A 
HETATM   17  C17 UNL     1      19.644   0.239  51.633  1.00  0.00     0.016 A 
BRANCH  15  18
HETATM   18  N1  UNL     1      16.065  -0.718  51.614  1.00  0.00    -0.303 N 
HETATM   19  C2  UNL     1      14.925  -0.032  52.169  1.00  0.00     0.364 C 
HETATM   20  O2  UNL     1      15.101   0.751  53.138  1.00  0.00    -0.238 OA
HETATM   21  H4  UNL     1      16.078  -1.397  50.811  1.00  0.00     0.171 HD
BRANCH  19  22
HETATM   22  O1  UNL     1      13.723  -0.333  51.537  1.00  0.00    -0.309 OA
HETATM   23  C1  UNL     1      13.691  -1.495  50.732  1.00  0.00     0.215 C 
ENDBRANCH  19  22
ENDBRANCH  15  18
ENDBRANCH   1  12
BRANCH   7  24
HETATM   24  O3  UNL     1      27.690  -1.376  53.231  1.00  0.00    -0.356 OA
HETATM   25  C12 UNL     1      28.934  -0.794  53.572  1.00  0.00     0.210 C 
ENDBRANCH   7  24
TORSDOF 4
ENDMDL
MODEL 3
REMARK VINA RESULT:      -7.8      8.444     12.931
REMARK  4 active torsions:
REMARK  status: ('A' for Active; 'I' for Inactive)
REMARK    1  A    between atoms: O1_2  and  C2_3 
REMARK       I    between atoms: C2_3  and  N1_5 
REMARK    2  A    between atoms: N1_5  and  C3_6 
REMARK    3  A    between atoms: C6_9  and  C7_10 
REMARK    4  A    between atoms: C11_16  and  O3_17 
ROOT
HETATM    1  C7  UNL     1      28.207   5.888  48.258  1.00  0.00     0.069 A 
HETATM    2  N2  UNL     1      29.268   5.167  48.414  1.00  0.00    -0.232 NA
HETATM    3  C8  UNL     1      30.559   5.632  47.958  1.00  0.00     0.137 A 
HETATM    4  N3  UNL     1      31.454   4.733  48.288  1.00  0.00    -0.244 NA
HETATM    5  C9  UNL     1      32.863   4.827  48.010  1.00  0.00     0.121 C 
HETATM    6  C10 UNL     1      33.609   5.927  47.847  1.00  0.00     0.055 C 
HETATM    7  C11 UNL     1      33.071   7.303  47.931  1.00  0.00     0.066 C 
HETATM    8  C13 UNL     1      31.846   7.752  47.689  1.00  0.00     0.026 C 
HETATM    9  C14 UNL     1      30.730   6.897  47.263  1.00  0.00     0.105 A 
HETATM   10  C15 UNL     1      29.425   7.590  47.173  1.00  0.00    -0.008 A 
HETATM   11  C16 UNL     1      28.251   7.188  47.602  1.00  0.00     0.029 A 
ENDROOT
BRANCH   1  12
HETATM   12  C6  UNL     1      26.958   5.322  48.758  1.00  0.00    -0.007 A 
HETATM   13  C5  UNL     1      26.965   4.029  49.239  1.00  0.00     0.016 A 
HETATM   14  C4  UNL     1      25.832   3.383  49.742  1.00  0.00     0.030 A 
HETATM   15  C3  UNL     1      24.643   4.068  49.761  1.00  0.00     0.036 A 
HETATM   16  C18 UNL     1      24.619   5.357  49.285  1.00  0.00     0.030 A 
HETATM   17  C17 UNL     1      25.755   5.996  48.785  1.00  0.00     0.016 A 
BRANCH  15  18
HETATM   18  N1  UNL     1      23.464   3.481  50.252  1.00  0.00    -0.303 N 
HETATM   19  C2  UNL     1      22.970   3.456  51.606  1.00  0.00     0.364 C 
HETATM   20  O2  UNL     1      23.643   4.021  52.507  1.00  0.00    -0.238 OA
HETATM   21  H4  UNL     1      23.020   3.057  49.398  1.00  0.00     0.171 HD
BRANCH  19  22
HETATM   22  O1  UNL     1      21.762   2.785  51.753  1.00  0.00    -0.309 OA
HETATM   23  C1  UNL     1      20.636   3.557  52.123  1.00  0.00     0.215 C 
ENDBRANCH  19  22
ENDBRANCH  15  18
ENDBRANCH   1  12
BRANCH   7  24
HETATM   24  O3  UNL     1      33.976   8.309  48.327  1.00  0.00    -0.356 OA
HETATM   25  C12 UNL     1      35.349   7.983  48.216  1.00  0.00     0.210 C 
ENDBRANCH   7  24
TORSDOF 4
ENDMDL
MODEL 4
REMARK VINA RESULT:      -7.7      1.944      2.761
REMARK  4 active torsions:
REMARK  status: ('A' for Active; 'I' for Inactive)
REMARK    1  A    between atoms: O1_2  and  C2_3 
REMARK       I    between atoms: C2_3  and  N1_5 
REMARK    2  A    between atoms: N1_5  and  C3_6 
REMARK    3  A    between atoms: C6_9  and  C7_10 
REMARK    4  A    between atoms: C11_16  and  O3_17 
ROOT
HETATM    1  C7  UNL     1      21.794   0.666  52.103  1.00  0.00     0.069 A 
HETATM    2  N2  UNL     1      20.997  -0.112  52.757  1.00  0.00    -0.232 NA
HETATM    3  C8  UNL     1      19.569  -0.072  52.537  1.00  0.00     0.137 A 
HETATM    4  N3  UNL     1      19.015  -0.994  53.286  1.00  0.00    -0.244 NA
HETATM    5  C9  UNL     1      17.605  -1.272  53.351  1.00  0.00     0.121 C 
HETATM    6  C10 UNL     1      16.671  -1.069  52.413  1.00  0.00     0.055 C 
HETATM    7  C11 UNL     1      16.959  -0.491  51.081  1.00  0.00     0.066 C 
HETATM    8  C13 UNL     1      17.923   0.338  50.706  1.00  0.00     0.026 C 
HETATM    9  C14 UNL     1      18.949   0.867  51.616  1.00  0.00     0.105 A 
HETATM   10  C15 UNL     1      19.999   1.674  50.955  1.00  0.00    -0.008 A 
HETATM   11  C16 UNL     1      21.299   1.632  51.132  1.00  0.00     0.029 A 
ENDROOT
BRANCH   1  12
HETATM   12  C6  UNL     1      23.217   0.538  52.404  1.00  0.00    -0.007 A 
HETATM   13  C5  UNL     1      24.111   1.330  51.713  1.00  0.00     0.016 A 
HETATM   14  C4  UNL     1      25.494   1.295  51.915  1.00  0.00     0.030 A 
HETATM   15  C3  UNL     1      25.995   0.427  52.852  1.00  0.00     0.036 A 
HETATM   16  C18 UNL     1      25.118  -0.368  53.549  1.00  0.00     0.030 A 
HETATM   17  C17 UNL     1      23.738  -0.328  53.342  1.00  0.00     0.016 A 
BRANCH  15  18
HETATM   18  N1  UNL     1      27.375   0.339  53.108  1.00  0.00    -0.303 N 
HETATM   19  C2  UNL     1      28.222   1.280  53.796  1.00  0.00     0.364 C 
HETATM   20  O2  UNL     1      27.711   2.337  54.250  1.00  0.00    -0.238 OA
HETATM   21  H4  UNL     1      27.653  -0.580  52.676  1.00  0.00     0.171 HD
BRANCH  19  22
HETATM   22  O1  UNL     1      29.553   0.886  53.878  1.00  0.00    -0.309 OA
HETATM   23  C1  UNL     1      29.841  -0.475  53.621  1.00  0.00     0.215 C 
ENDBRANCH  19  22
ENDBRANCH  15  18
ENDBRANCH   1  12
BRANCH   7  24
HETATM   24  O3  UNL     1      16.090  -0.863  50.034  1.00  0.00    -0.356 OA
HETATM   25  C12 UNL     1      15.628   0.190  49.211  1.00  0.00     0.210 C 
ENDBRANCH   7  24
TORSDOF 4
ENDMDL
MODEL 5
REMARK VINA RESULT:      -7.7      1.968      9.409
REMARK  4 active torsions:
REMARK  status: ('A' for Active; 'I' for Inactive)
REMARK    1  A    between atoms: O1_2  and  C2_3 
REMARK       I    between atoms: C2_3  and  N1_5 
REMARK    2  A    between atoms: N1_5  and  C3_6 
REMARK    3  A    between atoms: C6_9  and  C7_10 
REMARK    4  A    between atoms: C11_16  and  O3_17 
ROOT
HETATM    1  C7  UNL     1      23.916   0.542  53.230  1.00  0.00     0.069 A 
HETATM    2  N2  UNL     1      24.837   1.421  53.014  1.00  0.00    -0.232 NA
HETATM    3  C8  UNL     1      26.158   1.273  53.582  1.00  0.00     0.137 A 
HETATM    4  N3  UNL     1      26.896   2.271  53.161  1.00  0.00    -0.244 NA
HETATM    5  C9  UNL     1      28.278   2.481  53.504  1.00  0.00     0.121 C 
HETATM    6  C10 UNL     1      29.199   1.573  53.852  1.00  0.00     0.055 C 
HETATM    7  C11 UNL     1      28.923   0.121  53.945  1.00  0.00     0.066 C 
HETATM    8  C13 UNL     1      27.787  -0.513  54.201  1.00  0.00     0.026 C 
HETATM    9  C14 UNL     1      26.509   0.166  54.457  1.00  0.00     0.105 A 
HETATM   10  C15 UNL     1      25.348  -0.741  54.594  1.00  0.00    -0.008 A 
HETATM   11  C16 UNL     1      24.151  -0.627  54.067  1.00  0.00     0.029 A 
ENDROOT
BRANCH   1  12
HETATM   12  C6  UNL     1      22.620   0.792  52.606  1.00  0.00    -0.007 A 
HETATM   13  C5  UNL     1      21.477   0.496  53.317  1.00  0.00     0.016 A 
HETATM   14  C4  UNL     1      20.184   0.692  52.824  1.00  0.00     0.030 A 
HETATM   15  C3  UNL     1      20.038   1.208  51.560  1.00  0.00     0.036 A 
HETATM   16  C18 UNL     1      21.167   1.508  50.838  1.00  0.00     0.030 A 
HETATM   17  C17 UNL     1      22.456   1.309  51.337  1.00  0.00     0.016 A 
BRANCH  15  18
HETATM   18  N1  UNL     1      18.768   1.431  51.000  1.00  0.00    -0.303 N 
HETATM   19  C2  UNL     1      17.886   2.554  51.194  1.00  0.00     0.364 C 
HETATM   20  O2  UNL     1      18.251   3.487  51.957  1.00  0.00    -0.238 OA
HETATM   21  H4  UNL     1      18.606   0.582  50.399  1.00  0.00     0.171 HD
BRANCH  19  22
HETATM   22  O1  UNL     1      16.693   2.463  50.487  1.00  0.00    -0.309 OA
HETATM   23  C1  UNL     1      15.751   1.507  50.930  1.00  0.00     0.215 C 
ENDBRANCH  19  22
ENDBRANCH  15  18
ENDBRANCH   1  12
BRANCH   7  24
HETATM   24  O3  UNL     1      30.019  -0.740  53.733  1.00  0.00    -0.356 OA
HETATM   25  C12 UNL     1      29.700  -2.090  53.455  1.00  0.00     0.210 C 
ENDBRANCH   7  24
TORSDOF 4
ENDMDL
MODEL 6
REMARK VINA RESULT:      -7.7      2.112      9.144
REMARK  4 active torsions:
REMARK  status: ('A' for Active; 'I' for Inactive)
REMARK    1  A    between atoms: O1_2  and  C2_3 
REMARK       I    between atoms: C2_3  and  N1_5 
REMARK    2  A    between atoms: N1_5  and  C3_6 
REMARK    3  A    between atoms: C6_9  and  C7_10 
REMARK    4  A    between atoms: C11_16  and  O3_17 
ROOT
HETATM    1  C7  UNL     1      22.246   0.272  52.324  1.00  0.00     0.069 A 
HETATM    2  N2  UNL     1      23.265   0.923  51.869  1.00  0.00    -0.232 NA
HETATM    3  C8  UNL     1      24.562   0.814  52.498  1.00  0.00     0.137 A 
HETATM    4  N3  UNL     1      25.412   1.531  51.804  1.00  0.00    -0.244 NA
HETATM    5  C9  UNL     1      26.811   1.680  52.108  1.00  0.00     0.121 C 
HETATM    6  C10 UNL     1      27.618   0.832  52.759  1.00  0.00     0.055 C 
HETATM    7  C11 UNL     1      27.171  -0.470  53.303  1.00  0.00     0.066 C 
HETATM    8  C13 UNL     1      25.969  -0.853  53.711  1.00  0.00     0.026 C 
HETATM    9  C14 UNL     1      24.783   0.015  53.693  1.00  0.00     0.105 A 
HETATM   10  C15 UNL     1      23.522  -0.659  54.074  1.00  0.00    -0.008 A 
HETATM   11  C16 UNL     1      22.344  -0.584  53.499  1.00  0.00     0.029 A 
ENDROOT
BRANCH   1  12
HETATM   12  C6  UNL     1      20.986   0.455  51.610  1.00  0.00    -0.007 A 
HETATM   13  C5  UNL     1      21.013   1.048  50.366  1.00  0.00     0.016 A 
HETATM   14  C4  UNL     1      19.872   1.276  49.590  1.00  0.00     0.030 A 
HETATM   15  C3  UNL     1      18.654   0.887  50.091  1.00  0.00     0.036 A 
HETATM   16  C18 UNL     1      18.611   0.294  51.329  1.00  0.00     0.030 A 
HETATM   17  C17 UNL     1      19.754   0.071  52.098  1.00  0.00     0.016 A 
BRANCH  15  18
HETATM   18  N1  UNL     1      17.466   1.085  49.366  1.00  0.00    -0.303 N 
HETATM   19  C2  UNL     1      16.571   2.213  49.399  1.00  0.00     0.364 C 
HETATM   20  O2  UNL     1      16.840   3.178  50.160  1.00  0.00    -0.238 OA
HETATM   21  H4  UNL     1      17.377   0.210  48.787  1.00  0.00     0.171 HD
BRANCH  19  22
HETATM   22  O1  UNL     1      15.476   2.090  48.551  1.00  0.00    -0.309 OA
HETATM   23  C1  UNL     1      15.465   0.986  47.667  1.00  0.00     0.215 C 
ENDBRANCH  19  22
ENDBRANCH  15  18
ENDBRANCH   1  12
BRANCH   7  24
HETATM   24  O3  UNL     1      28.155  -1.474  53.415  1.00  0.00    -0.356 OA
HETATM   25  C12 UNL     1      29.490  -1.021  53.541  1.00  0.00     0.210 C 
ENDBRANCH   7  24
TORSDOF 4
ENDMDL
MODEL 7
REMARK VINA RESULT:      -7.6      4.961      9.939
REMARK  4 active torsions:
REMARK  status: ('A' for Active; 'I' for Inactive)
REMARK    1  A    between atoms: O1_2  and  C2_3 
REMARK       I    between atoms: C2_3  and  N1_5 
REMARK    2  A    between atoms: N1_5  and  C3_6 
REMARK    3  A    between atoms: C6_9  and  C7_10 
REMARK    4  A    between atoms: C11_16  and  O3_17 
ROOT
HETATM    1  C7  UNL     1      24.231   2.171  51.130  1.00  0.00     0.069 A 
HETATM    2  N2  UNL     1      25.445   2.558  51.340  1.00  0.00    -0.232 NA
HETATM    3  C8  UNL     1      26.243   1.974  52.395  1.00  0.00     0.137 A 
HETATM    4  N3  UNL     1      27.438   2.511  52.346  1.00  0.00    -0.244 NA
HETATM    5  C9  UNL     1      28.525   2.192  53.233  1.00  0.00     0.121 C 
HETATM    6  C10 UNL     1      28.751   1.052  53.900  1.00  0.00     0.055 C 
HETATM    7  C11 UNL     1      27.864  -0.131  53.825  1.00  0.00     0.066 C 
HETATM    8  C13 UNL     1      26.564  -0.203  53.571  1.00  0.00     0.026 C 
HETATM    9  C14 UNL     1      25.716   0.967  53.301  1.00  0.00     0.105 A 
HETATM   10  C15 UNL     1      24.324   0.641  52.920  1.00  0.00    -0.008 A 
HETATM   11  C16 UNL     1      23.598   1.149  51.952  1.00  0.00     0.029 A 
ENDROOT
BRANCH   1  12
HETATM   12  C6  UNL     1      23.520   2.828  50.037  1.00  0.00    -0.007 A 
HETATM   13  C5  UNL     1      23.988   4.042  49.580  1.00  0.00     0.016 A 
HETATM   14  C4  UNL     1      23.390   4.762  48.542  1.00  0.00     0.030 A 
HETATM   15  C3  UNL     1      22.275   4.235  47.939  1.00  0.00     0.036 A 
HETATM   16  C18 UNL     1      21.797   3.026  48.382  1.00  0.00     0.030 A 
HETATM   17  C17 UNL     1      22.399   2.313  49.420  1.00  0.00     0.016 A 
BRANCH  15  18
HETATM   18  N1  UNL     1      21.623   4.905  46.888  1.00  0.00    -0.303 N 
HETATM   19  C2  UNL     1      21.570   4.549  45.493  1.00  0.00     0.364 C 
HETATM   20  O2  UNL     1      22.170   3.512  45.109  1.00  0.00    -0.238 OA
HETATM   21  H4  UNL     1      21.177   5.735  47.358  1.00  0.00     0.171 HD
BRANCH  19  22
HETATM   22  O1  UNL     1      20.833   5.433  44.713  1.00  0.00    -0.309 OA
HETATM   23  C1  UNL     1      20.789   5.184  43.322  1.00  0.00     0.215 C 
ENDBRANCH  19  22
ENDBRANCH  15  18
ENDBRANCH   1  12
BRANCH   7  24
HETATM   24  O3  UNL     1      28.469  -1.384  54.054  1.00  0.00    -0.356 OA
HETATM   25  C12 UNL     1      29.707  -1.601  53.406  1.00  0.00     0.210 C 
ENDBRANCH   7  24
TORSDOF 4
ENDMDL
MODEL 8
REMARK VINA RESULT:      -7.5      6.700      8.273
REMARK  4 active torsions:
REMARK  status: ('A' for Active; 'I' for Inactive)
REMARK    1  A    between atoms: O1_2  and  C2_3 
REMARK       I    between atoms: C2_3  and  N1_5 
REMARK    2  A    between atoms: N1_5  and  C3_6 
REMARK    3  A    between atoms: C6_9  and  C7_10 
REMARK    4  A    between atoms: C11_16  and  O3_17 
ROOT
HETATM    1  C7  UNL     1      25.449   3.271  50.454  1.00  0.00     0.069 A 
HETATM    2  N2  UNL     1      24.235   2.969  50.131  1.00  0.00    -0.232 NA
HETATM    3  C8  UNL     1      23.533   1.894  50.796  1.00  0.00     0.137 A 
HETATM    4  N3  UNL     1      22.315   1.843  50.312  1.00  0.00    -0.244 NA
HETATM    5  C9  UNL     1      21.302   0.906  50.717  1.00  0.00     0.121 C 
HETATM    6  C10 UNL     1      21.167   0.281  51.894  1.00  0.00     0.055 C 
HETATM    7  C11 UNL     1      22.095   0.465  53.031  1.00  0.00     0.066 C 
HETATM    8  C13 UNL     1      23.378   0.802  53.035  1.00  0.00     0.026 C 
HETATM    9  C14 UNL     1      24.158   1.070  51.818  1.00  0.00     0.105 A 
HETATM   10  C15 UNL     1      25.535   1.551  52.064  1.00  0.00    -0.008 A 
HETATM   11  C16 UNL     1      26.176   2.538  51.482  1.00  0.00     0.029 A 
ENDROOT
BRANCH   1  12
HETATM   12  C6  UNL     1      26.060   4.374  49.720  1.00  0.00    -0.007 A 
HETATM   13  C5  UNL     1      25.397   5.582  49.670  1.00  0.00     0.016 A 
HETATM   14  C4  UNL     1      25.884   6.707  48.998  1.00  0.00     0.030 A 
HETATM   15  C3  UNL     1      27.090   6.610  48.350  1.00  0.00     0.036 A 
HETATM   16  C18 UNL     1      27.764   5.414  48.391  1.00  0.00     0.030 A 
HETATM   17  C17 UNL     1      27.271   4.294  49.064  1.00  0.00     0.016 A 
BRANCH  15  18
HETATM   18  N1  UNL     1      27.640   7.701  47.655  1.00  0.00    -0.303 N 
HETATM   19  C2  UNL     1      28.365   8.829  48.183  1.00  0.00     0.364 C 
HETATM   20  O2  UNL     1      28.561   8.896  49.424  1.00  0.00    -0.238 OA
HETATM   21  H4  UNL     1      27.398   7.506  46.649  1.00  0.00     0.171 HD
BRANCH  19  22
HETATM   22  O1  UNL     1      28.775   9.739  47.215  1.00  0.00    -0.309 OA
HETATM   23  C1  UNL     1      30.166   9.851  46.982  1.00  0.00     0.215 C 
ENDBRANCH  19  22
ENDBRANCH  15  18
ENDBRANCH   1  12
BRANCH   7  24
HETATM   24  O3  UNL     1      21.560   0.257  54.319  1.00  0.00    -0.356 OA
HETATM   25  C12 UNL     1      21.496  -1.089  54.752  1.00  0.00     0.210 C 
ENDBRANCH   7  24
TORSDOF 4
ENDMDL
MODEL 9
REMARK VINA RESULT:      -7.5      6.533      8.571
REMARK  4 active torsions:
REMARK  status: ('A' for Active; 'I' for Inactive)
REMARK    1  A    between atoms: O1_2  and  C2_3 
REMARK       I    between atoms: C2_3  and  N1_5 
REMARK    2  A    between atoms: N1_5  and  C3_6 
REMARK    3  A    between atoms: C6_9  and  C7_10 
REMARK    4  A    between atoms: C11_16  and  O3_17 
ROOT
HETATM    1  C7  UNL     1      25.007   3.792  50.909  1.00  0.00     0.069 A 
HETATM    2  N2  UNL     1      25.665   2.874  51.536  1.00  0.00    -0.232 NA
HETATM    3  C8  UNL     1      24.999   1.964  52.441  1.00  0.00     0.137 A 
HETATM    4  N3  UNL     1      25.889   1.113  52.890  1.00  0.00    -0.244 NA
HETATM    5  C9  UNL     1      25.619   0.046  53.817  1.00  0.00     0.121 C 
HETATM    6  C10 UNL     1      24.469  -0.608  54.025  1.00  0.00     0.055 C 
HETATM    7  C11 UNL     1      23.217  -0.318  53.290  1.00  0.00     0.066 C 
HETATM    8  C13 UNL     1      22.805   0.810  52.726  1.00  0.00     0.026 C 
HETATM    9  C14 UNL     1      23.578   2.060  52.734  1.00  0.00     0.105 A 
HETATM   10  C15 UNL     1      22.983   3.155  51.936  1.00  0.00    -0.008 A 
HETATM   11  C16 UNL     1      23.574   3.972  51.096  1.00  0.00     0.029 A 
ENDROOT
BRANCH   1  12
HETATM   12  C6  UNL     1      25.780   4.652  50.019  1.00  0.00    -0.007 A 
HETATM   13  C5  UNL     1      26.920   4.142  49.434  1.00  0.00     0.016 A 
HETATM   14  C4  UNL     1      27.739   4.871  48.566  1.00  0.00     0.030 A 
HETATM   15  C3  UNL     1      27.393   6.167  48.276  1.00  0.00     0.036 A 
HETATM   16  C18 UNL     1      26.260   6.690  48.850  1.00  0.00     0.030 A 
HETATM   17  C17 UNL     1      25.447   5.956  49.716  1.00  0.00     0.016 A 
BRANCH  15  18
HETATM   18  N1  UNL     1      28.170   6.958  47.411  1.00  0.00    -0.303 N 
HETATM   19  C2  UNL     1      29.292   7.803  47.733  1.00  0.00     0.364 C 
HETATM   20  O2  UNL     1      29.669   7.881  48.931  1.00  0.00    -0.238 OA
HETATM   21  H4  UNL     1      27.741   6.792  46.465  1.00  0.00     0.171 HD
BRANCH  19  22
HETATM   22  O1  UNL     1      29.841   8.455  46.634  1.00  0.00    -0.309 OA
HETATM   23  C1  UNL     1      31.232   8.310  46.427  1.00  0.00     0.215 C 
ENDBRANCH  19  22
ENDBRANCH  15  18
ENDBRANCH   1  12
BRANCH   7  24
HETATM   24  O3  UNL     1      22.306  -1.386  53.156  1.00  0.00    -0.356 OA
HETATM   25  C12 UNL     1      21.504  -1.662  54.288  1.00  0.00     0.210 C 
ENDBRANCH   7  24
TORSDOF 4
ENDMDL
