MODEL 1
REMARK VINA RESULT:      -6.3      0.000      0.000
REMARK  8 active torsions:
REMARK  status: ('A' for Active; 'I' for Inactive)
REMARK    1  A    between atoms: C3_3  and  N1_4 
REMARK    2  A    between atoms: N1_4  and  C4_5 
REMARK    3  A    between atoms: C6_7  and  N2_8 
REMARK       I    between atoms: N2_8  and  C8_10 
REMARK    4  A    between atoms: C8_10  and  C9_12 
REMARK    5  A    between atoms: C9_12  and  C10_13 
REMARK    6  A    between atoms: C10_13  and  C11_14 
REMARK    7  A    between atoms: C11_14  and  O3_16 
REMARK    8  A    between atoms: C12_17  and  O4_18 
ROOT
HETATM    1  C4  UNL     1      25.332   0.583  53.273  1.00  0.00     0.222 C 
HETATM    2  C5  UNL     1      24.013   0.046  52.839  1.00  0.00     0.081 C 
HETATM    3  C6  UNL     1      22.895   1.028  53.116  1.00  0.00     0.122 C 
HETATM    4  C12 UNL     1      23.218   2.447  52.723  1.00  0.00     0.172 C 
HETATM    5  C14 UNL     1      24.708   2.711  52.577  1.00  0.00     0.151 C 
HETATM    6  C15 UNL     1      25.216   2.563  51.167  1.00  0.00     0.042 C 
HETATM    7  O5  UNL     1      25.374   1.931  53.483  1.00  0.00    -0.359 OA
ENDROOT
BRANCH   3   8
HETATM    8  N2  UNL     1      21.661   0.527  52.537  1.00  0.00    -0.349 N 
HETATM    9  C7  UNL     1      21.522   0.237  51.121  1.00  0.00     0.153 C 
HETATM   10  C8  UNL     1      20.499   0.300  53.376  1.00  0.00     0.220 C 
HETATM   11  O1  UNL     1      20.549   0.543  54.624  1.00  0.00    -0.273 OA
BRANCH  10  12
HETATM   12  C9  UNL     1      19.260  -0.214  52.783  1.00  0.00     0.113 C 
BRANCH  12  13
HETATM   13  C10 UNL     1      18.896  -1.529  53.449  1.00  0.00     0.119 C 
BRANCH  13  14
HETATM   14  C11 UNL     1      17.391  -1.601  53.336  1.00  0.00     0.139 C 
HETATM   15  O2  UNL     1      16.857  -2.713  53.065  1.00  0.00    -0.650 OA
BRANCH  14  16
HETATM   16  O3  UNL     1      16.324  -0.696  53.455  1.00  0.00    -0.776 OA
HETATM   17  H18 UNL     1      16.543   0.303  53.579  1.00  0.00     0.167 HD
ENDBRANCH  14  16
ENDBRANCH  13  14
ENDBRANCH  12  13
ENDBRANCH  10  12
ENDBRANCH   3   8
BRANCH   4  18
HETATM   18  O4  UNL     1      22.450   3.011  51.760  1.00  0.00    -0.386 OA
HETATM   19  C13 UNL     1      21.820   4.180  51.968  1.00  0.00     0.202 C 
ENDBRANCH   4  18
BRANCH   1  20
HETATM   20  N1  UNL     1      26.427   0.172  52.377  1.00  0.00    -0.373 N 
HETATM   21  H6  UNL     1      26.418   0.427  51.364  1.00  0.00     0.161 HD
BRANCH  20  22
HETATM   22  C3  UNL     1      27.575  -0.585  52.745  1.00  0.00     0.081 C 
HETATM   23  C2  UNL     1      28.551  -0.060  53.452  1.00  0.00    -0.014 C 
HETATM   24  C1  UNL     1      29.732  -0.886  53.815  1.00  0.00     0.037 C 
ENDBRANCH  20  22
ENDBRANCH   1  20
TORSDOF 8
ENDMDL
MODEL 2
REMARK VINA RESULT:      -6.3      3.317      6.351
REMARK  8 active torsions:
REMARK  status: ('A' for Active; 'I' for Inactive)
REMARK    1  A    between atoms: C3_3  and  N1_4 
REMARK    2  A    between atoms: N1_4  and  C4_5 
REMARK    3  A    between atoms: C6_7  and  N2_8 
REMARK       I    between atoms: N2_8  and  C8_10 
REMARK    4  A    between atoms: C8_10  and  C9_12 
REMARK    5  A    between atoms: C9_12  and  C10_13 
REMARK    6  A    between atoms: C10_13  and  C11_14 
REMARK    7  A    between atoms: C11_14  and  O3_16 
REMARK    8  A    between atoms: C12_17  and  O4_18 
ROOT
HETATM    1  C4  UNL     1      22.365   5.160  52.123  1.00  0.00     0.222 C 
HETATM    2  C5  UNL     1      23.413   4.124  52.331  1.00  0.00     0.081 C 
HETATM    3  C6  UNL     1      22.847   2.726  52.203  1.00  0.00     0.122 C 
HETATM    4  C12 UNL     1      21.933   2.546  51.018  1.00  0.00     0.172 C 
HETATM    5  C14 UNL     1      21.385   3.853  50.470  1.00  0.00     0.151 C 
HETATM    6  C15 UNL     1      22.191   4.421  49.332  1.00  0.00     0.042 C 
HETATM    7  O5  UNL     1      21.224   4.723  51.514  1.00  0.00    -0.359 OA
ENDROOT
BRANCH   3   8
HETATM    8  N2  UNL     1      23.931   1.762  52.258  1.00  0.00    -0.349 N 
HETATM    9  C7  UNL     1      25.193   1.962  51.569  1.00  0.00     0.153 C 
HETATM   10  C8  UNL     1      23.780   0.536  53.019  1.00  0.00     0.220 C 
HETATM   11  O1  UNL     1      22.696   0.291  53.639  1.00  0.00    -0.273 OA
BRANCH  10  12
HETATM   12  C9  UNL     1      24.884  -0.429  53.076  1.00  0.00     0.113 C 
BRANCH  12  13
HETATM   13  C10 UNL     1      25.258  -0.674  54.526  1.00  0.00     0.119 C 
BRANCH  13  14
HETATM   14  C11 UNL     1      26.479   0.188  54.746  1.00  0.00     0.139 C 
HETATM   15  O2  UNL     1      27.553  -0.367  55.112  1.00  0.00    -0.650 OA
BRANCH  14  16
HETATM   16  O3  UNL     1      26.781   1.555  54.653  1.00  0.00    -0.776 OA
HETATM   17  H18 UNL     1      26.918   2.086  55.526  1.00  0.00     0.167 HD
ENDBRANCH  14  16
ENDBRANCH  13  14
ENDBRANCH  12  13
ENDBRANCH  10  12
ENDBRANCH   3   8
BRANCH   4  18
HETATM   18  O4  UNL     1      22.317   1.656  50.070  1.00  0.00    -0.386 OA
HETATM   19  C13 UNL     1      21.422   0.869  49.450  1.00  0.00     0.202 C 
ENDBRANCH   4  18
BRANCH   1  20
HETATM   20  N1  UNL     1      22.885   6.355  51.436  1.00  0.00    -0.373 N 
HETATM   21  H6  UNL     1      22.239   7.076  51.047  1.00  0.00     0.161 HD
BRANCH  20  22
HETATM   22  C3  UNL     1      24.257   6.669  51.220  1.00  0.00     0.081 C 
HETATM   23  C2  UNL     1      24.626   7.610  50.378  1.00  0.00    -0.014 C 
HETATM   24  C1  UNL     1      26.069   7.907  50.183  1.00  0.00     0.037 C 
ENDBRANCH  20  22
ENDBRANCH   1  20
TORSDOF 8
ENDMDL
MODEL 3
REMARK VINA RESULT:      -6.3      2.414      7.404
REMARK  8 active torsions:
REMARK  status: ('A' for Active; 'I' for Inactive)
REMARK    1  A    between atoms: C3_3  and  N1_4 
REMARK    2  A    between atoms: N1_4  and  C4_5 
REMARK    3  A    between atoms: C6_7  and  N2_8 
REMARK       I    between atoms: N2_8  and  C8_10 
REMARK    4  A    between atoms: C8_10  and  C9_12 
REMARK    5  A    between atoms: C9_12  and  C10_13 
REMARK    6  A    between atoms: C10_13  and  C11_14 
REMARK    7  A    between atoms: C11_14  and  O3_16 
REMARK    8  A    between atoms: C12_17  and  O4_18 
ROOT
HETATM    1  C4  UNL     1      21.968   0.067  52.425  1.00  0.00     0.222 C 
HETATM    2  C5  UNL     1      23.259   0.405  53.082  1.00  0.00     0.081 C 
HETATM    3  C6  UNL     1      24.292   0.865  52.075  1.00  0.00     0.122 C 
HETATM    4  C12 UNL     1      23.760   1.850  51.065  1.00  0.00     0.172 C 
HETATM    5  C14 UNL     1      22.245   1.834  50.942  1.00  0.00     0.151 C 
HETATM    6  C15 UNL     1      21.556   2.861  51.801  1.00  0.00     0.042 C 
HETATM    7  O5  UNL     1      21.809   0.556  51.161  1.00  0.00    -0.359 OA
ENDROOT
BRANCH   3   8
HETATM    8  N2  UNL     1      25.475   1.329  52.777  1.00  0.00    -0.349 N 
HETATM    9  C7  UNL     1      25.443   2.429  53.726  1.00  0.00     0.153 C 
HETATM   10  C8  UNL     1      26.759   0.696  52.543  1.00  0.00     0.220 C 
HETATM   11  O1  UNL     1      26.861  -0.267  51.717  1.00  0.00    -0.273 OA
BRANCH  10  12
HETATM   12  C9  UNL     1      27.948   1.166  53.263  1.00  0.00     0.113 C 
BRANCH  12  13
HETATM   13  C10 UNL     1      28.238   0.223  54.416  1.00  0.00     0.119 C 
BRANCH  13  14
HETATM   14  C11 UNL     1      29.077  -0.872  53.800  1.00  0.00     0.139 C 
HETATM   15  O2  UNL     1      30.302  -0.648  53.586  1.00  0.00    -0.650 OA
BRANCH  14  16
HETATM   16  O3  UNL     1      28.858  -2.186  53.356  1.00  0.00    -0.776 OA
HETATM   17  H18 UNL     1      28.565  -2.328  52.378  1.00  0.00     0.167 HD
ENDBRANCH  14  16
ENDBRANCH  13  14
ENDBRANCH  12  13
ENDBRANCH  10  12
ENDBRANCH   3   8
BRANCH   4  18
HETATM   18  O4  UNL     1      24.312   3.087  51.057  1.00  0.00    -0.386 OA
HETATM   19  C13 UNL     1      24.914   3.574  49.958  1.00  0.00     0.202 C 
ENDBRANCH   4  18
BRANCH   1  20
HETATM   20  N1  UNL     1      20.806   0.420  53.259  1.00  0.00    -0.373 N 
HETATM   21  H6  UNL     1      20.744   1.350  53.730  1.00  0.00     0.161 HD
BRANCH  20  22
HETATM   22  C3  UNL     1      19.677  -0.407  53.523  1.00  0.00     0.081 C 
HETATM   23  C2  UNL     1      18.697  -0.535  52.655  1.00  0.00    -0.014 C 
HETATM   24  C1  UNL     1      17.537  -1.410  52.970  1.00  0.00     0.037 C 
ENDBRANCH  20  22
ENDBRANCH   1  20
TORSDOF 8
ENDMDL
MODEL 4
REMARK VINA RESULT:      -6.2      2.915      7.396
REMARK  8 active torsions:
REMARK  status: ('A' for Active; 'I' for Inactive)
REMARK    1  A    between atoms: C3_3  and  N1_4 
REMARK    2  A    between atoms: N1_4  and  C4_5 
REMARK    3  A    between atoms: C6_7  and  N2_8 
REMARK       I    between atoms: N2_8  and  C8_10 
REMARK    4  A    between atoms: C8_10  and  C9_12 
REMARK    5  A    between atoms: C9_12  and  C10_13 
REMARK    6  A    between atoms: C10_13  and  C11_14 
REMARK    7  A    between atoms: C11_14  and  O3_16 
REMARK    8  A    between atoms: C12_17  and  O4_18 
ROOT
HETATM    1  C4  UNL     1      22.922   2.935  51.640  1.00  0.00     0.222 C 
HETATM    2  C5  UNL     1      24.251   2.265  51.654  1.00  0.00     0.081 C 
HETATM    3  C6  UNL     1      24.502   1.553  52.966  1.00  0.00     0.122 C 
HETATM    4  C12 UNL     1      23.326   0.748  53.456  1.00  0.00     0.172 C 
HETATM    5  C14 UNL     1      22.004   1.162  52.831  1.00  0.00     0.151 C 
HETATM    6  C15 UNL     1      21.623   0.351  51.621  1.00  0.00     0.042 C 
HETATM    7  O5  UNL     1      22.044   2.510  52.594  1.00  0.00    -0.359 OA
ENDROOT
BRANCH   3   8
HETATM    8  N2  UNL     1      25.734   0.791  52.872  1.00  0.00    -0.349 N 
HETATM    9  C7  UNL     1      26.257   0.299  51.609  1.00  0.00     0.153 C 
HETATM   10  C8  UNL     1      26.497   0.484  54.067  1.00  0.00     0.220 C 
HETATM   11  O1  UNL     1      26.091   0.874  55.209  1.00  0.00    -0.273 OA
BRANCH  10  12
HETATM   12  C9  UNL     1      27.745  -0.280  53.961  1.00  0.00     0.113 C 
BRANCH  12  13
HETATM   13  C10 UNL     1      28.753   0.272  54.953  1.00  0.00     0.119 C 
BRANCH  13  14
HETATM   14  C11 UNL     1      29.237   1.554  54.318  1.00  0.00     0.139 C 
HETATM   15  O2  UNL     1      29.742   2.443  55.060  1.00  0.00    -0.650 OA
BRANCH  14  16
HETATM   16  O3  UNL     1      29.283   2.085  53.019  1.00  0.00    -0.776 OA
HETATM   17  H18 UNL     1      28.420   2.488  52.625  1.00  0.00     0.167 HD
ENDBRANCH  14  16
ENDBRANCH  13  14
ENDBRANCH  12  13
ENDBRANCH  10  12
ENDBRANCH   3   8
BRANCH   4  18
HETATM   18  O4  UNL     1      23.498  -0.591  53.571  1.00  0.00    -0.386 OA
HETATM   19  C13 UNL     1      23.094  -1.254  54.668  1.00  0.00     0.202 C 
ENDBRANCH   4  18
BRANCH   1  20
HETATM   20  N1  UNL     1      22.290   2.897  50.310  1.00  0.00    -0.373 N 
HETATM   21  H6  UNL     1      21.469   2.279  50.123  1.00  0.00     0.161 HD
BRANCH  20  22
HETATM   22  C3  UNL     1      22.686   3.649  49.169  1.00  0.00     0.081 C 
HETATM   23  C2  UNL     1      22.963   4.933  49.250  1.00  0.00    -0.014 C 
HETATM   24  C1  UNL     1      23.374   5.681  48.033  1.00  0.00     0.037 C 
ENDBRANCH  20  22
ENDBRANCH   1  20
TORSDOF 8
ENDMDL
MODEL 5
REMARK VINA RESULT:      -6.2      2.532      7.549
REMARK  8 active torsions:
REMARK  status: ('A' for Active; 'I' for Inactive)
REMARK    1  A    between atoms: C3_3  and  N1_4 
REMARK    2  A    between atoms: N1_4  and  C4_5 
REMARK    3  A    between atoms: C6_7  and  N2_8 
REMARK       I    between atoms: N2_8  and  C8_10 
REMARK    4  A    between atoms: C8_10  and  C9_12 
REMARK    5  A    between atoms: C9_12  and  C10_13 
REMARK    6  A    between atoms: C10_13  and  C11_14 
REMARK    7  A    between atoms: C11_14  and  O3_16 
REMARK    8  A    between atoms: C12_17  and  O4_18 
ROOT
HETATM    1  C4  UNL     1      20.512   0.358  54.127  1.00  0.00     0.222 C 
HETATM    2  C5  UNL     1      20.996   0.943  52.847  1.00  0.00     0.081 C 
HETATM    3  C6  UNL     1      22.456   1.333  52.930  1.00  0.00     0.122 C 
HETATM    4  C12 UNL     1      23.329   0.288  53.578  1.00  0.00     0.172 C 
HETATM    5  C14 UNL     1      22.555  -0.708  54.426  1.00  0.00     0.151 C 
HETATM    6  C15 UNL     1      22.177  -1.967  53.691  1.00  0.00     0.042 C 
HETATM    7  O5  UNL     1      21.488  -0.059  54.985  1.00  0.00    -0.359 OA
ENDROOT
BRANCH   3   8
HETATM    8  N2  UNL     1      22.918   1.750  51.619  1.00  0.00    -0.349 N 
HETATM    9  C7  UNL     1      22.333   1.251  50.387  1.00  0.00     0.153 C 
HETATM   10  C8  UNL     1      24.008   2.700  51.496  1.00  0.00     0.220 C 
HETATM   11  O1  UNL     1      24.573   3.170  52.535  1.00  0.00    -0.273 OA
BRANCH  10  12
HETATM   12  C9  UNL     1      24.463   3.122  50.166  1.00  0.00     0.113 C 
BRANCH  12  13
HETATM   13  C10 UNL     1      25.958   2.887  50.053  1.00  0.00     0.119 C 
BRANCH  13  14
HETATM   14  C11 UNL     1      26.525   4.248  49.725  1.00  0.00     0.139 C 
HETATM   15  O2  UNL     1      27.534   4.318  48.969  1.00  0.00    -0.650 OA
BRANCH  14  16
HETATM   16  O3  UNL     1      26.220   5.578  50.058  1.00  0.00    -0.776 OA
HETATM   17  H18 UNL     1      25.236   5.819  50.251  1.00  0.00     0.167 HD
ENDBRANCH  14  16
ENDBRANCH  13  14
ENDBRANCH  12  13
ENDBRANCH  10  12
ENDBRANCH   3   8
BRANCH   4  18
HETATM   18  O4  UNL     1      24.304  -0.261  52.815  1.00  0.00    -0.386 OA
HETATM   19  C13 UNL     1      25.581  -0.291  53.233  1.00  0.00     0.202 C 
ENDBRANCH   4  18
BRANCH   1  20
HETATM   20  N1  UNL     1      19.525  -0.715  53.915  1.00  0.00    -0.373 N 
HETATM   21  H6  UNL     1      19.568  -1.602  54.465  1.00  0.00     0.161 HD
BRANCH  20  22
HETATM   22  C3  UNL     1      18.446  -0.693  52.987  1.00  0.00     0.081 C 
HETATM   23  C2  UNL     1      17.379  -1.446  53.150  1.00  0.00    -0.014 C 
HETATM   24  C1  UNL     1      16.274  -1.392  52.157  1.00  0.00     0.037 C 
ENDBRANCH  20  22
ENDBRANCH   1  20
TORSDOF 8
ENDMDL
MODEL 6
REMARK VINA RESULT:      -6.1      3.301      7.472
REMARK  8 active torsions:
REMARK  status: ('A' for Active; 'I' for Inactive)
REMARK    1  A    between atoms: C3_3  and  N1_4 
REMARK    2  A    between atoms: N1_4  and  C4_5 
REMARK    3  A    between atoms: C6_7  and  N2_8 
REMARK       I    between atoms: N2_8  and  C8_10 
REMARK    4  A    between atoms: C8_10  and  C9_12 
REMARK    5  A    between atoms: C9_12  and  C10_13 
REMARK    6  A    between atoms: C10_13  and  C11_14 
REMARK    7  A    between atoms: C11_14  and  O3_16 
REMARK    8  A    between atoms: C12_17  and  O4_18 
ROOT
HETATM    1  C4  UNL     1      21.904   1.265  50.100  1.00  0.00     0.222 C 
HETATM    2  C5  UNL     1      22.691   1.297  51.362  1.00  0.00     0.081 C 
HETATM    3  C6  UNL     1      24.122   1.725  51.116  1.00  0.00     0.122 C 
HETATM    4  C12 UNL     1      24.251   2.915  50.199  1.00  0.00     0.172 C 
HETATM    5  C14 UNL     1      23.019   3.158  49.343  1.00  0.00     0.151 C 
HETATM    6  C15 UNL     1      22.052   4.149  49.937  1.00  0.00     0.042 C 
HETATM    7  O5  UNL     1      22.451   1.947  49.052  1.00  0.00    -0.359 OA
ENDROOT
BRANCH   3   8
HETATM    8  N2  UNL     1      24.800   1.891  52.388  1.00  0.00    -0.349 N 
HETATM    9  C7  UNL     1      24.422   2.910  53.351  1.00  0.00     0.153 C 
HETATM   10  C8  UNL     1      25.909   1.025  52.743  1.00  0.00     0.220 C 
HETATM   11  O1  UNL     1      26.300   0.117  51.941  1.00  0.00    -0.273 OA
BRANCH  10  12
HETATM   12  C9  UNL     1      26.584   1.194  54.035  1.00  0.00     0.113 C 
BRANCH  12  13
HETATM   13  C10 UNL     1      28.028   0.745  53.906  1.00  0.00     0.119 C 
BRANCH  13  14
HETATM   14  C11 UNL     1      28.815   2.034  53.858  1.00  0.00     0.139 C 
HETATM   15  O2  UNL     1      29.489   2.369  54.873  1.00  0.00    -0.650 OA
BRANCH  14  16
HETATM   16  O3  UNL     1      29.025   3.057  52.920  1.00  0.00    -0.776 OA
HETATM   17  H18 UNL     1      29.622   2.856  52.104  1.00  0.00     0.167 HD
ENDBRANCH  14  16
ENDBRANCH  13  14
ENDBRANCH  12  13
ENDBRANCH  10  12
ENDBRANCH   3   8
BRANCH   4  18
HETATM   18  O4  UNL     1      24.806   4.037  50.717  1.00  0.00    -0.386 OA
HETATM   19  C13 UNL     1      25.626   4.811  49.985  1.00  0.00     0.202 C 
ENDBRANCH   4  18
BRANCH   1  20
HETATM   20  N1  UNL     1      20.504   1.676  50.302  1.00  0.00    -0.373 N 
HETATM   21  H6  UNL     1      20.229   2.683  50.269  1.00  0.00     0.161 HD
BRANCH  20  22
HETATM   22  C3  UNL     1      19.402   0.811  50.555  1.00  0.00     0.081 C 
HETATM   23  C2  UNL     1      19.163   0.329  51.755  1.00  0.00    -0.014 C 
HETATM   24  C1  UNL     1      18.001  -0.571  51.976  1.00  0.00     0.037 C 
ENDBRANCH  20  22
ENDBRANCH   1  20
TORSDOF 8
ENDMDL
MODEL 7
REMARK VINA RESULT:      -6.0      2.619      3.006
REMARK  8 active torsions:
REMARK  status: ('A' for Active; 'I' for Inactive)
REMARK    1  A    between atoms: C3_3  and  N1_4 
REMARK    2  A    between atoms: N1_4  and  C4_5 
REMARK    3  A    between atoms: C6_7  and  N2_8 
REMARK       I    between atoms: N2_8  and  C8_10 
REMARK    4  A    between atoms: C8_10  and  C9_12 
REMARK    5  A    between atoms: C9_12  and  C10_13 
REMARK    6  A    between atoms: C10_13  and  C11_14 
REMARK    7  A    between atoms: C11_14  and  O3_16 
REMARK    8  A    between atoms: C12_17  and  O4_18 
ROOT
HETATM    1  C4  UNL     1      24.710   0.335  53.409  1.00  0.00     0.222 C 
HETATM    2  C5  UNL     1      23.458   0.343  52.605  1.00  0.00     0.081 C 
HETATM    3  C6  UNL     1      22.779   1.696  52.645  1.00  0.00     0.122 C 
HETATM    4  C12 UNL     1      23.723   2.856  52.453  1.00  0.00     0.172 C 
HETATM    5  C14 UNL     1      25.177   2.507  52.725  1.00  0.00     0.151 C 
HETATM    6  C15 UNL     1      25.949   2.114  51.493  1.00  0.00     0.042 C 
HETATM    7  O5  UNL     1      25.215   1.565  53.718  1.00  0.00    -0.359 OA
ENDROOT
BRANCH   3   8
HETATM    8  N2  UNL     1      21.655   1.698  51.726  1.00  0.00    -0.349 N 
HETATM    9  C7  UNL     1      21.655   0.942  50.486  1.00  0.00     0.153 C 
HETATM   10  C8  UNL     1      20.469   2.479  52.024  1.00  0.00     0.220 C 
HETATM   11  O1  UNL     1      20.406   3.174  53.089  1.00  0.00    -0.273 OA
BRANCH  10  12
HETATM   12  C9  UNL     1      19.335   2.468  51.094  1.00  0.00     0.113 C 
BRANCH  12  13
HETATM   13  C10 UNL     1      19.077   3.882  50.605  1.00  0.00     0.119 C 
BRANCH  13  14
HETATM   14  C11 UNL     1      17.632   4.142  50.960  1.00  0.00     0.139 C 
HETATM   15  O2  UNL     1      17.217   3.789  52.100  1.00  0.00    -0.650 OA
BRANCH  14  16
HETATM   16  O3  UNL     1      16.521   4.714  50.321  1.00  0.00    -0.776 OA
HETATM   17  H18 UNL     1      16.296   5.700  50.522  1.00  0.00     0.167 HD
ENDBRANCH  14  16
ENDBRANCH  13  14
ENDBRANCH  12  13
ENDBRANCH  10  12
ENDBRANCH   3   8
BRANCH   4  18
HETATM   18  O4  UNL     1      23.527   3.638  51.364  1.00  0.00    -0.386 OA
HETATM   19  C13 UNL     1      23.434   4.974  51.474  1.00  0.00     0.202 C 
ENDBRANCH   4  18
BRANCH   1  20
HETATM   20  N1  UNL     1      25.756  -0.510  52.807  1.00  0.00    -0.373 N 
HETATM   21  H6  UNL     1      25.659  -0.876  51.834  1.00  0.00     0.161 HD
BRANCH  20  22
HETATM   22  C3  UNL     1      26.968  -0.919  53.431  1.00  0.00     0.081 C 
HETATM   23  C2  UNL     1      28.136  -0.451  53.047  1.00  0.00    -0.014 C 
HETATM   24  C1  UNL     1      29.378  -0.905  53.726  1.00  0.00     0.037 C 
ENDBRANCH  20  22
ENDBRANCH   1  20
TORSDOF 8
ENDMDL
MODEL 8
REMARK VINA RESULT:      -5.9      3.700      6.916
REMARK  8 active torsions:
REMARK  status: ('A' for Active; 'I' for Inactive)
REMARK    1  A    between atoms: C3_3  and  N1_4 
REMARK    2  A    between atoms: N1_4  and  C4_5 
REMARK    3  A    between atoms: C6_7  and  N2_8 
REMARK       I    between atoms: N2_8  and  C8_10 
REMARK    4  A    between atoms: C8_10  and  C9_12 
REMARK    5  A    between atoms: C9_12  and  C10_13 
REMARK    6  A    between atoms: C10_13  and  C11_14 
REMARK    7  A    between atoms: C11_14  and  O3_16 
REMARK    8  A    between atoms: C12_17  and  O4_18 
ROOT
HETATM    1  C4  UNL     1      21.459   0.526  51.010  1.00  0.00     0.222 C 
HETATM    2  C5  UNL     1      22.730   1.289  51.143  1.00  0.00     0.081 C 
HETATM    3  C6  UNL     1      22.679   2.592  50.373  1.00  0.00     0.122 C 
HETATM    4  C12 UNL     1      21.397   3.361  50.561  1.00  0.00     0.172 C 
HETATM    5  C14 UNL     1      20.248   2.508  51.074  1.00  0.00     0.151 C 
HETATM    6  C15 UNL     1      20.089   2.539  52.571  1.00  0.00     0.042 C 
HETATM    7  O5  UNL     1      20.388   1.246  50.565  1.00  0.00    -0.359 OA
ENDROOT
BRANCH   3   8
HETATM    8  N2  UNL     1      23.874   3.366  50.660  1.00  0.00    -0.349 N 
HETATM    9  C7  UNL     1      24.600   3.252  51.912  1.00  0.00     0.153 C 
HETATM   10  C8  UNL     1      24.388   4.306  49.681  1.00  0.00     0.220 C 
HETATM   11  O1  UNL     1      23.795   4.464  48.566  1.00  0.00    -0.273 OA
BRANCH  10  12
HETATM   12  C9  UNL     1      25.600   5.078  49.976  1.00  0.00     0.113 C 
BRANCH  12  13
HETATM   13  C10 UNL     1      25.346   6.542  49.666  1.00  0.00     0.119 C 
BRANCH  13  14
HETATM   14  C11 UNL     1      24.551   7.041  50.849  1.00  0.00     0.139 C 
HETATM   15  O2  UNL     1      23.686   7.942  50.660  1.00  0.00    -0.650 OA
BRANCH  14  16
HETATM   16  O3  UNL     1      24.500   6.761  52.224  1.00  0.00    -0.776 OA
HETATM   17  H18 UNL     1      24.069   5.875  52.526  1.00  0.00     0.167 HD
ENDBRANCH  14  16
ENDBRANCH  13  14
ENDBRANCH  12  13
ENDBRANCH  10  12
ENDBRANCH   3   8
BRANCH   4  18
HETATM   18  O4  UNL     1      21.488   4.585  51.135  1.00  0.00    -0.386 OA
HETATM   19  C13 UNL     1      20.979   5.675  50.537  1.00  0.00     0.202 C 
ENDBRANCH   4  18
BRANCH   1  20
HETATM   20  N1  UNL     1      21.109  -0.199  52.244  1.00  0.00    -0.373 N 
HETATM   21  H6  UNL     1      20.116  -0.287  52.553  1.00  0.00     0.161 HD
BRANCH  20  22
HETATM   22  C3  UNL     1      22.021  -0.839  53.130  1.00  0.00     0.081 C 
HETATM   23  C2  UNL     1      21.992  -0.622  54.427  1.00  0.00    -0.014 C 
HETATM   24  C1  UNL     1      22.963  -1.312  55.316  1.00  0.00     0.037 C 
ENDBRANCH  20  22
ENDBRANCH   1  20
TORSDOF 8
ENDMDL
MODEL 9
REMARK VINA RESULT:      -5.9      4.368      8.369
REMARK  8 active torsions:
REMARK  status: ('A' for Active; 'I' for Inactive)
REMARK    1  A    between atoms: C3_3  and  N1_4 
REMARK    2  A    between atoms: N1_4  and  C4_5 
REMARK    3  A    between atoms: C6_7  and  N2_8 
REMARK       I    between atoms: N2_8  and  C8_10 
REMARK    4  A    between atoms: C8_10  and  C9_12 
REMARK    5  A    between atoms: C9_12  and  C10_13 
REMARK    6  A    between atoms: C10_13  and  C11_14 
REMARK    7  A    between atoms: C11_14  and  O3_16 
REMARK    8  A    between atoms: C12_17  and  O4_18 
ROOT
HETATM    1  C4  UNL     1      23.906   2.012  52.059  1.00  0.00     0.222 C 
HETATM    2  C5  UNL     1      24.104   3.487  52.090  1.00  0.00     0.081 C 
HETATM    3  C6  UNL     1      24.354   4.044  50.704  1.00  0.00     0.122 C 
HETATM    4  C12 UNL     1      23.420   3.501  49.653  1.00  0.00     0.172 C 
HETATM    5  C14 UNL     1      22.748   2.197  50.053  1.00  0.00     0.151 C 
HETATM    6  C15 UNL     1      21.391   2.380  50.679  1.00  0.00     0.042 C 
HETATM    7  O5  UNL     1      23.619   1.486  50.833  1.00  0.00    -0.359 OA
ENDROOT
BRANCH   3   8
HETATM    8  N2  UNL     1      24.384   5.494  50.767  1.00  0.00    -0.349 N 
HETATM    9  C7  UNL     1      23.425   6.265  51.539  1.00  0.00     0.153 C 
HETATM   10  C8  UNL     1      25.395   6.236  50.038  1.00  0.00     0.220 C 
HETATM   11  O1  UNL     1      26.260   5.624  49.333  1.00  0.00    -0.273 OA
BRANCH  10  12
HETATM   12  C9  UNL     1      25.423   7.701  50.114  1.00  0.00     0.113 C 
BRANCH  12  13
HETATM   13  C10 UNL     1      26.486   8.229  49.168  1.00  0.00     0.119 C 
BRANCH  13  14
HETATM   14  C11 UNL     1      27.164   9.332  49.947  1.00  0.00     0.139 C 
HETATM   15  O2  UNL     1      27.358  10.443  49.379  1.00  0.00    -0.650 OA
BRANCH  14  16
HETATM   16  O3  UNL     1      27.688   9.480  51.241  1.00  0.00    -0.776 OA
HETATM   17  H18 UNL     1      27.240  10.159  51.874  1.00  0.00     0.167 HD
ENDBRANCH  14  16
ENDBRANCH  13  14
ENDBRANCH  12  13
ENDBRANCH  10  12
ENDBRANCH   3   8
BRANCH   4  18
HETATM   18  O4  UNL     1      22.603   4.387  49.034  1.00  0.00    -0.386 OA
HETATM   19  C13 UNL     1      22.431   4.362  47.701  1.00  0.00     0.202 C 
ENDBRANCH   4  18
BRANCH   1  20
HETATM   20  N1  UNL     1      22.918   1.559  53.054  1.00  0.00    -0.373 N 
HETATM   21  H6  UNL     1      22.320   2.242  53.568  1.00  0.00     0.161 HD
BRANCH  20  22
HETATM   22  C3  UNL     1      22.661   0.210  53.428  1.00  0.00     0.081 C 
HETATM   23  C2  UNL     1      21.596  -0.123  54.124  1.00  0.00    -0.014 C 
HETATM   24  C1  UNL     1      21.365  -1.544  54.494  1.00  0.00     0.037 C 
ENDBRANCH  20  22
ENDBRANCH   1  20
TORSDOF 8
ENDMDL
