MODEL 1
REMARK VINA RESULT:      -8.7      0.000      0.000
REMARK  1 active torsions:
REMARK  status: ('A' for Active; 'I' for Inactive)
REMARK    1  A    between atoms: N4_15  and  C11_16 
ROOT
HETATM    1  F1  UNL     1      19.684  -2.255  54.277  1.00  0.00    -0.206 F 
HETATM    2  C1  UNL     1      20.511  -1.254  53.898  1.00  0.00     0.117 A 
HETATM    3  C2  UNL     1      20.199  -0.145  53.143  1.00  0.00     0.045 A 
HETATM    4  C3  UNL     1      21.156   0.800  52.833  1.00  0.00     0.041 A 
HETATM    5  C4  UNL     1      22.480   0.678  53.268  1.00  0.00     0.086 A 
HETATM    6  C5  UNL     1      22.768  -0.448  54.028  1.00  0.00    -0.004 A 
HETATM    7  C6  UNL     1      21.818  -1.402  54.344  1.00  0.00     0.054 A 
HETATM    8  C7  UNL     1      24.118  -0.779  54.597  1.00  0.00     0.163 C 
HETATM    9  N1  UNL     1      25.154  -0.614  53.589  1.00  0.00    -0.367 N 
HETATM   10  C8  UNL     1      25.484   0.594  52.872  1.00  0.00     0.177 A 
HETATM   11  C9  UNL     1      24.662   1.606  52.560  1.00  0.00     0.195 A 
HETATM   12  N2  UNL     1      25.188   2.713  51.843  1.00  0.00    -0.327 N 
HETATM   13  C10 UNL     1      26.572   2.709  51.482  1.00  0.00     0.232 A 
HETATM   14  N3  UNL     1      27.310   1.721  51.803  1.00  0.00    -0.161 NA
HETATM   15  N4  UNL     1      26.861   0.586  52.513  1.00  0.00    -0.216 N 
HETATM   16  O1  UNL     1      23.294   1.728  52.855  1.00  0.00    -0.290 OA
HETATM   17  H6  UNL     1      25.796  -1.395  53.268  1.00  0.00     0.161 HD
HETATM   18  H7  UNL     1      24.552   3.506  51.597  1.00  0.00     0.169 HD
ENDROOT
BRANCH  15  19
HETATM   19  C11 UNL     1      27.748  -0.470  52.831  1.00  0.00     0.042 A 
HETATM   20  C12 UNL     1      27.759  -1.798  52.631  1.00  0.00     0.027 A 
HETATM   21  C13 UNL     1      28.983  -2.348  53.211  1.00  0.00    -0.002 A 
HETATM   22  C14 UNL     1      29.672  -1.349  53.741  1.00  0.00    -0.021 A 
HETATM   23  C15 UNL     1      28.972  -0.048  53.563  1.00  0.00     0.086 A 
ENDBRANCH  15  19
TORSDOF 1
ENDMDL
MODEL 2
REMARK VINA RESULT:      -8.6      2.784      6.162
REMARK  1 active torsions:
REMARK  status: ('A' for Active; 'I' for Inactive)
REMARK    1  A    between atoms: N4_15  and  C11_16 
ROOT
HETATM    1  F1  UNL     1      30.527  -1.952  54.202  1.00  0.00    -0.206 F 
HETATM    2  C1  UNL     1      29.700  -0.971  53.776  1.00  0.00     0.117 A 
HETATM    3  C2  UNL     1      29.989   0.369  53.634  1.00  0.00     0.045 A 
HETATM    4  C3  UNL     1      29.036   1.261  53.185  1.00  0.00     0.041 A 
HETATM    5  C4  UNL     1      27.740   0.850  52.855  1.00  0.00     0.086 A 
HETATM    6  C5  UNL     1      27.475  -0.505  53.007  1.00  0.00    -0.004 A 
HETATM    7  C6  UNL     1      28.422  -1.407  53.456  1.00  0.00     0.054 A 
HETATM    8  C7  UNL     1      26.157  -1.161  52.712  1.00  0.00     0.163 C 
HETATM    9  N1  UNL     1      25.063  -0.400  53.295  1.00  0.00    -0.367 N 
HETATM   10  C8  UNL     1      24.716   0.974  53.019  1.00  0.00     0.177 A 
HETATM   11  C9  UNL     1      25.539   1.961  52.639  1.00  0.00     0.195 A 
HETATM   12  N2  UNL     1      24.994   3.252  52.417  1.00  0.00    -0.327 N 
HETATM   13  C10 UNL     1      23.590   3.453  52.604  1.00  0.00     0.232 A 
HETATM   14  N3  UNL     1      22.852   2.480  52.965  1.00  0.00    -0.161 NA
HETATM   15  N4  UNL     1      23.319   1.169  53.207  1.00  0.00    -0.216 N 
HETATM   16  O1  UNL     1      26.926   1.892  52.423  1.00  0.00    -0.290 OA
HETATM   17  H6  UNL     1      24.384  -0.793  54.009  1.00  0.00     0.161 HD
HETATM   18  H7  UNL     1      25.631   4.028  52.120  1.00  0.00     0.169 HD
ENDROOT
BRANCH  15  19
HETATM   19  C11 UNL     1      22.430   0.143  53.607  1.00  0.00     0.042 A 
HETATM   20  C12 UNL     1      22.457  -0.837  54.525  1.00  0.00     0.027 A 
HETATM   21  C13 UNL     1      21.204  -1.586  54.446  1.00  0.00    -0.002 A 
HETATM   22  C14 UNL     1      20.462  -1.046  53.492  1.00  0.00    -0.021 A 
HETATM   23  C15 UNL     1      21.149   0.108  52.851  1.00  0.00     0.086 A 
ENDBRANCH  15  19
TORSDOF 1
ENDMDL
MODEL 3
REMARK VINA RESULT:      -8.2      1.825      4.178
REMARK  1 active torsions:
REMARK  status: ('A' for Active; 'I' for Inactive)
REMARK    1  A    between atoms: N4_15  and  C11_16 
ROOT
HETATM    1  F1  UNL     1      19.048  -0.445  53.692  1.00  0.00    -0.206 F 
HETATM    2  C1  UNL     1      20.399  -0.483  53.663  1.00  0.00     0.117 A 
HETATM    3  C2  UNL     1      21.242  -1.081  54.574  1.00  0.00     0.045 A 
HETATM    4  C3  UNL     1      22.613  -1.037  54.413  1.00  0.00     0.041 A 
HETATM    5  C4  UNL     1      23.207  -0.390  53.324  1.00  0.00     0.086 A 
HETATM    6  C5  UNL     1      22.334   0.203  52.420  1.00  0.00    -0.004 A 
HETATM    7  C6  UNL     1      20.960   0.167  52.572  1.00  0.00     0.054 A 
HETATM    8  C7  UNL     1      22.752   0.947  51.185  1.00  0.00     0.163 C 
HETATM    9  N1  UNL     1      23.823   1.883  51.488  1.00  0.00    -0.367 N 
HETATM   10  C8  UNL     1      25.123   1.569  52.031  1.00  0.00     0.177 A 
HETATM   11  C9  UNL     1      25.445   0.547  52.835  1.00  0.00     0.195 A 
HETATM   12  N2  UNL     1      26.792   0.415  53.262  1.00  0.00    -0.327 N 
HETATM   13  C10 UNL     1      27.755   1.374  52.819  1.00  0.00     0.232 A 
HETATM   14  N3  UNL     1      27.397   2.328  52.055  1.00  0.00    -0.161 NA
HETATM   15  N4  UNL     1      26.079   2.527  51.589  1.00  0.00    -0.216 N 
HETATM   16  O1  UNL     1      24.596  -0.456  53.336  1.00  0.00    -0.290 OA
HETATM   17  H6  UNL     1      23.755   2.930  51.333  1.00  0.00     0.161 HD
HETATM   18  H7  UNL     1      27.049  -0.382  53.890  1.00  0.00     0.169 HD
ENDROOT
BRANCH  15  19
HETATM   19  C11 UNL     1      25.764   3.615  50.740  1.00  0.00     0.042 A 
HETATM   20  C12 UNL     1      24.816   4.566  50.722  1.00  0.00     0.027 A 
HETATM   21  C13 UNL     1      25.034   5.420  49.555  1.00  0.00    -0.002 A 
HETATM   22  C14 UNL     1      26.095   4.967  48.906  1.00  0.00    -0.021 A 
HETATM   23  C15 UNL     1      26.679   3.776  49.579  1.00  0.00     0.086 A 
ENDBRANCH  15  19
TORSDOF 1
ENDMDL
MODEL 4
REMARK VINA RESULT:      -8.2      3.632      6.383
REMARK  1 active torsions:
REMARK  status: ('A' for Active; 'I' for Inactive)
REMARK    1  A    between atoms: N4_15  and  C11_16 
ROOT
HETATM    1  F1  UNL     1      30.351  -1.110  53.742  1.00  0.00    -0.206 F 
HETATM    2  C1  UNL     1      29.077  -0.782  53.431  1.00  0.00     0.117 A 
HETATM    3  C2  UNL     1      27.992  -1.625  53.333  1.00  0.00     0.045 A 
HETATM    4  C3  UNL     1      26.741  -1.143  53.003  1.00  0.00     0.041 A 
HETATM    5  C4  UNL     1      26.517   0.215  52.754  1.00  0.00     0.086 A 
HETATM    6  C5  UNL     1      27.627   1.043  52.860  1.00  0.00    -0.004 A 
HETATM    7  C6  UNL     1      28.884   0.571  53.189  1.00  0.00     0.054 A 
HETATM    8  C7  UNL     1      27.615   2.528  52.636  1.00  0.00     0.163 C 
HETATM    9  N1  UNL     1      26.898   2.858  51.415  1.00  0.00    -0.367 N 
HETATM   10  C8  UNL     1      25.519   2.557  51.109  1.00  0.00     0.177 A 
HETATM   11  C9  UNL     1      24.790   1.528  51.563  1.00  0.00     0.195 A 
HETATM   12  N2  UNL     1      23.441   1.412  51.138  1.00  0.00    -0.327 N 
HETATM   13  C10 UNL     1      22.910   2.394  50.244  1.00  0.00     0.232 A 
HETATM   14  N3  UNL     1      23.646   3.352  49.842  1.00  0.00    -0.161 NA
HETATM   15  N4  UNL     1      24.995   3.536  50.219  1.00  0.00    -0.216 N 
HETATM   16  O1  UNL     1      25.194   0.505  52.438  1.00  0.00    -0.290 OA
HETATM   17  H6  UNL     1      27.331   3.372  50.595  1.00  0.00     0.161 HD
HETATM   18  H7  UNL     1      22.866   0.610  51.489  1.00  0.00     0.169 HD
ENDROOT
BRANCH  15  19
HETATM   19  C11 UNL     1      25.744   4.631  49.726  1.00  0.00     0.042 A 
HETATM   20  C12 UNL     1      26.799   4.771  48.907  1.00  0.00     0.027 A 
HETATM   21  C13 UNL     1      27.113   6.195  48.789  1.00  0.00    -0.002 A 
HETATM   22  C14 UNL     1      26.249   6.869  49.532  1.00  0.00    -0.021 A 
HETATM   23  C15 UNL     1      25.285   5.960  50.210  1.00  0.00     0.086 A 
ENDBRANCH  15  19
TORSDOF 1
ENDMDL
MODEL 5
REMARK VINA RESULT:      -8.2      3.093      6.007
REMARK  1 active torsions:
REMARK  status: ('A' for Active; 'I' for Inactive)
REMARK    1  A    between atoms: N4_15  and  C11_16 
ROOT
HETATM    1  F1  UNL     1      24.182   6.170  48.553  1.00  0.00    -0.206 F 
HETATM    2  C1  UNL     1      24.914   5.237  49.202  1.00  0.00     0.117 A 
HETATM    3  C2  UNL     1      26.192   4.815  48.906  1.00  0.00     0.045 A 
HETATM    4  C3  UNL     1      26.817   3.845  49.664  1.00  0.00     0.041 A 
HETATM    5  C4  UNL     1      26.188   3.249  50.762  1.00  0.00     0.086 A 
HETATM    6  C5  UNL     1      24.902   3.693  51.040  1.00  0.00    -0.004 A 
HETATM    7  C6  UNL     1      24.265   4.662  50.286  1.00  0.00     0.054 A 
HETATM    8  C7  UNL     1      24.045   3.193  52.167  1.00  0.00     0.163 C 
HETATM    9  N1  UNL     1      24.063   1.739  52.219  1.00  0.00    -0.367 N 
HETATM   10  C8  UNL     1      25.217   0.890  52.398  1.00  0.00     0.177 A 
HETATM   11  C9  UNL     1      26.481   1.147  52.035  1.00  0.00     0.195 A 
HETATM   12  N2  UNL     1      27.476   0.172  52.304  1.00  0.00    -0.327 N 
HETATM   13  C10 UNL     1      27.096  -1.046  52.950  1.00  0.00     0.232 A 
HETATM   14  N3  UNL     1      25.880  -1.240  53.274  1.00  0.00    -0.161 NA
HETATM   15  N4  UNL     1      24.834  -0.320  53.041  1.00  0.00    -0.216 N 
HETATM   16  O1  UNL     1      26.978   2.297  51.398  1.00  0.00    -0.290 OA
HETATM   17  H6  UNL     1      23.197   1.134  52.128  1.00  0.00     0.161 HD
HETATM   18  H7  UNL     1      28.466   0.366  52.022  1.00  0.00     0.169 HD
ENDROOT
BRANCH  15  19
HETATM   19  C11 UNL     1      23.506  -0.615  53.434  1.00  0.00     0.042 A 
HETATM   20  C12 UNL     1      22.322  -0.696  52.804  1.00  0.00     0.027 A 
HETATM   21  C13 UNL     1      21.296  -1.047  53.784  1.00  0.00    -0.002 A 
HETATM   22  C14 UNL     1      21.880  -1.168  54.966  1.00  0.00    -0.021 A 
HETATM   23  C15 UNL     1      23.342  -0.908  54.882  1.00  0.00     0.086 A 
ENDBRANCH  15  19
TORSDOF 1
ENDMDL
MODEL 6
REMARK VINA RESULT:      -8.1      3.636      5.602
REMARK  1 active torsions:
REMARK  status: ('A' for Active; 'I' for Inactive)
REMARK    1  A    between atoms: N4_15  and  C11_16 
ROOT
HETATM    1  F1  UNL     1      26.386   6.884  48.361  1.00  0.00    -0.206 F 
HETATM    2  C1  UNL     1      25.621   5.868  48.821  1.00  0.00     0.117 A 
HETATM    3  C2  UNL     1      24.246   5.820  48.900  1.00  0.00     0.045 A 
HETATM    4  C3  UNL     1      23.599   4.706  49.397  1.00  0.00     0.041 A 
HETATM    5  C4  UNL     1      24.302   3.581  49.840  1.00  0.00     0.086 A 
HETATM    6  C5  UNL     1      25.686   3.655  49.748  1.00  0.00    -0.004 A 
HETATM    7  C6  UNL     1      26.345   4.765  49.253  1.00  0.00     0.054 A 
HETATM    8  C7  UNL     1      26.634   2.567  50.164  1.00  0.00     0.163 C 
HETATM    9  N1  UNL     1      26.277   2.048  51.475  1.00  0.00    -0.367 N 
HETATM   10  C8  UNL     1      25.026   1.437  51.856  1.00  0.00     0.177 A 
HETATM   11  C9  UNL     1      23.813   1.671  51.336  1.00  0.00     0.195 A 
HETATM   12  N2  UNL     1      22.701   0.959  51.856  1.00  0.00    -0.327 N 
HETATM   13  C10 UNL     1      22.915   0.019  52.913  1.00  0.00     0.232 A 
HETATM   14  N3  UNL     1      24.088  -0.166  53.372  1.00  0.00    -0.161 NA
HETATM   15  N4  UNL     1      25.242   0.503  52.908  1.00  0.00    -0.216 N 
HETATM   16  O1  UNL     1      23.475   2.563  50.303  1.00  0.00    -0.290 OA
HETATM   17  H6  UNL     1      26.924   2.067  52.314  1.00  0.00     0.161 HD
HETATM   18  H7  UNL     1      21.751   1.137  51.455  1.00  0.00     0.169 HD
ENDROOT
BRANCH  15  19
HETATM   19  C11 UNL     1      26.513   0.238  53.473  1.00  0.00     0.042 A 
HETATM   20  C12 UNL     1      27.205   0.709  54.523  1.00  0.00     0.027 A 
HETATM   21  C13 UNL     1      28.492   0.017  54.583  1.00  0.00    -0.002 A 
HETATM   22  C14 UNL     1      28.542  -0.844  53.578  1.00  0.00    -0.021 A 
HETATM   23  C15 UNL     1      27.299  -0.804  52.761  1.00  0.00     0.086 A 
ENDBRANCH  15  19
TORSDOF 1
ENDMDL
MODEL 7
REMARK VINA RESULT:      -8.0      3.305      4.744
REMARK  1 active torsions:
REMARK  status: ('A' for Active; 'I' for Inactive)
REMARK    1  A    between atoms: N4_15  and  C11_16 
ROOT
HETATM    1  F1  UNL     1      23.875   7.140  50.593  1.00  0.00    -0.206 F 
HETATM    2  C1  UNL     1      23.411   5.958  51.058  1.00  0.00     0.117 A 
HETATM    3  C2  UNL     1      22.178   5.700  51.616  1.00  0.00     0.045 A 
HETATM    4  C3  UNL     1      21.843   4.433  52.050  1.00  0.00     0.041 A 
HETATM    5  C4  UNL     1      22.732   3.358  51.944  1.00  0.00     0.086 A 
HETATM    6  C5  UNL     1      23.967   3.645  51.377  1.00  0.00    -0.004 A 
HETATM    7  C6  UNL     1      24.315   4.910  50.940  1.00  0.00     0.054 A 
HETATM    8  C7  UNL     1      25.069   2.647  51.167  1.00  0.00     0.163 C 
HETATM    9  N1  UNL     1      25.276   1.850  52.366  1.00  0.00    -0.367 N 
HETATM   10  C8  UNL     1      24.308   1.006  53.026  1.00  0.00     0.177 A 
HETATM   11  C9  UNL     1      22.976   1.156  53.046  1.00  0.00     0.195 A 
HETATM   12  N2  UNL     1      22.197   0.208  53.759  1.00  0.00    -0.327 N 
HETATM   13  C10 UNL     1      22.858  -0.869  54.428  1.00  0.00     0.232 A 
HETATM   14  N3  UNL     1      24.127  -0.965  54.377  1.00  0.00    -0.161 NA
HETATM   15  N4  UNL     1      24.970  -0.064  53.690  1.00  0.00    -0.216 N 
HETATM   16  O1  UNL     1      22.213   2.164  52.434  1.00  0.00    -0.290 OA
HETATM   17  H6  UNL     1      26.193   1.807  52.896  1.00  0.00     0.161 HD
HETATM   18  H7  UNL     1      21.156   0.319  53.779  1.00  0.00     0.169 HD
ENDROOT
BRANCH  15  19
HETATM   19  C11 UNL     1      26.374  -0.243  53.683  1.00  0.00     0.042 A 
HETATM   20  C12 UNL     1      27.260  -0.796  52.838  1.00  0.00     0.027 A 
HETATM   21  C13 UNL     1      28.598  -0.665  53.413  1.00  0.00    -0.002 A 
HETATM   22  C14 UNL     1      28.486  -0.043  54.577  1.00  0.00    -0.021 A 
HETATM   23  C15 UNL     1      27.070   0.295  54.882  1.00  0.00     0.086 A 
ENDBRANCH  15  19
TORSDOF 1
ENDMDL
MODEL 8
REMARK VINA RESULT:      -7.9      3.366      6.532
REMARK  1 active torsions:
REMARK  status: ('A' for Active; 'I' for Inactive)
REMARK    1  A    between atoms: N4_15  and  C11_16 
ROOT
HETATM    1  F1  UNL     1      30.804  -0.075  53.401  1.00  0.00    -0.206 F 
HETATM    2  C1  UNL     1      29.462  -0.236  53.395  1.00  0.00     0.117 A 
HETATM    3  C2  UNL     1      28.757  -1.415  53.286  1.00  0.00     0.045 A 
HETATM    4  C3  UNL     1      27.376  -1.424  53.295  1.00  0.00     0.041 A 
HETATM    5  C4  UNL     1      26.632  -0.246  53.416  1.00  0.00     0.086 A 
HETATM    6  C5  UNL     1      27.367   0.928  53.525  1.00  0.00    -0.004 A 
HETATM    7  C6  UNL     1      28.750   0.950  53.516  1.00  0.00     0.054 A 
HETATM    8  C7  UNL     1      26.776   2.301  53.664  1.00  0.00     0.163 C 
HETATM    9  N1  UNL     1      25.711   2.502  52.694  1.00  0.00    -0.367 N 
HETATM   10  C8  UNL     1      24.498   1.730  52.564  1.00  0.00     0.177 A 
HETATM   11  C9  UNL     1      24.316   0.440  52.878  1.00  0.00     0.195 A 
HETATM   12  N2  UNL     1      23.035  -0.136  52.671  1.00  0.00    -0.327 N 
HETATM   13  C10 UNL     1      21.988   0.679  52.137  1.00  0.00     0.232 A 
HETATM   14  N3  UNL     1      22.214   1.900  51.855  1.00  0.00    -0.161 NA
HETATM   15  N4  UNL     1      23.459   2.544  52.032  1.00  0.00    -0.216 N 
HETATM   16  O1  UNL     1      25.258  -0.460  53.405  1.00  0.00    -0.290 OA
HETATM   17  H6  UNL     1      25.717   3.266  51.958  1.00  0.00     0.161 HD
HETATM   18  H7  UNL     1      22.887  -1.143  52.914  1.00  0.00     0.169 HD
ENDROOT
BRANCH  15  19
HETATM   19  C11 UNL     1      23.626   3.908  51.692  1.00  0.00     0.042 A 
HETATM   20  C12 UNL     1      23.480   5.075  52.340  1.00  0.00     0.027 A 
HETATM   21  C13 UNL     1      23.812   6.164  51.420  1.00  0.00    -0.002 A 
HETATM   22  C14 UNL     1      24.145   5.630  50.255  1.00  0.00    -0.021 A 
HETATM   23  C15 UNL     1      24.066   4.145  50.292  1.00  0.00     0.086 A 
ENDBRANCH  15  19
TORSDOF 1
ENDMDL
MODEL 9
REMARK VINA RESULT:      -7.7      2.261      4.273
REMARK  1 active torsions:
REMARK  status: ('A' for Active; 'I' for Inactive)
REMARK    1  A    between atoms: N4_15  and  C11_16 
ROOT
HETATM    1  F1  UNL     1      17.740   0.246  51.583  1.00  0.00    -0.206 F 
HETATM    2  C1  UNL     1      19.004   0.077  52.031  1.00  0.00     0.117 A 
HETATM    3  C2  UNL     1      19.407  -0.522  53.205  1.00  0.00     0.045 A 
HETATM    4  C3  UNL     1      20.745  -0.622  53.532  1.00  0.00     0.041 A 
HETATM    5  C4  UNL     1      21.748  -0.125  52.694  1.00  0.00     0.086 A 
HETATM    6  C5  UNL     1      21.315   0.473  51.518  1.00  0.00    -0.004 A 
HETATM    7  C6  UNL     1      19.978   0.580  51.180  1.00  0.00     0.054 A 
HETATM    8  C7  UNL     1      22.216   1.072  50.477  1.00  0.00     0.163 C 
HETATM    9  N1  UNL     1      23.220   1.923  51.095  1.00  0.00    -0.367 N 
HETATM   10  C8  UNL     1      24.208   1.532  52.073  1.00  0.00     0.177 A 
HETATM   11  C9  UNL     1      24.111   0.552  52.981  1.00  0.00     0.195 A 
HETATM   12  N2  UNL     1      25.204   0.328  53.859  1.00  0.00    -0.327 N 
HETATM   13  C10 UNL     1      26.366   1.153  53.741  1.00  0.00     0.232 A 
HETATM   14  N3  UNL     1      26.407   2.071  52.860  1.00  0.00    -0.161 NA
HETATM   15  N4  UNL     1      25.362   2.356  51.953  1.00  0.00    -0.216 N 
HETATM   16  O1  UNL     1      23.030  -0.321  53.196  1.00  0.00    -0.290 OA
HETATM   17  H6  UNL     1      23.333   2.956  50.881  1.00  0.00     0.161 HD
HETATM   18  H7  UNL     1      25.134  -0.436  54.571  1.00  0.00     0.169 HD
ENDROOT
BRANCH  15  19
HETATM   19  C11 UNL     1      25.489   3.397  51.002  1.00  0.00     0.042 A 
HETATM   20  C12 UNL     1      24.914   4.597  50.822  1.00  0.00     0.027 A 
HETATM   21  C13 UNL     1      25.486   5.213  49.625  1.00  0.00    -0.002 A 
HETATM   22  C14 UNL     1      26.380   4.378  49.120  1.00  0.00    -0.021 A 
HETATM   23  C15 UNL     1      26.486   3.135  49.930  1.00  0.00     0.086 A 
ENDBRANCH  15  19
TORSDOF 1
ENDMDL
