MODEL 1
REMARK VINA RESULT:      -9.1      0.000      0.000
REMARK  6 active torsions:
REMARK  status: ('A' for Active; 'I' for Inactive)
REMARK    1  A    between atoms: N1_5  and  C5_6 
REMARK    2  A    between atoms: C5_6  and  C6_7 
REMARK    3  A    between atoms: C12_16  and  C13_17 
REMARK    4  A    between atoms: C16_20  and  O1_21 
REMARK    5  A    between atoms: O1_21  and  C17_22 
REMARK    6  A    between atoms: C17_22  and  C18_23 
ROOT
HETATM    1  C6  UNL     1      25.682   0.720  53.152  1.00  0.00     0.048 C 
HETATM    2  C7  UNL     1      25.353  -0.678  53.506  1.00  0.00     0.126 C 
HETATM    3  N2  UNL     1      23.939  -0.986  53.801  1.00  0.00    -0.359 N 
HETATM    4  C8  UNL     1      22.683  -0.058  53.343  1.00  0.00     0.497 A 
HETATM    5  N3  UNL     1      22.063  -0.283  54.560  1.00  0.00     0.265 N 
HETATM    6  C9  UNL     1      20.745   0.036  54.617  1.00  0.00     0.543 A 
HETATM    7  N4  UNL     1      22.102  -0.202  54.271  1.00  0.00     0.265 N 
HETATM    8  C10 UNL     1      22.408   0.126  53.001  1.00  0.00     0.571 A 
HETATM    9  C11 UNL     1      22.203   0.506  51.991  1.00  0.00     0.344 A 
HETATM   10  C12 UNL     1      21.984   0.954  50.821  1.00  0.00     0.004 A 
HETATM   11  C24 UNL     1      23.174   1.587  50.833  1.00  0.00     0.216 A 
HETATM   12  N5  UNL     1      23.356   1.041  52.145  1.00  0.00     0.048 N 
HETATM   13  C25 UNL     1      24.754   1.578  52.410  1.00  0.00     0.258 C 
HETATM   14  H12 UNL     1      23.829  -1.904  54.297  1.00  0.00     0.157 HD
ENDROOT
BRANCH  10  15
HETATM   15  C13 UNL     1      20.740   0.536  50.194  1.00  0.00     0.074 A 
HETATM   16  C14 UNL     1      20.340   1.713  49.338  1.00  0.00    -0.016 A 
HETATM   17  C15 UNL     1      19.350   2.024  50.142  1.00  0.00     0.002 A 
HETATM   18  C16 UNL     1      19.565   0.941  51.103  1.00  0.00     0.156 A 
BRANCH  18  19
HETATM   19  O1  UNL     1      18.613  -0.027  51.211  1.00  0.00    -0.377 OA
BRANCH  19  20
HETATM   20  C17 UNL     1      18.008  -0.054  52.450  1.00  0.00     0.207 C 
BRANCH  20  21
HETATM   21  C18 UNL     1      17.418  -1.375  52.740  1.00  0.00    -0.035 A 
HETATM   22  C19 UNL     1      16.174  -1.630  52.175  1.00  0.00     0.009 A 
HETATM   23  C20 UNL     1      15.600  -2.872  52.407  1.00  0.00     0.001 A 
HETATM   24  C21 UNL     1      16.157  -3.869  53.148  1.00  0.00     0.000 A 
HETATM   25  C22 UNL     1      17.392  -3.598  53.701  1.00  0.00     0.001 A 
HETATM   26  C23 UNL     1      17.993  -2.383  53.494  1.00  0.00     0.009 A 
ENDBRANCH  20  21
ENDBRANCH  19  20
ENDBRANCH  18  19
ENDBRANCH  10  15
BRANCH   1  27
HETATM   27  C5  UNL     1      27.059   0.787  52.540  1.00  0.00     0.130 C 
BRANCH  27  28
HETATM   28  N1  UNL     1      28.110   0.260  53.347  1.00  0.00    -0.384 N 
HETATM   29  C2  UNL     1      28.898  -0.930  53.292  1.00  0.00    -0.001 C 
HETATM   30  C1  UNL     1      28.766  -2.192  52.994  1.00  0.00     0.038 C 
HETATM   31  C3  UNL     1      30.019  -0.064  53.746  1.00  0.00     0.076 C 
HETATM   32  C4  UNL     1      28.902   0.581  54.531  1.00  0.00     0.128 C 
ENDBRANCH  27  28
ENDBRANCH   1  27
TORSDOF 6
ENDMDL
MODEL 2
REMARK VINA RESULT:      -8.9      3.793      5.436
REMARK  6 active torsions:
REMARK  status: ('A' for Active; 'I' for Inactive)
REMARK    1  A    between atoms: N1_5  and  C5_6 
REMARK    2  A    between atoms: C5_6  and  C6_7 
REMARK    3  A    between atoms: C12_16  and  C13_17 
REMARK    4  A    between atoms: C16_20  and  O1_21 
REMARK    5  A    between atoms: O1_21  and  C17_22 
REMARK    6  A    between atoms: C17_22  and  C18_23 
ROOT
HETATM    1  C6  UNL     1      25.589   0.739  53.278  1.00  0.00     0.048 C 
HETATM    2  C7  UNL     1      24.194   0.471  52.866  1.00  0.00     0.126 C 
HETATM    3  N2  UNL     1      23.376   1.629  52.454  1.00  0.00    -0.359 N 
HETATM    4  C8  UNL     1      23.986   3.066  51.993  1.00  0.00     0.497 A 
HETATM    5  N3  UNL     1      22.978   3.722  52.676  1.00  0.00     0.265 N 
HETATM    6  C9  UNL     1      22.812   5.033  52.364  1.00  0.00     0.543 A 
HETATM    7  N4  UNL     1      23.207   3.674  52.485  1.00  0.00     0.265 N 
HETATM    8  C10 UNL     1      24.234   3.329  51.683  1.00  0.00     0.571 A 
HETATM    9  C11 UNL     1      25.012   3.503  50.927  1.00  0.00     0.344 A 
HETATM   10  C12 UNL     1      25.925   3.690  50.062  1.00  0.00     0.004 A 
HETATM   11  C24 UNL     1      26.772   2.926  50.781  1.00  0.00     0.216 A 
HETATM   12  N5  UNL     1      25.694   2.752  51.709  1.00  0.00     0.048 N 
HETATM   13  C25 UNL     1      26.392   1.806  52.674  1.00  0.00     0.258 C 
HETATM   14  H12 UNL     1      22.351   1.406  52.441  1.00  0.00     0.157 HD
ENDROOT
BRANCH  10  15
HETATM   15  C13 UNL     1      25.561   4.490  48.905  1.00  0.00     0.074 A 
HETATM   16  C14 UNL     1      26.454   5.704  48.993  1.00  0.00    -0.016 A 
HETATM   17  C15 UNL     1      25.450   6.479  49.329  1.00  0.00     0.002 A 
HETATM   18  C16 UNL     1      24.417   5.443  49.299  1.00  0.00     0.156 A 
BRANCH  18  19
HETATM   19  O1  UNL     1      23.441   5.530  48.353  1.00  0.00    -0.377 OA
BRANCH  19  20
HETATM   20  C17 UNL     1      22.177   5.311  48.858  1.00  0.00     0.207 C 
BRANCH  20  21
HETATM   21  C18 UNL     1      21.844   3.874  48.888  1.00  0.00    -0.035 A 
HETATM   22  C19 UNL     1      22.492   3.072  47.956  1.00  0.00     0.009 A 
HETATM   23  C20 UNL     1      22.220   1.712  47.971  1.00  0.00     0.001 A 
HETATM   24  C21 UNL     1      21.363   1.092  48.829  1.00  0.00     0.000 A 
HETATM   25  C22 UNL     1      20.729   1.903  49.748  1.00  0.00     0.001 A 
HETATM   26  C23 UNL     1      20.972   3.252  49.766  1.00  0.00     0.009 A 
ENDBRANCH  20  21
ENDBRANCH  19  20
ENDBRANCH  18  19
ENDBRANCH  10  15
BRANCH   1  27
HETATM   27  C5  UNL     1      26.373  -0.550  53.313  1.00  0.00     0.130 C 
BRANCH  27  28
HETATM   28  N1  UNL     1      27.691  -0.446  53.847  1.00  0.00    -0.384 N 
HETATM   29  C2  UNL     1      28.931  -1.093  53.554  1.00  0.00    -0.001 C 
HETATM   30  C1  UNL     1      29.376  -2.269  53.215  1.00  0.00     0.038 C 
HETATM   31  C3  UNL     1      29.546   0.236  53.814  1.00  0.00     0.076 C 
HETATM   32  C4  UNL     1      28.454   0.286  54.855  1.00  0.00     0.128 C 
ENDBRANCH  27  28
ENDBRANCH   1  27
TORSDOF 6
ENDMDL
MODEL 3
REMARK VINA RESULT:      -8.7      4.728      6.536
REMARK  6 active torsions:
REMARK  status: ('A' for Active; 'I' for Inactive)
REMARK    1  A    between atoms: N1_5  and  C5_6 
REMARK    2  A    between atoms: C5_6  and  C6_7 
REMARK    3  A    between atoms: C12_16  and  C13_17 
REMARK    4  A    between atoms: C16_20  and  O1_21 
REMARK    5  A    between atoms: O1_21  and  C17_22 
REMARK    6  A    between atoms: C17_22  and  C18_23 
ROOT
HETATM    1  C6  UNL     1      26.313   6.165  49.017  1.00  0.00     0.048 C 
HETATM    2  C7  UNL     1      27.243   5.097  48.588  1.00  0.00     0.126 C 
HETATM    3  N2  UNL     1      27.177   3.813  49.312  1.00  0.00    -0.359 N 
HETATM    4  C8  UNL     1      25.908   3.326  50.207  1.00  0.00     0.497 A 
HETATM    5  N3  UNL     1      26.768   2.804  51.157  1.00  0.00     0.265 N 
HETATM    6  C9  UNL     1      26.208   1.949  52.050  1.00  0.00     0.543 A 
HETATM    7  N4  UNL     1      26.513   2.858  51.003  1.00  0.00     0.265 N 
HETATM    8  C10 UNL     1      25.453   3.188  50.239  1.00  0.00     0.571 A 
HETATM    9  C11 UNL     1      24.400   3.163  49.929  1.00  0.00     0.344 A 
HETATM   10  C12 UNL     1      23.181   3.155  49.565  1.00  0.00     0.004 A 
HETATM   11  C24 UNL     1      23.233   4.483  49.339  1.00  0.00     0.216 A 
HETATM   12  N5  UNL     1      24.603   4.416  49.754  1.00  0.00     0.048 N 
HETATM   13  C25 UNL     1      24.969   5.874  49.524  1.00  0.00     0.258 C 
HETATM   14  H12 UNL     1      28.026   3.219  49.143  1.00  0.00     0.157 HD
ENDROOT
BRANCH  10  15
HETATM   15  C13 UNL     1      22.521   1.860  49.558  1.00  0.00     0.074 A 
HETATM   16  C14 UNL     1      21.956   1.737  48.164  1.00  0.00    -0.016 A 
HETATM   17  C15 UNL     1      20.727   1.901  48.594  1.00  0.00     0.002 A 
HETATM   18  C16 UNL     1      21.061   2.044  50.012  1.00  0.00     0.156 A 
BRANCH  18  19
HETATM   19  O1  UNL     1      20.643   1.078  50.876  1.00  0.00    -0.377 OA
BRANCH  19  20
HETATM   20  C17 UNL     1      20.627   1.499  52.189  1.00  0.00     0.207 C 
BRANCH  20  21
HETATM   21  C18 UNL     1      21.480   0.651  53.043  1.00  0.00    -0.035 A 
HETATM   22  C19 UNL     1      20.843  -0.014  54.084  1.00  0.00     0.009 A 
HETATM   23  C20 UNL     1      21.611  -0.839  54.893  1.00  0.00     0.001 A 
HETATM   24  C21 UNL     1      22.949  -1.053  54.752  1.00  0.00     0.000 A 
HETATM   25  C22 UNL     1      23.565  -0.385  53.713  1.00  0.00     0.001 A 
HETATM   26  C23 UNL     1      22.840   0.439  52.891  1.00  0.00     0.009 A 
ENDBRANCH  20  21
ENDBRANCH  19  20
ENDBRANCH  18  19
ENDBRANCH  10  15
BRANCH   1  27
HETATM   27  C5  UNL     1      26.253   7.249  47.970  1.00  0.00     0.130 C 
BRANCH  27  28
HETATM   28  N1  UNL     1      27.479   7.940  47.739  1.00  0.00    -0.384 N 
HETATM   29  C2  UNL     1      28.421   8.595  48.592  1.00  0.00    -0.001 C 
HETATM   30  C1  UNL     1      28.438   9.335  49.663  1.00  0.00     0.038 C 
HETATM   31  C3  UNL     1      29.452   8.034  47.678  1.00  0.00     0.076 C 
HETATM   32  C4  UNL     1      28.380   8.324  46.656  1.00  0.00     0.128 C 
ENDBRANCH  27  28
ENDBRANCH   1  27
TORSDOF 6
ENDMDL
MODEL 4
REMARK VINA RESULT:      -8.6      3.184      8.476
REMARK  6 active torsions:
REMARK  status: ('A' for Active; 'I' for Inactive)
REMARK    1  A    between atoms: N1_5  and  C5_6 
REMARK    2  A    between atoms: C5_6  and  C6_7 
REMARK    3  A    between atoms: C12_16  and  C13_17 
REMARK    4  A    between atoms: C16_20  and  O1_21 
REMARK    5  A    between atoms: O1_21  and  C17_22 
REMARK    6  A    between atoms: C17_22  and  C18_23 
ROOT
HETATM    1  C6  UNL     1      20.478   4.209  51.121  1.00  0.00     0.048 C 
HETATM    2  C7  UNL     1      21.654   4.147  50.225  1.00  0.00     0.126 C 
HETATM    3  N2  UNL     1      22.914   3.636  50.799  1.00  0.00    -0.359 N 
HETATM    4  C8  UNL     1      23.009   2.738  52.153  1.00  0.00     0.497 A 
HETATM    5  N3  UNL     1      24.146   3.425  52.539  1.00  0.00     0.265 N 
HETATM    6  C9  UNL     1      24.876   2.847  53.526  1.00  0.00     0.543 A 
HETATM    7  N4  UNL     1      23.933   3.211  52.529  1.00  0.00     0.265 N 
HETATM    8  C10 UNL     1      22.921   2.332  52.387  1.00  0.00     0.571 A 
HETATM    9  C11 UNL     1      22.350   1.423  52.615  1.00  0.00     0.344 A 
HETATM   10  C12 UNL     1      21.670   0.380  52.876  1.00  0.00     0.004 A 
HETATM   11  C24 UNL     1      20.528   1.084  52.748  1.00  0.00     0.216 A 
HETATM   12  N5  UNL     1      21.356   2.215  52.454  1.00  0.00     0.048 N 
HETATM   13  C25 UNL     1      20.252   3.226  52.184  1.00  0.00     0.258 C 
HETATM   14  H12 UNL     1      23.745   3.874  50.204  1.00  0.00     0.157 HD
ENDROOT
BRANCH  10  15
HETATM   15  C13 UNL     1      22.426  -0.844  53.090  1.00  0.00     0.074 A 
HETATM   16  C14 UNL     1      21.822  -1.442  54.337  1.00  0.00    -0.016 A 
HETATM   17  C15 UNL     1      22.883  -1.149  55.051  1.00  0.00     0.002 A 
HETATM   18  C16 UNL     1      23.648  -0.524  53.972  1.00  0.00     0.156 A 
BRANCH  18  19
HETATM   19  O1  UNL     1      24.789  -1.137  53.548  1.00  0.00    -0.377 OA
BRANCH  19  20
HETATM   20  C17 UNL     1      25.611  -0.304  52.819  1.00  0.00     0.207 C 
BRANCH  20  21
HETATM   21  C18 UNL     1      27.034  -0.530  53.135  1.00  0.00    -0.035 A 
HETATM   22  C19 UNL     1      27.543  -1.783  52.819  1.00  0.00     0.009 A 
HETATM   23  C20 UNL     1      28.885  -2.023  53.081  1.00  0.00     0.001 A 
HETATM   24  C21 UNL     1      29.751  -1.124  53.628  1.00  0.00     0.000 A 
HETATM   25  C22 UNL     1      29.227   0.115  53.935  1.00  0.00     0.001 A 
HETATM   26  C23 UNL     1      27.907   0.391  53.690  1.00  0.00     0.009 A 
ENDBRANCH  20  21
ENDBRANCH  19  20
ENDBRANCH  18  19
ENDBRANCH  10  15
BRANCH   1  27
HETATM   27  C5  UNL     1      19.220   4.399  50.309  1.00  0.00     0.130 C 
BRANCH  27  28
HETATM   28  N1  UNL     1      18.229   3.388  50.476  1.00  0.00    -0.384 N 
HETATM   29  C2  UNL     1      16.914   3.375  51.034  1.00  0.00    -0.001 C 
HETATM   30  C1  UNL     1      16.254   3.905  52.025  1.00  0.00     0.038 C 
HETATM   31  C3  UNL     1      16.585   2.439  49.926  1.00  0.00     0.076 C 
HETATM   32  C4  UNL     1      17.994   1.972  50.205  1.00  0.00     0.128 C 
ENDBRANCH  27  28
ENDBRANCH   1  27
TORSDOF 6
ENDMDL
MODEL 5
REMARK VINA RESULT:      -8.6      4.001      6.780
REMARK  6 active torsions:
REMARK  status: ('A' for Active; 'I' for Inactive)
REMARK    1  A    between atoms: N1_5  and  C5_6 
REMARK    2  A    between atoms: C5_6  and  C6_7 
REMARK    3  A    between atoms: C12_16  and  C13_17 
REMARK    4  A    between atoms: C16_20  and  O1_21 
REMARK    5  A    between atoms: O1_21  and  C17_22 
REMARK    6  A    between atoms: C17_22  and  C18_23 
ROOT
HETATM    1  C6  UNL     1      25.349   6.458  50.169  1.00  0.00     0.048 C 
HETATM    2  C7  UNL     1      26.297   5.752  49.280  1.00  0.00     0.126 C 
HETATM    3  N2  UNL     1      26.600   4.343  49.598  1.00  0.00    -0.359 N 
HETATM    4  C8  UNL     1      25.670   3.392  50.537  1.00  0.00     0.497 A 
HETATM    5  N3  UNL     1      26.800   2.841  51.113  1.00  0.00     0.265 N 
HETATM    6  C9  UNL     1      26.605   1.692  51.807  1.00  0.00     0.543 A 
HETATM    7  N4  UNL     1      26.511   2.877  51.032  1.00  0.00     0.265 N 
HETATM    8  C10 UNL     1      25.262   3.158  50.612  1.00  0.00     0.571 A 
HETATM    9  C11 UNL     1      24.181   2.992  50.514  1.00  0.00     0.344 A 
HETATM   10  C12 UNL     1      22.926   2.820  50.402  1.00  0.00     0.004 A 
HETATM   11  C24 UNL     1      22.723   4.142  50.566  1.00  0.00     0.216 A 
HETATM   12  N5  UNL     1      24.146   4.262  50.675  1.00  0.00     0.048 N 
HETATM   13  C25 UNL     1      24.225   5.775  50.815  1.00  0.00     0.258 C 
HETATM   14  H12 UNL     1      27.462   4.002  49.105  1.00  0.00     0.157 HD
ENDROOT
BRANCH  10  15
HETATM   15  C13 UNL     1      22.484   1.459  50.143  1.00  0.00     0.074 A 
HETATM   16  C14 UNL     1      21.685   1.562  48.867  1.00  0.00    -0.016 A 
HETATM   17  C15 UNL     1      20.553   1.371  49.502  1.00  0.00     0.002 A 
HETATM   18  C16 UNL     1      21.128   1.236  50.840  1.00  0.00     0.156 A 
BRANCH  18  19
HETATM   19  O1  UNL     1      21.039   0.029  51.465  1.00  0.00    -0.377 OA
BRANCH  19  20
HETATM   20  C17 UNL     1      20.849   0.138  52.826  1.00  0.00     0.207 C 
BRANCH  20  21
HETATM   21  C18 UNL     1      22.056  -0.255  53.578  1.00  0.00    -0.035 A 
HETATM   22  C19 UNL     1      21.846  -1.002  54.731  1.00  0.00     0.009 A 
HETATM   23  C20 UNL     1      22.961  -1.410  55.451  1.00  0.00     0.001 A 
HETATM   24  C21 UNL     1      24.253  -1.136  55.119  1.00  0.00     0.000 A 
HETATM   25  C22 UNL     1      24.442  -0.394  53.970  1.00  0.00     0.001 A 
HETATM   26  C23 UNL     1      23.366   0.026  53.232  1.00  0.00     0.009 A 
ENDBRANCH  20  21
ENDBRANCH  19  20
ENDBRANCH  18  19
ENDBRANCH  10  15
BRANCH   1  27
HETATM   27  C5  UNL     1      24.879   7.733  49.514  1.00  0.00     0.130 C 
BRANCH  27  28
HETATM   28  N1  UNL     1      24.595   7.632  48.120  1.00  0.00    -0.384 N 
HETATM   29  C2  UNL     1      23.545   7.022  47.367  1.00  0.00    -0.001 C 
HETATM   30  C1  UNL     1      22.802   5.952  47.392  1.00  0.00     0.038 C 
HETATM   31  C3  UNL     1      23.659   8.208  46.477  1.00  0.00     0.076 C 
HETATM   32  C4  UNL     1      25.120   8.043  46.821  1.00  0.00     0.128 C 
ENDBRANCH  27  28
ENDBRANCH   1  27
TORSDOF 6
ENDMDL
MODEL 6
REMARK VINA RESULT:      -8.6      2.749      5.343
REMARK  6 active torsions:
REMARK  status: ('A' for Active; 'I' for Inactive)
REMARK    1  A    between atoms: N1_5  and  C5_6 
REMARK    2  A    between atoms: C5_6  and  C6_7 
REMARK    3  A    between atoms: C12_16  and  C13_17 
REMARK    4  A    between atoms: C16_20  and  O1_21 
REMARK    5  A    between atoms: O1_21  and  C17_22 
REMARK    6  A    between atoms: C17_22  and  C18_23 
ROOT
HETATM    1  C6  UNL     1      25.888   0.636  53.172  1.00  0.00     0.048 C 
HETATM    2  C7  UNL     1      25.291  -0.716  53.103  1.00  0.00     0.126 C 
HETATM    3  N2  UNL     1      23.827  -0.818  53.265  1.00  0.00    -0.359 N 
HETATM    4  C8  UNL     1      22.793   0.422  53.062  1.00  0.00     0.497 A 
HETATM    5  N3  UNL     1      22.052  -0.008  54.149  1.00  0.00     0.265 N 
HETATM    6  C9  UNL     1      20.810   0.528  54.263  1.00  0.00     0.543 A 
HETATM    7  N4  UNL     1      22.126   0.141  53.897  1.00  0.00     0.265 N 
HETATM    8  C10 UNL     1      22.582   0.743  52.780  1.00  0.00     0.571 A 
HETATM    9  C11 UNL     1      22.525   1.419  51.917  1.00  0.00     0.344 A 
HETATM   10  C12 UNL     1      22.479   2.206  50.919  1.00  0.00     0.004 A 
HETATM   11  C24 UNL     1      23.757   2.572  51.140  1.00  0.00     0.216 A 
HETATM   12  N5  UNL     1      23.739   1.660  52.244  1.00  0.00     0.048 N 
HETATM   13  C25 UNL     1      25.186   1.826  52.685  1.00  0.00     0.258 C 
HETATM   14  H12 UNL     1      23.519  -1.799  53.475  1.00  0.00     0.157 HD
ENDROOT
BRANCH  10  15
HETATM   15  C13 UNL     1      21.233   2.223  50.170  1.00  0.00     0.074 A 
HETATM   16  C14 UNL     1      21.249   0.931  49.389  1.00  0.00    -0.016 A 
HETATM   17  C15 UNL     1      21.459   1.561  48.257  1.00  0.00     0.002 A 
HETATM   18  C16 UNL     1      21.477   2.913  48.815  1.00  0.00     0.156 A 
BRANCH  18  19
HETATM   19  O1  UNL     1      20.480   3.772  48.463  1.00  0.00    -0.377 OA
BRANCH  19  20
HETATM   20  C17 UNL     1      20.947   4.994  48.028  1.00  0.00     0.207 C 
BRANCH  20  21
HETATM   21  C18 UNL     1      22.136   5.425  48.787  1.00  0.00    -0.035 A 
HETATM   22  C19 UNL     1      21.900   5.962  50.047  1.00  0.00     0.009 A 
HETATM   23  C20 UNL     1      22.997   6.356  50.800  1.00  0.00     0.001 A 
HETATM   24  C21 UNL     1      24.297   6.261  50.403  1.00  0.00     0.000 A 
HETATM   25  C22 UNL     1      24.512   5.724  49.150  1.00  0.00     0.001 A 
HETATM   26  C23 UNL     1      23.454   5.322  48.376  1.00  0.00     0.009 A 
ENDBRANCH  20  21
ENDBRANCH  19  20
ENDBRANCH  18  19
ENDBRANCH  10  15
BRANCH   1  27
HETATM   27  C5  UNL     1      27.298   0.605  52.638  1.00  0.00     0.130 C 
BRANCH  27  28
HETATM   28  N1  UNL     1      28.235  -0.118  53.433  1.00  0.00    -0.384 N 
HETATM   29  C2  UNL     1      28.842  -1.407  53.318  1.00  0.00    -0.001 C 
HETATM   30  C1  UNL     1      28.536  -2.614  52.937  1.00  0.00     0.038 C 
HETATM   31  C3  UNL     1      30.062  -0.744  53.852  1.00  0.00     0.076 C 
HETATM   32  C4  UNL     1      29.028   0.010  54.652  1.00  0.00     0.128 C 
ENDBRANCH  27  28
ENDBRANCH   1  27
TORSDOF 6
ENDMDL
MODEL 7
REMARK VINA RESULT:      -8.6      1.998      4.498
REMARK  6 active torsions:
REMARK  status: ('A' for Active; 'I' for Inactive)
REMARK    1  A    between atoms: N1_5  and  C5_6 
REMARK    2  A    between atoms: C5_6  and  C6_7 
REMARK    3  A    between atoms: C12_16  and  C13_17 
REMARK    4  A    between atoms: C16_20  and  O1_21 
REMARK    5  A    between atoms: O1_21  and  C17_22 
REMARK    6  A    between atoms: C17_22  and  C18_23 
ROOT
HETATM    1  C6  UNL     1      26.055   0.793  53.386  1.00  0.00     0.048 C 
HETATM    2  C7  UNL     1      25.946   2.110  54.050  1.00  0.00     0.126 C 
HETATM    3  N2  UNL     1      25.002   3.085  53.468  1.00  0.00    -0.359 N 
HETATM    4  C8  UNL     1      23.778   2.693  52.469  1.00  0.00     0.497 A 
HETATM    5  N3  UNL     1      24.031   3.819  51.705  1.00  0.00     0.265 N 
HETATM    6  C9  UNL     1      23.046   4.179  50.844  1.00  0.00     0.543 A 
HETATM    7  N4  UNL     1      23.887   3.578  51.817  1.00  0.00     0.265 N 
HETATM    8  C10 UNL     1      23.360   2.479  52.391  1.00  0.00     0.571 A 
HETATM    9  C11 UNL     1      22.595   1.709  52.558  1.00  0.00     0.344 A 
HETATM   10  C12 UNL     1      21.723   0.803  52.753  1.00  0.00     0.004 A 
HETATM   11  C24 UNL     1      22.697  -0.125  52.838  1.00  0.00     0.216 A 
HETATM   12  N5  UNL     1      23.622   0.947  52.621  1.00  0.00     0.048 N 
HETATM   13  C25 UNL     1      24.911   0.147  52.738  1.00  0.00     0.258 C 
HETATM   14  H12 UNL     1      25.176   4.060  53.813  1.00  0.00     0.157 HD
ENDROOT
BRANCH  10  15
HETATM   15  C13 UNL     1      20.339   1.244  52.812  1.00  0.00     0.074 A 
HETATM   16  C14 UNL     1      19.614   0.107  53.488  1.00  0.00    -0.016 A 
HETATM   17  C15 UNL     1      19.022  -0.245  52.371  1.00  0.00     0.002 A 
HETATM   18  C16 UNL     1      19.618   0.792  51.529  1.00  0.00     0.156 A 
BRANCH  18  19
HETATM   19  O1  UNL     1      18.802   1.750  51.007  1.00  0.00    -0.377 OA
BRANCH  19  20
HETATM   20  C17 UNL     1      18.655   1.649  49.640  1.00  0.00     0.207 C 
BRANCH  20  21
HETATM   21  C18 UNL     1      19.886   2.040  48.928  1.00  0.00    -0.035 A 
HETATM   22  C19 UNL     1      19.876   3.291  48.323  1.00  0.00     0.009 A 
HETATM   23  C20 UNL     1      21.026   3.703  47.665  1.00  0.00     0.001 A 
HETATM   24  C21 UNL     1      22.174   2.977  47.561  1.00  0.00     0.000 A 
HETATM   25  C22 UNL     1      22.166   1.737  48.168  1.00  0.00     0.001 A 
HETATM   26  C23 UNL     1      21.049   1.296  48.829  1.00  0.00     0.009 A 
ENDBRANCH  20  21
ENDBRANCH  19  20
ENDBRANCH  18  19
ENDBRANCH  10  15
BRANCH   1  27
HETATM   27  C5  UNL     1      26.763  -0.184  54.292  1.00  0.00     0.130 C 
BRANCH  27  28
HETATM   28  N1  UNL     1      28.186  -0.178  54.199  1.00  0.00    -0.384 N 
HETATM   29  C2  UNL     1      29.139  -1.030  53.560  1.00  0.00    -0.001 C 
HETATM   30  C1  UNL     1      29.328  -2.296  53.317  1.00  0.00     0.038 C 
HETATM   31  C3  UNL     1      29.879   0.226  53.262  1.00  0.00     0.076 C 
HETATM   32  C4  UNL     1      29.349   0.595  54.627  1.00  0.00     0.128 C 
ENDBRANCH  27  28
ENDBRANCH   1  27
TORSDOF 6
ENDMDL
MODEL 8
REMARK VINA RESULT:      -8.5      3.608      7.922
REMARK  6 active torsions:
REMARK  status: ('A' for Active; 'I' for Inactive)
REMARK    1  A    between atoms: N1_5  and  C5_6 
REMARK    2  A    between atoms: C5_6  and  C6_7 
REMARK    3  A    between atoms: C12_16  and  C13_17 
REMARK    4  A    between atoms: C16_20  and  O1_21 
REMARK    5  A    between atoms: O1_21  and  C17_22 
REMARK    6  A    between atoms: C17_22  and  C18_23 
ROOT
HETATM    1  C6  UNL     1      24.187   6.419  50.265  1.00  0.00     0.048 C 
HETATM    2  C7  UNL     1      24.832   5.759  49.109  1.00  0.00     0.126 C 
HETATM    3  N2  UNL     1      25.515   4.475  49.359  1.00  0.00    -0.359 N 
HETATM    4  C8  UNL     1      25.243   3.526  50.653  1.00  0.00     0.497 A 
HETATM    5  N3  UNL     1      26.596   3.249  50.745  1.00  0.00     0.265 N 
HETATM    6  C9  UNL     1      26.927   2.191  51.527  1.00  0.00     0.543 A 
HETATM    7  N4  UNL     1      26.297   3.227  50.789  1.00  0.00     0.265 N 
HETATM    8  C10 UNL     1      24.954   3.242  50.904  1.00  0.00     0.571 A 
HETATM    9  C11 UNL     1      23.980   2.892  51.270  1.00  0.00     0.344 A 
HETATM   10  C12 UNL     1      22.846   2.505  51.695  1.00  0.00     0.004 A 
HETATM   11  C24 UNL     1      22.459   3.788  51.848  1.00  0.00     0.216 A 
HETATM   12  N5  UNL     1      23.754   4.149  51.354  1.00  0.00     0.048 N 
HETATM   13  C25 UNL     1      23.571   5.659  51.356  1.00  0.00     0.258 C 
HETATM   14  H12 UNL     1      26.165   4.213  48.577  1.00  0.00     0.157 HD
ENDROOT
BRANCH  10  15
HETATM   15  C13 UNL     1      22.625   1.069  51.725  1.00  0.00     0.074 A 
HETATM   16  C14 UNL     1      21.146   0.924  51.993  1.00  0.00    -0.016 A 
HETATM   17  C15 UNL     1      21.360   0.501  53.217  1.00  0.00     0.002 A 
HETATM   18  C16 UNL     1      22.821   0.566  53.167  1.00  0.00     0.156 A 
BRANCH  18  19
HETATM   19  O1  UNL     1      23.523  -0.600  53.237  1.00  0.00    -0.377 OA
BRANCH  19  20
HETATM   20  C17 UNL     1      24.286  -0.703  54.381  1.00  0.00     0.207 C 
BRANCH  20  21
HETATM   21  C18 UNL     1      25.728  -0.625  54.084  1.00  0.00    -0.035 A 
HETATM   22  C19 UNL     1      26.494   0.146  54.951  1.00  0.00     0.009 A 
HETATM   23  C20 UNL     1      27.859   0.223  54.715  1.00  0.00     0.001 A 
HETATM   24  C21 UNL     1      28.517  -0.397  53.697  1.00  0.00     0.000 A 
HETATM   25  C22 UNL     1      27.741  -1.159  52.846  1.00  0.00     0.001 A 
HETATM   26  C23 UNL     1      26.388  -1.261  53.046  1.00  0.00     0.009 A 
ENDBRANCH  20  21
ENDBRANCH  19  20
ENDBRANCH  18  19
ENDBRANCH  10  15
BRANCH   1  27
HETATM   27  C5  UNL     1      23.248   7.499  49.785  1.00  0.00     0.130 C 
BRANCH  27  28
HETATM   28  N1  UNL     1      21.957   7.048  49.383  1.00  0.00    -0.384 N 
HETATM   29  C2  UNL     1      21.482   6.248  48.299  1.00  0.00    -0.001 C 
HETATM   30  C1  UNL     1      21.723   6.052  47.034  1.00  0.00     0.038 C 
HETATM   31  C3  UNL     1      20.527   5.687  49.291  1.00  0.00     0.076 C 
HETATM   32  C4  UNL     1      20.555   7.112  49.787  1.00  0.00     0.128 C 
ENDBRANCH  27  28
ENDBRANCH   1  27
TORSDOF 6
ENDMDL
MODEL 9
REMARK VINA RESULT:      -8.5      2.115      4.885
REMARK  6 active torsions:
REMARK  status: ('A' for Active; 'I' for Inactive)
REMARK    1  A    between atoms: N1_5  and  C5_6 
REMARK    2  A    between atoms: C5_6  and  C6_7 
REMARK    3  A    between atoms: C12_16  and  C13_17 
REMARK    4  A    between atoms: C16_20  and  O1_21 
REMARK    5  A    between atoms: O1_21  and  C17_22 
REMARK    6  A    between atoms: C17_22  and  C18_23 
ROOT
HETATM    1  C6  UNL     1      25.893   0.311  53.431  1.00  0.00     0.048 C 
HETATM    2  C7  UNL     1      25.865   1.774  53.209  1.00  0.00     0.126 C 
HETATM    3  N2  UNL     1      24.819   2.301  52.311  1.00  0.00    -0.359 N 
HETATM    4  C8  UNL     1      23.458   1.500  51.916  1.00  0.00     0.497 A 
HETATM    5  N3  UNL     1      23.560   1.953  50.612  1.00  0.00     0.265 N 
HETATM    6  C9  UNL     1      22.441   1.823  49.855  1.00  0.00     0.543 A 
HETATM    7  N4  UNL     1      23.441   1.833  50.863  1.00  0.00     0.265 N 
HETATM    8  C10 UNL     1      23.037   1.313  52.039  1.00  0.00     0.571 A 
HETATM    9  C11 UNL     1      22.326   0.844  52.731  1.00  0.00     0.344 A 
HETATM   10  C12 UNL     1      21.516   0.289  53.540  1.00  0.00     0.004 A 
HETATM   11  C24 UNL     1      22.511  -0.491  54.010  1.00  0.00     0.216 A 
HETATM   12  N5  UNL     1      23.366   0.183  53.079  1.00  0.00     0.048 N 
HETATM   13  C25 UNL     1      24.672  -0.500  53.454  1.00  0.00     0.258 C 
HETATM   14  H12 UNL     1      25.026   3.280  51.993  1.00  0.00     0.157 HD
ENDROOT
BRANCH  10  15
HETATM   15  C13 UNL     1      20.151   0.789  53.529  1.00  0.00     0.074 A 
HETATM   16  C14 UNL     1      19.319  -0.406  53.132  1.00  0.00    -0.016 A 
HETATM   17  C15 UNL     1      19.075   0.097  51.945  1.00  0.00     0.002 A 
HETATM   18  C16 UNL     1      19.833   1.335  52.125  1.00  0.00     0.156 A 
BRANCH  18  19
HETATM   19  O1  UNL     1      19.151   2.514  52.151  1.00  0.00    -0.377 OA
BRANCH  19  20
HETATM   20  C17 UNL     1      19.158   3.169  50.938  1.00  0.00     0.207 C 
BRANCH  20  21
HETATM   21  C18 UNL     1      20.094   4.309  50.940  1.00  0.00    -0.035 A 
HETATM   22  C19 UNL     1      19.846   5.311  50.010  1.00  0.00     0.009 A 
HETATM   23  C20 UNL     1      20.692   6.411  50.000  1.00  0.00     0.001 A 
HETATM   24  C21 UNL     1      21.755   6.591  50.831  1.00  0.00     0.000 A 
HETATM   25  C22 UNL     1      21.987   5.587  51.749  1.00  0.00     0.001 A 
HETATM   26  C23 UNL     1      21.172   4.485  51.791  1.00  0.00     0.009 A 
ENDBRANCH  20  21
ENDBRANCH  19  20
ENDBRANCH  18  19
ENDBRANCH  10  15
BRANCH   1  27
HETATM   27  C5  UNL     1      26.759  -0.014  54.622  1.00  0.00     0.130 C 
BRANCH  27  28
HETATM   28  N1  UNL     1      28.163   0.088  54.400  1.00  0.00    -0.384 N 
HETATM   29  C2  UNL     1      29.105  -0.687  53.654  1.00  0.00    -0.001 C 
HETATM   30  C1  UNL     1      29.350  -1.932  53.361  1.00  0.00     0.038 C 
HETATM   31  C3  UNL     1      29.732   0.620  53.322  1.00  0.00     0.076 C 
HETATM   32  C4  UNL     1      29.310   0.926  54.739  1.00  0.00     0.128 C 
ENDBRANCH  27  28
ENDBRANCH   1  27
TORSDOF 6
ENDMDL
