MODEL 1
REMARK VINA RESULT:      -8.0      0.000      0.000
REMARK  0 active torsions:
REMARK  status: ('A' for Active; 'I' for Inactive)
ROOT
HETATM    1  C1  UNL     1      26.400   0.205  54.573  1.00  0.00     0.069 C 
HETATM    2  C2  UNL     1      25.837   0.912  53.397  1.00  0.00     0.018 C 
HETATM    3  C3  UNL     1      26.316   2.024  52.921  1.00  0.00    -0.002 C 
HETATM    4  C4  UNL     1      25.918   2.404  51.742  1.00  0.00     0.015 C 
HETATM    5  C5  UNL     1      24.488   2.591  51.957  1.00  0.00     0.008 C 
HETATM    6  C6  UNL     1      23.568   2.844  51.041  1.00  0.00     0.140 C 
HETATM    7  S1  UNL     1      22.278   3.183  49.887  1.00  0.00    -0.210 SA
HETATM    8  C7  UNL     1      20.665   2.605  50.476  1.00  0.00     0.037 C 
HETATM    9  C8  UNL     1      20.568   1.133  50.132  1.00  0.00     0.041 C 
HETATM   10  C9  UNL     1      21.640   0.462  50.951  1.00  0.00    -0.018 C 
HETATM   11  C10 UNL     1      21.455   0.577  52.269  1.00  0.00    -0.046 C 
HETATM   12  C11 UNL     1      20.339   1.460  52.696  1.00  0.00     0.040 C 
HETATM   13  C12 UNL     1      20.522   2.776  51.970  1.00  0.00     0.019 C 
HETATM   14  C13 UNL     1      22.244  -0.089  53.298  1.00  0.00     0.033 A 
HETATM   15  C14 UNL     1      21.480  -0.735  54.248  1.00  0.00     0.134 A 
HETATM   16  N1  UNL     1      21.928  -1.436  55.318  1.00  0.00    -0.253 NA
HETATM   17  C15 UNL     1      23.265  -1.499  55.453  1.00  0.00     0.234 A 
HETATM   18  N2  UNL     1      24.043  -0.882  54.549  1.00  0.00    -0.224 NA
HETATM   19  C16 UNL     1      23.603  -0.188  53.490  1.00  0.00     0.141 A 
HETATM   20  N3  UNL     1      24.690   0.335  52.736  1.00  0.00    -0.343 N 
HETATM   21  H17 UNL     1      24.378   0.158  51.755  1.00  0.00     0.167 HD
ENDROOT
TORSDOF 0
ENDMDL
MODEL 2
REMARK VINA RESULT:      -8.0      1.628      4.458
REMARK  0 active torsions:
REMARK  status: ('A' for Active; 'I' for Inactive)
ROOT
HETATM    1  C1  UNL     1      19.737   0.970  51.826  1.00  0.00     0.069 C 
HETATM    2  C2  UNL     1      21.017   1.640  51.489  1.00  0.00     0.018 C 
HETATM    3  C3  UNL     1      21.284   2.153  50.324  1.00  0.00    -0.002 C 
HETATM    4  C4  UNL     1      22.314   2.943  50.227  1.00  0.00     0.015 C 
HETATM    5  C5  UNL     1      23.410   2.048  50.582  1.00  0.00     0.008 C 
HETATM    6  C6  UNL     1      24.677   2.374  50.778  1.00  0.00     0.140 C 
HETATM    7  S1  UNL     1      26.383   2.720  51.057  1.00  0.00    -0.210 SA
HETATM    8  C7  UNL     1      27.156   1.503  52.155  1.00  0.00     0.037 C 
HETATM    9  C8  UNL     1      26.851   1.929  53.576  1.00  0.00     0.041 C 
HETATM   10  C9  UNL     1      25.356   1.810  53.714  1.00  0.00    -0.018 C 
HETATM   11  C10 UNL     1      24.904   0.561  53.567  1.00  0.00    -0.046 C 
HETATM   12  C11 UNL     1      25.908  -0.449  53.144  1.00  0.00     0.040 C 
HETATM   13  C12 UNL     1      26.607   0.115  51.925  1.00  0.00     0.019 C 
HETATM   14  C13 UNL     1      23.532   0.123  53.791  1.00  0.00     0.033 A 
HETATM   15  C14 UNL     1      23.433  -0.993  54.596  1.00  0.00     0.134 A 
HETATM   16  N1  UNL     1      22.297  -1.627  54.979  1.00  0.00    -0.253 NA
HETATM   17  C15 UNL     1      21.152  -1.096  54.514  1.00  0.00     0.234 A 
HETATM   18  N2  UNL     1      21.206  -0.010  53.727  1.00  0.00    -0.224 NA
HETATM   19  C16 UNL     1      22.328   0.619  53.347  1.00  0.00     0.141 A 
HETATM   20  N3  UNL     1      22.030   1.734  52.516  1.00  0.00    -0.343 N 
HETATM   21  H17 UNL     1      22.687   2.458  52.881  1.00  0.00     0.167 HD
ENDROOT
TORSDOF 0
ENDMDL
MODEL 3
REMARK VINA RESULT:      -7.8      2.060      4.234
REMARK  0 active torsions:
REMARK  status: ('A' for Active; 'I' for Inactive)
ROOT
HETATM    1  C1  UNL     1      27.829   1.057  52.800  1.00  0.00     0.069 C 
HETATM    2  C2  UNL     1      26.486   0.647  53.279  1.00  0.00     0.018 C 
HETATM    3  C3  UNL     1      26.241  -0.482  53.876  1.00  0.00    -0.002 C 
HETATM    4  C4  UNL     1      25.099  -0.615  54.486  1.00  0.00     0.015 C 
HETATM    5  C5  UNL     1      24.156  -0.480  53.382  1.00  0.00     0.008 C 
HETATM    6  C6  UNL     1      22.837  -0.398  53.462  1.00  0.00     0.140 C 
HETATM    7  S1  UNL     1      21.078  -0.282  53.477  1.00  0.00    -0.210 SA
HETATM    8  C7  UNL     1      20.438   0.589  52.023  1.00  0.00     0.037 C 
HETATM    9  C8  UNL     1      20.526   2.072  52.319  1.00  0.00     0.041 C 
HETATM   10  C9  UNL     1      21.998   2.367  52.439  1.00  0.00    -0.018 C 
HETATM   11  C10 UNL     1      22.681   2.145  51.312  1.00  0.00    -0.046 C 
HETATM   12  C11 UNL     1      21.921   1.508  50.205  1.00  0.00     0.040 C 
HETATM   13  C12 UNL     1      21.250   0.282  50.786  1.00  0.00     0.019 C 
HETATM   14  C13 UNL     1      24.082   2.478  51.089  1.00  0.00     0.033 A 
HETATM   15  C14 UNL     1      24.306   3.170  49.917  1.00  0.00     0.134 A 
HETATM   16  N1  UNL     1      25.496   3.614  49.443  1.00  0.00    -0.253 NA
HETATM   17  C15 UNL     1      26.565   3.340  50.214  1.00  0.00     0.234 A 
HETATM   18  N2  UNL     1      26.389   2.668  51.362  1.00  0.00    -0.224 NA
HETATM   19  C16 UNL     1      25.213   2.229  51.832  1.00  0.00     0.141 A 
HETATM   20  N3  UNL     1      25.380   1.555  53.074  1.00  0.00    -0.343 N 
HETATM   21  H17 UNL     1      24.571   1.916  53.627  1.00  0.00     0.167 HD
ENDROOT
TORSDOF 0
ENDMDL
MODEL 4
REMARK VINA RESULT:      -7.7      1.612      2.560
REMARK  0 active torsions:
REMARK  status: ('A' for Active; 'I' for Inactive)
ROOT
HETATM    1  C1  UNL     1      24.739  -1.252  55.444  1.00  0.00     0.069 C 
HETATM    2  C2  UNL     1      25.327  -0.440  54.350  1.00  0.00     0.018 C 
HETATM    3  C3  UNL     1      26.537   0.034  54.368  1.00  0.00    -0.002 C 
HETATM    4  C4  UNL     1      27.029   0.493  53.253  1.00  0.00     0.015 C 
HETATM    5  C5  UNL     1      26.122   1.597  52.961  1.00  0.00     0.008 C 
HETATM    6  C6  UNL     1      26.080   2.328  51.858  1.00  0.00     0.140 C 
HETATM    7  S1  UNL     1      25.955   3.349  50.426  1.00  0.00    -0.210 SA
HETATM    8  C7  UNL     1      24.291   4.032  50.218  1.00  0.00     0.037 C 
HETATM    9  C8  UNL     1      23.460   2.975  49.520  1.00  0.00     0.041 C 
HETATM   10  C9  UNL     1      23.382   1.826  50.492  1.00  0.00    -0.018 C 
HETATM   11  C10 UNL     1      22.760   2.133  51.633  1.00  0.00    -0.046 C 
HETATM   12  C11 UNL     1      22.399   3.563  51.814  1.00  0.00     0.040 C 
HETATM   13  C12 UNL     1      23.654   4.367  51.546  1.00  0.00     0.019 C 
HETATM   14  C13 UNL     1      22.410   1.191  52.689  1.00  0.00     0.033 A 
HETATM   15  C14 UNL     1      21.098   1.288  53.103  1.00  0.00     0.134 A 
HETATM   16  N1  UNL     1      20.486   0.549  54.061  1.00  0.00    -0.253 NA
HETATM   17  C15 UNL     1      21.258  -0.374  54.662  1.00  0.00     0.234 A 
HETATM   18  N2  UNL     1      22.541  -0.500  54.288  1.00  0.00    -0.224 NA
HETATM   19  C16 UNL     1      23.148   0.230  53.341  1.00  0.00     0.141 A 
HETATM   20  N3  UNL     1      24.508  -0.158  53.193  1.00  0.00    -0.343 N 
HETATM   21  H17 UNL     1      24.622  -0.157  52.155  1.00  0.00     0.167 HD
ENDROOT
TORSDOF 0
ENDMDL
MODEL 5
REMARK VINA RESULT:      -7.6      2.279      4.889
REMARK  0 active torsions:
REMARK  status: ('A' for Active; 'I' for Inactive)
ROOT
HETATM    1  C1  UNL     1      22.099   3.015  50.167  1.00  0.00     0.069 C 
HETATM    2  C2  UNL     1      23.497   3.092  50.656  1.00  0.00     0.018 C 
HETATM    3  C3  UNL     1      24.477   3.608  49.974  1.00  0.00    -0.002 C 
HETATM    4  C4  UNL     1      25.588   3.865  50.602  1.00  0.00     0.015 C 
HETATM    5  C5  UNL     1      25.999   2.534  51.035  1.00  0.00     0.008 C 
HETATM    6  C6  UNL     1      27.003   2.230  51.841  1.00  0.00     0.140 C 
HETATM    7  S1  UNL     1      28.318   1.735  52.906  1.00  0.00    -0.210 SA
HETATM    8  C7  UNL     1      27.985   0.147  53.712  1.00  0.00     0.037 C 
HETATM    9  C8  UNL     1      27.127   0.435  54.927  1.00  0.00     0.041 C 
HETATM   10  C9  UNL     1      25.830   0.971  54.379  1.00  0.00    -0.018 C 
HETATM   11  C10 UNL     1      25.166   0.092  53.623  1.00  0.00    -0.046 C 
HETATM   12  C11 UNL     1      25.877  -1.179  53.324  1.00  0.00     0.040 C 
HETATM   13  C12 UNL     1      27.244  -0.799  52.795  1.00  0.00     0.019 C 
HETATM   14  C13 UNL     1      23.825   0.278  53.084  1.00  0.00     0.033 A 
HETATM   15  C14 UNL     1      22.983  -0.790  53.318  1.00  0.00     0.134 A 
HETATM   16  N1  UNL     1      21.685  -0.906  52.942  1.00  0.00    -0.253 NA
HETATM   17  C15 UNL     1      21.181   0.144  52.267  1.00  0.00     0.234 A 
HETATM   18  N2  UNL     1      21.969   1.201  52.018  1.00  0.00    -0.224 NA
HETATM   19  C16 UNL     1      23.252   1.318  52.390  1.00  0.00     0.141 A 
HETATM   20  N3  UNL     1      23.793   2.565  51.968  1.00  0.00    -0.343 N 
HETATM   21  H17 UNL     1      24.344   2.856  52.805  1.00  0.00     0.167 HD
ENDROOT
TORSDOF 0
ENDMDL
MODEL 6
REMARK VINA RESULT:      -7.6      1.908      3.299
REMARK  0 active torsions:
REMARK  status: ('A' for Active; 'I' for Inactive)
ROOT
HETATM    1  C1  UNL     1      26.651   2.505  51.575  1.00  0.00     0.069 C 
HETATM    2  C2  UNL     1      25.214   2.208  51.354  1.00  0.00     0.018 C 
HETATM    3  C3  UNL     1      24.374   3.045  50.821  1.00  0.00    -0.002 C 
HETATM    4  C4  UNL     1      23.220   2.586  50.433  1.00  0.00     0.015 C 
HETATM    5  C5  UNL     1      22.647   2.120  51.690  1.00  0.00     0.008 C 
HETATM    6  C6  UNL     1      21.529   1.431  51.853  1.00  0.00     0.140 C 
HETATM    7  S1  UNL     1      20.054   0.515  52.162  1.00  0.00    -0.210 SA
HETATM    8  C7  UNL     1      20.149  -0.434  53.702  1.00  0.00     0.037 C 
HETATM    9  C8  UNL     1      20.871  -1.728  53.384  1.00  0.00     0.041 C 
HETATM   10  C9  UNL     1      22.267  -1.317  52.993  1.00  0.00    -0.018 C 
HETATM   11  C10 UNL     1      22.942  -0.716  53.976  1.00  0.00    -0.046 C 
HETATM   12  C11 UNL     1      22.169  -0.416  55.209  1.00  0.00     0.040 C 
HETATM   13  C12 UNL     1      20.915   0.311  54.771  1.00  0.00     0.019 C 
HETATM   14  C13 UNL     1      24.351  -0.344  53.935  1.00  0.00     0.033 A 
HETATM   15  C14 UNL     1      25.064  -0.759  55.041  1.00  0.00     0.134 A 
HETATM   16  N1  UNL     1      26.383  -0.563  55.284  1.00  0.00    -0.253 NA
HETATM   17  C15 UNL     1      27.054   0.111  54.332  1.00  0.00     0.234 A 
HETATM   18  N2  UNL     1      26.396   0.532  53.241  1.00  0.00    -0.224 NA
HETATM   19  C16 UNL     1      25.092   0.339  52.999  1.00  0.00     0.141 A 
HETATM   20  N3  UNL     1      24.715   0.912  51.752  1.00  0.00    -0.343 N 
HETATM   21  H17 UNL     1      24.091   0.176  51.355  1.00  0.00     0.167 HD
ENDROOT
TORSDOF 0
ENDMDL
MODEL 7
REMARK VINA RESULT:      -7.6      1.721      4.155
REMARK  0 active torsions:
REMARK  status: ('A' for Active; 'I' for Inactive)
ROOT
HETATM    1  C1  UNL     1      25.100  -0.520  54.108  1.00  0.00     0.069 C 
HETATM    2  C2  UNL     1      23.770  -0.183  53.543  1.00  0.00     0.018 C 
HETATM    3  C3  UNL     1      22.773  -1.016  53.490  1.00  0.00    -0.002 C 
HETATM    4  C4  UNL     1      21.591  -0.536  53.228  1.00  0.00     0.015 C 
HETATM    5  C5  UNL     1      21.784   0.015  51.892  1.00  0.00     0.008 C 
HETATM    6  C6  UNL     1      20.930   0.751  51.199  1.00  0.00     0.140 C 
HETATM    7  S1  UNL     1      19.853   1.735  50.208  1.00  0.00    -0.210 SA
HETATM    8  C7  UNL     1      20.762   2.759  49.021  1.00  0.00     0.037 C 
HETATM    9  C8  UNL     1      21.204   4.007  49.757  1.00  0.00     0.041 C 
HETATM   10  C9  UNL     1      22.172   3.527  50.808  1.00  0.00    -0.018 C 
HETATM   11  C10 UNL     1      23.267   2.953  50.303  1.00  0.00    -0.046 C 
HETATM   12  C11 UNL     1      23.274   2.745  48.831  1.00  0.00     0.040 C 
HETATM   13  C12 UNL     1      21.979   2.043  48.484  1.00  0.00     0.019 C 
HETATM   14  C13 UNL     1      24.433   2.529  51.068  1.00  0.00     0.033 A 
HETATM   15  C14 UNL     1      25.629   2.974  50.544  1.00  0.00     0.134 A 
HETATM   16  N1  UNL     1      26.872   2.744  51.033  1.00  0.00    -0.253 NA
HETATM   17  C15 UNL     1      26.926   1.998  52.151  1.00  0.00     0.234 A 
HETATM   18  N2  UNL     1      25.785   1.545  52.692  1.00  0.00    -0.224 NA
HETATM   19  C16 UNL     1      24.554   1.772  52.210  1.00  0.00     0.141 A 
HETATM   20  N3  UNL     1      23.566   1.149  53.022  1.00  0.00    -0.343 N 
HETATM   21  H17 UNL     1      22.828   1.886  53.069  1.00  0.00     0.167 HD
ENDROOT
TORSDOF 0
ENDMDL
MODEL 8
REMARK VINA RESULT:      -7.5      2.543      5.215
REMARK  0 active torsions:
REMARK  status: ('A' for Active; 'I' for Inactive)
ROOT
HETATM    1  C1  UNL     1      19.085  -0.492  53.437  1.00  0.00     0.069 C 
HETATM    2  C2  UNL     1      20.538  -0.788  53.481  1.00  0.00     0.018 C 
HETATM    3  C3  UNL     1      21.083  -1.630  54.308  1.00  0.00    -0.002 C 
HETATM    4  C4  UNL     1      22.307  -2.007  54.077  1.00  0.00     0.015 C 
HETATM    5  C5  UNL     1      23.031  -0.745  54.183  1.00  0.00     0.008 C 
HETATM    6  C6  UNL     1      24.305  -0.528  53.899  1.00  0.00     0.140 C 
HETATM    7  S1  UNL     1      25.991  -0.150  53.545  1.00  0.00    -0.210 SA
HETATM    8  C7  UNL     1      26.225   1.594  53.118  1.00  0.00     0.037 C 
HETATM    9  C8  UNL     1      25.897   1.740  51.646  1.00  0.00     0.041 C 
HETATM   10  C9  UNL     1      24.430   1.417  51.533  1.00  0.00    -0.018 C 
HETATM   11  C10 UNL     1      23.643   2.264  52.201  1.00  0.00    -0.046 C 
HETATM   12  C11 UNL     1      24.338   3.262  53.055  1.00  0.00     0.040 C 
HETATM   13  C12 UNL     1      25.314   2.493  53.920  1.00  0.00     0.019 C 
HETATM   14  C13 UNL     1      22.187   2.286  52.155  1.00  0.00     0.033 A 
HETATM   15  C14 UNL     1      21.661   3.540  51.921  1.00  0.00     0.134 A 
HETATM   16  N1  UNL     1      20.350   3.872  51.824  1.00  0.00    -0.253 NA
HETATM   17  C15 UNL     1      19.482   2.855  51.974  1.00  0.00     0.234 A 
HETATM   18  N2  UNL     1      19.954   1.620  52.204  1.00  0.00    -0.224 NA
HETATM   19  C16 UNL     1      21.250   1.289  52.300  1.00  0.00     0.141 A 
HETATM   20  N3  UNL     1      21.403  -0.103  52.547  1.00  0.00    -0.343 N 
HETATM   21  H17 UNL     1      22.200  -0.348  51.919  1.00  0.00     0.167 HD
ENDROOT
TORSDOF 0
ENDMDL
MODEL 9
REMARK VINA RESULT:      -7.5      2.742      6.216
REMARK  0 active torsions:
REMARK  status: ('A' for Active; 'I' for Inactive)
ROOT
HETATM    1  C1  UNL     1      21.721   3.883  50.239  1.00  0.00     0.069 C 
HETATM    2  C2  UNL     1      22.139   2.756  51.109  1.00  0.00     0.018 C 
HETATM    3  C3  UNL     1      21.460   2.342  52.137  1.00  0.00    -0.002 C 
HETATM    4  C4  UNL     1      21.779   1.191  52.655  1.00  0.00     0.015 C 
HETATM    5  C5  UNL     1      23.149   1.432  53.093  1.00  0.00     0.008 C 
HETATM    6  C6  UNL     1      24.005   0.541  53.568  1.00  0.00     0.140 C 
HETATM    7  S1  UNL     1      25.207  -0.577  54.211  1.00  0.00    -0.210 SA
HETATM    8  C7  UNL     1      26.900  -0.007  53.910  1.00  0.00     0.037 C 
HETATM    9  C8  UNL     1      27.271  -0.435  52.506  1.00  0.00     0.041 C 
HETATM   10  C9  UNL     1      26.345   0.332  51.599  1.00  0.00    -0.018 C 
HETATM   11  C10 UNL     1      26.506   1.656  51.667  1.00  0.00    -0.046 C 
HETATM   12  C11 UNL     1      27.437   2.146  52.717  1.00  0.00     0.040 C 
HETATM   13  C12 UNL     1      27.010   1.496  54.016  1.00  0.00     0.019 C 
HETATM   14  C13 UNL     1      25.857   2.636  50.805  1.00  0.00     0.033 A 
HETATM   15  C14 UNL     1      26.729   3.554  50.258  1.00  0.00     0.134 A 
HETATM   16  N1  UNL     1      26.421   4.577  49.423  1.00  0.00    -0.253 NA
HETATM   17  C15 UNL     1      25.119   4.693  49.103  1.00  0.00     0.234 A 
HETATM   18  N2  UNL     1      24.239   3.820  49.616  1.00  0.00    -0.224 NA
HETATM   19  C16 UNL     1      24.541   2.807  50.442  1.00  0.00     0.141 A 
HETATM   20  N3  UNL     1      23.374   2.074  50.796  1.00  0.00    -0.343 N 
HETATM   21  H17 UNL     1      23.713   1.089  50.740  1.00  0.00     0.167 HD
ENDROOT
TORSDOF 0
ENDMDL
