MODEL 1
REMARK VINA RESULT:      -7.8      0.000      0.000
REMARK  8 active torsions:
REMARK  status: ('A' for Active; 'I' for Inactive)
REMARK    1  A    between atoms: O1_1  and  C1_2 
REMARK    2  A    between atoms: C1_2  and  C2_3 
REMARK    3  A    between atoms: C3_4  and  C4_5 
REMARK    4  A    between atoms: C8_9  and  N1_10 
REMARK    5  A    between atoms: N1_10  and  C9_11 
REMARK    6  A    between atoms: C9_11  and  C10_12 
REMARK    7  A    between atoms: C10_12  and  C11_13 
REMARK    8  A    between atoms: C11_13  and  C12_14 
ROOT
HETATM    1  C4  UNL     1      26.027   3.152  49.932  1.00  0.00     0.033 C 
HETATM    2  C5  UNL     1      26.416   2.476  51.002  1.00  0.00     0.060 A 
HETATM    3  C6  UNL     1      25.672   1.370  51.660  1.00  0.00     0.110 A 
HETATM    4  C7  UNL     1      26.597   1.032  52.771  1.00  0.00     0.028 A 
HETATM    5  C8  UNL     1      26.464   0.071  53.748  1.00  0.00     0.040 A 
HETATM    6  C17 UNL     1      27.466  -0.066  54.695  1.00  0.00     0.049 A 
HETATM    7  C18 UNL     1      28.588   0.746  54.668  1.00  0.00     0.122 A 
HETATM    8  N2  UNL     1      28.686   1.680  53.694  1.00  0.00    -0.236 NA
HETATM    9  C19 UNL     1      27.721   1.832  52.759  1.00  0.00     0.178 A 
HETATM   10  O2  UNL     1      27.614   2.721  51.674  1.00  0.00    -0.295 OA
ENDROOT
BRANCH   5  11
HETATM   11  N1  UNL     1      25.314  -0.764  53.779  1.00  0.00    -0.389 N 
HETATM   12  H9  UNL     1      24.992  -1.241  52.929  1.00  0.00     0.159 HD
BRANCH  11  13
HETATM   13  C9  UNL     1      24.563  -0.970  55.007  1.00  0.00     0.120 C 
BRANCH  13  14
HETATM   14  C10 UNL     1      23.076  -0.991  54.738  1.00  0.00     0.024 C 
BRANCH  14  15
HETATM   15  C11 UNL     1      22.728  -0.259  53.460  1.00  0.00     0.041 C 
BRANCH  15  16
HETATM   16  C12 UNL     1      21.291  -0.344  53.137  1.00  0.00    -0.055 A 
HETATM   17  C13 UNL     1      20.302  -0.923  53.802  1.00  0.00     0.007 A 
HETATM   18  C14 UNL     1      18.962  -0.874  53.280  1.00  0.00    -0.003 A 
HETATM   19  C15 UNL     1      18.616  -0.291  52.171  1.00  0.00    -0.022 A 
HETATM   20  C16 UNL     1      19.311   0.466  51.104  1.00  0.00     0.063 A 
HETATM   21  P1  UNL     1      21.111   0.548  51.549  1.00  0.00    -0.096 P 
HETATM   22  H21 UNL     1      21.897  -0.067  50.500  1.00  0.00     0.062 HD
ENDBRANCH  15  16
ENDBRANCH  14  15
ENDBRANCH  13  14
ENDBRANCH  11  13
ENDBRANCH   5  11
BRANCH   1  23
HETATM   23  C3  UNL     1      26.810   4.234  49.332  1.00  0.00     0.001 C 
HETATM   24  C2  UNL     1      26.273   5.402  49.029  1.00  0.00    -0.001 C 
BRANCH  24  25
HETATM   25  C1  UNL     1      27.058   6.498  48.424  1.00  0.00     0.191 C 
BRANCH  25  26
HETATM   26  O1  UNL     1      28.290   6.588  49.044  1.00  0.00    -0.397 OA
HETATM   27  H1  UNL     1      28.755   7.374  48.711  1.00  0.00     0.209 HD
ENDBRANCH  25  26
ENDBRANCH  24  25
ENDBRANCH   1  23
TORSDOF 8
ENDMDL
MODEL 2
REMARK VINA RESULT:      -7.8      1.653      2.233
REMARK  8 active torsions:
REMARK  status: ('A' for Active; 'I' for Inactive)
REMARK    1  A    between atoms: O1_1  and  C1_2 
REMARK    2  A    between atoms: C1_2  and  C2_3 
REMARK    3  A    between atoms: C3_4  and  C4_5 
REMARK    4  A    between atoms: C8_9  and  N1_10 
REMARK    5  A    between atoms: N1_10  and  C9_11 
REMARK    6  A    between atoms: C9_11  and  C10_12 
REMARK    7  A    between atoms: C10_12  and  C11_13 
REMARK    8  A    between atoms: C11_13  and  C12_14 
ROOT
HETATM    1  C4  UNL     1      26.167   3.088  49.780  1.00  0.00     0.033 C 
HETATM    2  C5  UNL     1      26.481   2.420  50.879  1.00  0.00     0.060 A 
HETATM    3  C6  UNL     1      25.715   1.290  51.468  1.00  0.00     0.110 A 
HETATM    4  C7  UNL     1      26.550   0.975  52.655  1.00  0.00     0.028 A 
HETATM    5  C8  UNL     1      26.360   0.007  53.615  1.00  0.00     0.040 A 
HETATM    6  C17 UNL     1      27.280  -0.105  54.646  1.00  0.00     0.049 A 
HETATM    7  C18 UNL     1      28.375   0.740  54.717  1.00  0.00     0.122 A 
HETATM    8  N2  UNL     1      28.530   1.679  53.757  1.00  0.00    -0.236 NA
HETATM    9  C19 UNL     1      27.646   1.808  52.742  1.00  0.00     0.178 A 
HETATM   10  O2  UNL     1      27.607   2.697  51.653  1.00  0.00    -0.295 OA
ENDROOT
BRANCH   5  11
HETATM   11  N1  UNL     1      25.237  -0.862  53.544  1.00  0.00    -0.389 N 
HETATM   12  H9  UNL     1      25.302  -1.760  53.052  1.00  0.00     0.159 HD
BRANCH  11  13
HETATM   13  C9  UNL     1      23.969  -0.509  54.164  1.00  0.00     0.120 C 
BRANCH  13  14
HETATM   14  C10 UNL     1      22.845  -0.530  53.153  1.00  0.00     0.024 C 
BRANCH  14  15
HETATM   15  C11 UNL     1      22.106   0.790  53.111  1.00  0.00     0.041 C 
BRANCH  15  16
HETATM   16  C12 UNL     1      22.074   1.372  51.756  1.00  0.00    -0.055 A 
HETATM   17  C13 UNL     1      21.806   0.803  50.590  1.00  0.00     0.007 A 
HETATM   18  C14 UNL     1      21.837   1.587  49.385  1.00  0.00    -0.003 A 
HETATM   19  C15 UNL     1      22.116   2.856  49.330  1.00  0.00    -0.022 A 
HETATM   20  C16 UNL     1      22.471   3.912  50.305  1.00  0.00     0.063 A 
HETATM   21  P1  UNL     1      22.501   3.137  51.991  1.00  0.00    -0.096 P 
HETATM   22  H21 UNL     1      23.819   3.293  52.572  1.00  0.00     0.062 HD
ENDBRANCH  15  16
ENDBRANCH  14  15
ENDBRANCH  13  14
ENDBRANCH  11  13
ENDBRANCH   5  11
BRANCH   1  23
HETATM   23  C3  UNL     1      26.966   4.195  49.252  1.00  0.00     0.001 C 
HETATM   24  C2  UNL     1      26.437   5.374  48.979  1.00  0.00    -0.001 C 
BRANCH  24  25
HETATM   25  C1  UNL     1      27.239   6.494  48.446  1.00  0.00     0.191 C 
BRANCH  25  26
HETATM   26  O1  UNL     1      27.488   7.411  49.451  1.00  0.00    -0.397 OA
HETATM   27  H1  UNL     1      28.298   7.903  49.238  1.00  0.00     0.209 HD
ENDBRANCH  25  26
ENDBRANCH  24  25
ENDBRANCH   1  23
TORSDOF 8
ENDMDL
MODEL 3
REMARK VINA RESULT:      -7.8      3.424      7.126
REMARK  8 active torsions:
REMARK  status: ('A' for Active; 'I' for Inactive)
REMARK    1  A    between atoms: O1_1  and  C1_2 
REMARK    2  A    between atoms: C1_2  and  C2_3 
REMARK    3  A    between atoms: C3_4  and  C4_5 
REMARK    4  A    between atoms: C8_9  and  N1_10 
REMARK    5  A    between atoms: N1_10  and  C9_11 
REMARK    6  A    between atoms: C9_11  and  C10_12 
REMARK    7  A    between atoms: C10_12  and  C11_13 
REMARK    8  A    between atoms: C11_13  and  C12_14 
ROOT
HETATM    1  C4  UNL     1      26.548  -0.122  52.351  1.00  0.00     0.033 C 
HETATM    2  C5  UNL     1      25.268   0.053  52.640  1.00  0.00     0.060 A 
HETATM    3  C6  UNL     1      24.425   1.207  52.231  1.00  0.00     0.110 A 
HETATM    4  C7  UNL     1      23.124   0.834  52.841  1.00  0.00     0.028 A 
HETATM    5  C8  UNL     1      21.927   1.514  52.812  1.00  0.00     0.040 A 
HETATM    6  C17 UNL     1      20.830   0.968  53.460  1.00  0.00     0.049 A 
HETATM    7  C18 UNL     1      20.926  -0.242  54.127  1.00  0.00     0.122 A 
HETATM    8  N2  UNL     1      22.117  -0.883  54.134  1.00  0.00    -0.236 NA
HETATM    9  C19 UNL     1      23.201  -0.370  53.511  1.00  0.00     0.178 A 
HETATM   10  O2  UNL     1      24.517  -0.852  53.390  1.00  0.00    -0.295 OA
ENDROOT
BRANCH   5  11
HETATM   11  N1  UNL     1      21.824   2.756  52.128  1.00  0.00    -0.389 N 
HETATM   12  H9  UNL     1      22.072   3.633  52.599  1.00  0.00     0.159 HD
BRANCH  11  13
HETATM   13  C9  UNL     1      21.369   2.822  50.747  1.00  0.00     0.120 C 
BRANCH  13  14
HETATM   14  C10 UNL     1      22.415   3.457  49.860  1.00  0.00     0.024 C 
BRANCH  14  15
HETATM   15  C11 UNL     1      23.345   4.356  50.646  1.00  0.00     0.041 C 
BRANCH  15  16
HETATM   16  C12 UNL     1      24.688   4.438  50.043  1.00  0.00    -0.055 A 
HETATM   17  C13 UNL     1      25.591   3.490  49.840  1.00  0.00     0.007 A 
HETATM   18  C14 UNL     1      26.849   3.817  49.224  1.00  0.00    -0.003 A 
HETATM   19  C15 UNL     1      27.199   5.006  48.831  1.00  0.00    -0.022 A 
HETATM   20  C16 UNL     1      26.581   6.352  48.830  1.00  0.00     0.063 A 
HETATM   21  P1  UNL     1      24.898   6.202  49.598  1.00  0.00    -0.096 P 
HETATM   22  H21 UNL     1      24.819   7.058  50.763  1.00  0.00     0.062 HD
ENDBRANCH  15  16
ENDBRANCH  14  15
ENDBRANCH  13  14
ENDBRANCH  11  13
ENDBRANCH   5  11
BRANCH   1  23
HETATM   23  C3  UNL     1      27.322  -1.285  52.786  1.00  0.00     0.001 C 
HETATM   24  C2  UNL     1      28.605  -1.200  53.087  1.00  0.00    -0.001 C 
BRANCH  24  25
HETATM   25  C1  UNL     1      29.392  -2.371  53.527  1.00  0.00     0.191 C 
BRANCH  25  26
HETATM   26  O1  UNL     1      28.626  -3.517  53.417  1.00  0.00    -0.397 OA
HETATM   27  H1  UNL     1      29.049  -4.121  52.783  1.00  0.00     0.209 HD
ENDBRANCH  25  26
ENDBRANCH  24  25
ENDBRANCH   1  23
TORSDOF 8
ENDMDL
MODEL 4
REMARK VINA RESULT:      -7.6      3.208      6.653
REMARK  8 active torsions:
REMARK  status: ('A' for Active; 'I' for Inactive)
REMARK    1  A    between atoms: O1_1  and  C1_2 
REMARK    2  A    between atoms: C1_2  and  C2_3 
REMARK    3  A    between atoms: C3_4  and  C4_5 
REMARK    4  A    between atoms: C8_9  and  N1_10 
REMARK    5  A    between atoms: N1_10  and  C9_11 
REMARK    6  A    between atoms: C9_11  and  C10_12 
REMARK    7  A    between atoms: C10_12  and  C11_13 
REMARK    8  A    between atoms: C11_13  and  C12_14 
ROOT
HETATM    1  C4  UNL     1      26.478   0.566  52.569  1.00  0.00     0.033 C 
HETATM    2  C5  UNL     1      25.215   0.360  52.909  1.00  0.00     0.060 A 
HETATM    3  C6  UNL     1      24.034   1.098  52.386  1.00  0.00     0.110 A 
HETATM    4  C7  UNL     1      22.935   0.427  53.126  1.00  0.00     0.028 A 
HETATM    5  C8  UNL     1      21.581   0.669  53.072  1.00  0.00     0.040 A 
HETATM    6  C17 UNL     1      20.732  -0.090  53.862  1.00  0.00     0.049 A 
HETATM    7  C18 UNL     1      21.229  -1.079  54.695  1.00  0.00     0.122 A 
HETATM    8  N2  UNL     1      22.565  -1.289  54.723  1.00  0.00    -0.236 NA
HETATM    9  C19 UNL     1      23.413  -0.561  53.962  1.00  0.00     0.178 A 
HETATM   10  O2  UNL     1      24.812  -0.605  53.832  1.00  0.00    -0.295 OA
ENDROOT
BRANCH   5  11
HETATM   11  N1  UNL     1      21.067   1.682  52.217  1.00  0.00    -0.389 N 
HETATM   12  H9  UNL     1      20.979   2.649  52.549  1.00  0.00     0.159 HD
BRANCH  11  13
HETATM   13  C9  UNL     1      20.655   1.384  50.854  1.00  0.00     0.120 C 
BRANCH  13  14
HETATM   14  C10 UNL     1      21.524   2.107  49.852  1.00  0.00     0.024 C 
BRANCH  14  15
HETATM   15  C11 UNL     1      21.795   3.535  50.274  1.00  0.00     0.041 C 
BRANCH  15  16
HETATM   16  C12 UNL     1      23.190   3.940  50.021  1.00  0.00    -0.055 A 
HETATM   17  C13 UNL     1      24.191   3.258  49.484  1.00  0.00     0.007 A 
HETATM   18  C14 UNL     1      25.483   3.874  49.339  1.00  0.00    -0.003 A 
HETATM   19  C15 UNL     1      25.773   5.089  49.700  1.00  0.00    -0.022 A 
HETATM   20  C16 UNL     1      25.044   6.218  50.322  1.00  0.00     0.063 A 
HETATM   21  P1  UNL     1      23.297   5.666  50.624  1.00  0.00    -0.096 P 
HETATM   22  H21 UNL     1      22.998   5.755  52.038  1.00  0.00     0.062 HD
ENDBRANCH  15  16
ENDBRANCH  14  15
ENDBRANCH  13  14
ENDBRANCH  11  13
ENDBRANCH   5  11
BRANCH   1  23
HETATM   23  C3  UNL     1      27.597  -0.198  53.123  1.00  0.00     0.001 C 
HETATM   24  C2  UNL     1      27.856  -1.436  52.744  1.00  0.00    -0.001 C 
BRANCH  24  25
HETATM   25  C1  UNL     1      28.984  -2.212  53.299  1.00  0.00     0.191 C 
BRANCH  25  26
HETATM   26  O1  UNL     1      28.634  -3.546  53.389  1.00  0.00    -0.397 OA
HETATM   27  H1  UNL     1      29.149  -4.054  52.739  1.00  0.00     0.209 HD
ENDBRANCH  25  26
ENDBRANCH  24  25
ENDBRANCH   1  23
TORSDOF 8
ENDMDL
MODEL 5
REMARK VINA RESULT:      -7.5      2.671      5.373
REMARK  8 active torsions:
REMARK  status: ('A' for Active; 'I' for Inactive)
REMARK    1  A    between atoms: O1_1  and  C1_2 
REMARK    2  A    between atoms: C1_2  and  C2_3 
REMARK    3  A    between atoms: C3_4  and  C4_5 
REMARK    4  A    between atoms: C8_9  and  N1_10 
REMARK    5  A    between atoms: N1_10  and  C9_11 
REMARK    6  A    between atoms: C9_11  and  C10_12 
REMARK    7  A    between atoms: C10_12  and  C11_13 
REMARK    8  A    between atoms: C11_13  and  C12_14 
ROOT
HETATM    1  C4  UNL     1      26.374   0.596  53.419  1.00  0.00     0.033 C 
HETATM    2  C5  UNL     1      26.169   1.549  52.523  1.00  0.00     0.060 A 
HETATM    3  C6  UNL     1      24.930   2.355  52.367  1.00  0.00     0.110 A 
HETATM    4  C7  UNL     1      25.306   3.230  51.228  1.00  0.00     0.028 A 
HETATM    5  C8  UNL     1      24.565   4.209  50.606  1.00  0.00     0.040 A 
HETATM    6  C17 UNL     1      25.128   4.906  49.548  1.00  0.00     0.049 A 
HETATM    7  C18 UNL     1      26.415   4.629  49.117  1.00  0.00     0.122 A 
HETATM    8  N2  UNL     1      27.114   3.660  49.751  1.00  0.00    -0.236 NA
HETATM    9  C19 UNL     1      26.586   2.966  50.784  1.00  0.00     0.178 A 
HETATM   10  O2  UNL     1      27.119   1.935  51.577  1.00  0.00    -0.295 OA
ENDROOT
BRANCH   5  11
HETATM   11  N1  UNL     1      23.245   4.497  51.046  1.00  0.00    -0.389 N 
HETATM   12  H9  UNL     1      23.081   5.180  51.795  1.00  0.00     0.159 HD
BRANCH  11  13
HETATM   13  C9  UNL     1      22.090   3.838  50.454  1.00  0.00     0.120 C 
BRANCH  13  14
HETATM   14  C10 UNL     1      21.468   2.858  51.422  1.00  0.00     0.024 C 
BRANCH  14  15
HETATM   15  C11 UNL     1      21.603   1.431  50.936  1.00  0.00     0.041 C 
BRANCH  15  16
HETATM   16  C12 UNL     1      21.515   0.453  52.037  1.00  0.00    -0.055 A 
HETATM   17  C13 UNL     1      22.477  -0.164  52.707  1.00  0.00     0.007 A 
HETATM   18  C14 UNL     1      22.141  -1.091  53.755  1.00  0.00    -0.003 A 
HETATM   19  C15 UNL     1      20.930  -1.391  54.122  1.00  0.00    -0.022 A 
HETATM   20  C16 UNL     1      19.564  -0.995  53.712  1.00  0.00     0.063 A 
HETATM   21  P1  UNL     1      19.721   0.231  52.328  1.00  0.00    -0.096 P 
HETATM   22  H21 UNL     1      19.050  -0.279  51.150  1.00  0.00     0.062 HD
ENDBRANCH  15  16
ENDBRANCH  14  15
ENDBRANCH  13  14
ENDBRANCH  11  13
ENDBRANCH   5  11
BRANCH   1  23
HETATM   23  C3  UNL     1      27.622  -0.162  53.520  1.00  0.00     0.001 C 
HETATM   24  C2  UNL     1      27.737  -1.389  53.046  1.00  0.00    -0.001 C 
BRANCH  24  25
HETATM   25  C1  UNL     1      28.994  -2.159  53.144  1.00  0.00     0.191 C 
BRANCH  25  26
HETATM   26  O1  UNL     1      28.710  -3.485  53.414  1.00  0.00    -0.397 OA
HETATM   27  H1  UNL     1      27.917  -3.747  52.917  1.00  0.00     0.209 HD
ENDBRANCH  25  26
ENDBRANCH  24  25
ENDBRANCH   1  23
TORSDOF 8
ENDMDL
MODEL 6
REMARK VINA RESULT:      -7.5      2.882      5.817
REMARK  8 active torsions:
REMARK  status: ('A' for Active; 'I' for Inactive)
REMARK    1  A    between atoms: O1_1  and  C1_2 
REMARK    2  A    between atoms: C1_2  and  C2_3 
REMARK    3  A    between atoms: C3_4  and  C4_5 
REMARK    4  A    between atoms: C8_9  and  N1_10 
REMARK    5  A    between atoms: N1_10  and  C9_11 
REMARK    6  A    between atoms: C9_11  and  C10_12 
REMARK    7  A    between atoms: C10_12  and  C11_13 
REMARK    8  A    between atoms: C11_13  and  C12_14 
ROOT
HETATM    1  C4  UNL     1      26.086   1.185  52.035  1.00  0.00     0.033 C 
HETATM    2  C5  UNL     1      24.912   0.741  52.456  1.00  0.00     0.060 A 
HETATM    3  C6  UNL     1      23.590   1.045  51.849  1.00  0.00     0.110 A 
HETATM    4  C7  UNL     1      22.687   0.277  52.743  1.00  0.00     0.028 A 
HETATM    5  C8  UNL     1      21.317   0.158  52.697  1.00  0.00     0.040 A 
HETATM    6  C17 UNL     1      20.678  -0.622  53.648  1.00  0.00     0.049 A 
HETATM    7  C18 UNL     1      21.400  -1.276  54.634  1.00  0.00     0.122 A 
HETATM    8  N2  UNL     1      22.745  -1.137  54.649  1.00  0.00    -0.236 NA
HETATM    9  C19 UNL     1      23.390  -0.381  53.732  1.00  0.00     0.178 A 
HETATM   10  O2  UNL     1      24.756  -0.098  53.559  1.00  0.00    -0.295 OA
ENDROOT
BRANCH   5  11
HETATM   11  N1  UNL     1      20.574   0.827  51.687  1.00  0.00    -0.389 N 
HETATM   12  H9  UNL     1      20.647   0.536  50.705  1.00  0.00     0.159 HD
BRANCH  11  13
HETATM   13  C9  UNL     1      19.690   1.937  52.009  1.00  0.00     0.120 C 
BRANCH  13  14
HETATM   14  C10 UNL     1      20.477   3.148  52.453  1.00  0.00     0.024 C 
BRANCH  14  15
HETATM   15  C11 UNL     1      20.627   4.159  51.336  1.00  0.00     0.041 C 
BRANCH  15  16
HETATM   16  C12 UNL     1      21.868   3.962  50.564  1.00  0.00    -0.055 A 
HETATM   17  C13 UNL     1      22.072   3.303  49.433  1.00  0.00     0.007 A 
HETATM   18  C14 UNL     1      23.392   3.249  48.862  1.00  0.00    -0.003 A 
HETATM   19  C15 UNL     1      24.447   3.811  49.373  1.00  0.00    -0.022 A 
HETATM   20  C16 UNL     1      24.744   4.628  50.572  1.00  0.00     0.063 A 
HETATM   21  P1  UNL     1      23.159   4.849  51.512  1.00  0.00    -0.096 P 
HETATM   22  H21 UNL     1      23.307   4.304  52.846  1.00  0.00     0.062 HD
ENDBRANCH  15  16
ENDBRANCH  14  15
ENDBRANCH  13  14
ENDBRANCH  11  13
ENDBRANCH   5  11
BRANCH   1  23
HETATM   23  C3  UNL     1      27.356   0.847  52.680  1.00  0.00     0.001 C 
HETATM   24  C2  UNL     1      27.908   1.625  53.592  1.00  0.00    -0.001 C 
BRANCH  24  25
HETATM   25  C1  UNL     1      29.189   1.289  54.247  1.00  0.00     0.191 C 
BRANCH  25  26
HETATM   26  O1  UNL     1      29.763   2.434  54.767  1.00  0.00    -0.397 OA
HETATM   27  H1  UNL     1      29.513   2.518  55.702  1.00  0.00     0.209 HD
ENDBRANCH  25  26
ENDBRANCH  24  25
ENDBRANCH   1  23
TORSDOF 8
ENDMDL
MODEL 7
REMARK VINA RESULT:      -7.4      3.375      8.089
REMARK  8 active torsions:
REMARK  status: ('A' for Active; 'I' for Inactive)
REMARK    1  A    between atoms: O1_1  and  C1_2 
REMARK    2  A    between atoms: C1_2  and  C2_3 
REMARK    3  A    between atoms: C3_4  and  C4_5 
REMARK    4  A    between atoms: C8_9  and  N1_10 
REMARK    5  A    between atoms: N1_10  and  C9_11 
REMARK    6  A    between atoms: C9_11  and  C10_12 
REMARK    7  A    between atoms: C10_12  and  C11_13 
REMARK    8  A    between atoms: C11_13  and  C12_14 
ROOT
HETATM    1  C4  UNL     1      20.782   0.622  52.184  1.00  0.00     0.033 C 
HETATM    2  C5  UNL     1      22.040   0.622  52.600  1.00  0.00     0.060 A 
HETATM    3  C6  UNL     1      23.088   1.606  52.223  1.00  0.00     0.110 A 
HETATM    4  C7  UNL     1      24.248   1.087  52.991  1.00  0.00     0.028 A 
HETATM    5  C8  UNL     1      25.533   1.577  53.056  1.00  0.00     0.040 A 
HETATM    6  C17 UNL     1      26.462   0.921  53.848  1.00  0.00     0.049 A 
HETATM    7  C18 UNL     1      26.112  -0.211  54.566  1.00  0.00     0.122 A 
HETATM    8  N2  UNL     1      24.841  -0.664  54.479  1.00  0.00    -0.236 NA
HETATM    9  C19 UNL     1      23.918  -0.041  53.713  1.00  0.00     0.178 A 
HETATM   10  O2  UNL     1      22.562  -0.330  53.475  1.00  0.00    -0.295 OA
ENDROOT
BRANCH   5  11
HETATM   11  N1  UNL     1      25.895   2.739  52.321  1.00  0.00    -0.389 N 
HETATM   12  H9  UNL     1      25.522   3.659  52.581  1.00  0.00     0.159 HD
BRANCH  11  13
HETATM   13  C9  UNL     1      26.802   2.662  51.185  1.00  0.00     0.120 C 
BRANCH  13  14
HETATM   14  C10 UNL     1      26.074   2.935  49.889  1.00  0.00     0.024 C 
BRANCH  14  15
HETATM   15  C11 UNL     1      25.500   4.334  49.854  1.00  0.00     0.041 C 
BRANCH  15  16
HETATM   16  C12 UNL     1      26.439   5.311  49.271  1.00  0.00    -0.055 A 
HETATM   17  C13 UNL     1      27.557   5.115  48.587  1.00  0.00     0.007 A 
HETATM   18  C14 UNL     1      28.315   6.243  48.114  1.00  0.00    -0.003 A 
HETATM   19  C15 UNL     1      27.992   7.488  48.301  1.00  0.00    -0.022 A 
HETATM   20  C16 UNL     1      26.889   8.213  48.971  1.00  0.00     0.063 A 
HETATM   21  P1  UNL     1      25.735   6.949  49.690  1.00  0.00    -0.096 P 
HETATM   22  H21 UNL     1      25.643   7.137  51.123  1.00  0.00     0.062 HD
ENDBRANCH  15  16
ENDBRANCH  14  15
ENDBRANCH  13  14
ENDBRANCH  11  13
ENDBRANCH   5  11
BRANCH   1  23
HETATM   23  C3  UNL     1      19.797  -0.379  52.596  1.00  0.00     0.001 C 
HETATM   24  C2  UNL     1      18.519  -0.276  52.280  1.00  0.00    -0.001 C 
BRANCH  24  25
HETATM   25  C1  UNL     1      17.519  -1.282  52.691  1.00  0.00     0.191 C 
BRANCH  25  26
HETATM   26  O1  UNL     1      17.431  -1.317  54.071  1.00  0.00    -0.397 OA
HETATM   27  H1  UNL     1      16.915  -0.551  54.375  1.00  0.00     0.209 HD
ENDBRANCH  25  26
ENDBRANCH  24  25
ENDBRANCH   1  23
TORSDOF 8
ENDMDL
MODEL 8
REMARK VINA RESULT:      -7.3      3.231      6.227
REMARK  8 active torsions:
REMARK  status: ('A' for Active; 'I' for Inactive)
REMARK    1  A    between atoms: O1_1  and  C1_2 
REMARK    2  A    between atoms: C1_2  and  C2_3 
REMARK    3  A    between atoms: C3_4  and  C4_5 
REMARK    4  A    between atoms: C8_9  and  N1_10 
REMARK    5  A    between atoms: N1_10  and  C9_11 
REMARK    6  A    between atoms: C9_11  and  C10_12 
REMARK    7  A    between atoms: C10_12  and  C11_13 
REMARK    8  A    between atoms: C11_13  and  C12_14 
ROOT
HETATM    1  C4  UNL     1      25.817  -0.210  53.154  1.00  0.00     0.033 C 
HETATM    2  C5  UNL     1      24.933   0.754  52.948  1.00  0.00     0.060 A 
HETATM    3  C6  UNL     1      23.527   0.574  52.500  1.00  0.00     0.110 A 
HETATM    4  C7  UNL     1      23.064   1.984  52.458  1.00  0.00     0.028 A 
HETATM    5  C8  UNL     1      21.827   2.479  52.110  1.00  0.00     0.040 A 
HETATM    6  C17 UNL     1      21.620   3.849  52.143  1.00  0.00     0.049 A 
HETATM    7  C18 UNL     1      22.635   4.714  52.520  1.00  0.00     0.122 A 
HETATM    8  N2  UNL     1      23.837   4.192  52.855  1.00  0.00    -0.236 NA
HETATM    9  C19 UNL     1      24.063   2.860  52.829  1.00  0.00     0.178 A 
HETATM   10  O2  UNL     1      25.213   2.108  53.131  1.00  0.00    -0.295 OA
ENDROOT
BRANCH   5  11
HETATM   11  N1  UNL     1      20.784   1.595  51.724  1.00  0.00    -0.389 N 
HETATM   12  H9  UNL     1      20.359   0.958  52.407  1.00  0.00     0.159 HD
BRANCH  11  13
HETATM   13  C9  UNL     1      20.286   1.565  50.357  1.00  0.00     0.120 C 
BRANCH  13  14
HETATM   14  C10 UNL     1      21.315   0.982  49.416  1.00  0.00     0.024 C 
BRANCH  14  15
HETATM   15  C11 UNL     1      21.596   1.909  48.252  1.00  0.00     0.041 C 
BRANCH  15  16
HETATM   16  C12 UNL     1      22.571   2.960  48.595  1.00  0.00    -0.055 A 
HETATM   17  C13 UNL     1      23.803   2.858  49.072  1.00  0.00     0.007 A 
HETATM   18  C14 UNL     1      24.573   4.045  49.333  1.00  0.00    -0.003 A 
HETATM   19  C15 UNL     1      24.156   5.260  49.135  1.00  0.00    -0.022 A 
HETATM   20  C16 UNL     1      22.913   5.892  48.637  1.00  0.00     0.063 A 
HETATM   21  P1  UNL     1      21.717   4.536  48.220  1.00  0.00    -0.096 P 
HETATM   22  H21 UNL     1      20.514   4.690  49.012  1.00  0.00     0.062 HD
ENDBRANCH  15  16
ENDBRANCH  14  15
ENDBRANCH  13  14
ENDBRANCH  11  13
ENDBRANCH   5  11
BRANCH   1  23
HETATM   23  C3  UNL     1      27.190   0.036  53.598  1.00  0.00     0.001 C 
HETATM   24  C2  UNL     1      28.161  -0.834  53.388  1.00  0.00    -0.001 C 
BRANCH  24  25
HETATM   25  C1  UNL     1      29.549  -0.592  53.832  1.00  0.00     0.191 C 
BRANCH  25  26
HETATM   26  O1  UNL     1      29.945   0.678  53.458  1.00  0.00    -0.397 OA
HETATM   27  H1  UNL     1      30.525   1.046  54.145  1.00  0.00     0.209 HD
ENDBRANCH  25  26
ENDBRANCH  24  25
ENDBRANCH   1  23
TORSDOF 8
ENDMDL
MODEL 9
REMARK VINA RESULT:      -7.3      3.180      5.902
REMARK  8 active torsions:
REMARK  status: ('A' for Active; 'I' for Inactive)
REMARK    1  A    between atoms: O1_1  and  C1_2 
REMARK    2  A    between atoms: C1_2  and  C2_3 
REMARK    3  A    between atoms: C3_4  and  C4_5 
REMARK    4  A    between atoms: C8_9  and  N1_10 
REMARK    5  A    between atoms: N1_10  and  C9_11 
REMARK    6  A    between atoms: C9_11  and  C10_12 
REMARK    7  A    between atoms: C10_12  and  C11_13 
REMARK    8  A    between atoms: C11_13  and  C12_14 
ROOT
HETATM    1  C4  UNL     1      27.640   4.720  48.653  1.00  0.00     0.033 C 
HETATM    2  C5  UNL     1      26.532   4.595  49.367  1.00  0.00     0.060 A 
HETATM    3  C6  UNL     1      25.907   3.318  49.801  1.00  0.00     0.110 A 
HETATM    4  C7  UNL     1      24.726   3.823  50.546  1.00  0.00     0.028 A 
HETATM    5  C8  UNL     1      23.742   3.112  51.195  1.00  0.00     0.040 A 
HETATM    6  C17 UNL     1      22.723   3.804  51.831  1.00  0.00     0.049 A 
HETATM    7  C18 UNL     1      22.686   5.189  51.818  1.00  0.00     0.122 A 
HETATM    8  N2  UNL     1      23.669   5.855  51.170  1.00  0.00    -0.236 NA
HETATM    9  C19 UNL     1      24.673   5.202  50.543  1.00  0.00     0.178 A 
HETATM   10  O2  UNL     1      25.781   5.680  49.820  1.00  0.00    -0.295 OA
ENDROOT
BRANCH   5  11
HETATM   11  N1  UNL     1      23.777   1.691  51.211  1.00  0.00    -0.389 N 
HETATM   12  H9  UNL     1      23.854   1.161  50.335  1.00  0.00     0.159 HD
BRANCH  11  13
HETATM   13  C9  UNL     1      23.705   0.947  52.459  1.00  0.00     0.120 C 
BRANCH  13  14
HETATM   14  C10 UNL     1      25.002   0.222  52.736  1.00  0.00     0.024 C 
BRANCH  14  15
HETATM   15  C11 UNL     1      26.088   1.173  53.189  1.00  0.00     0.041 C 
BRANCH  15  16
HETATM   16  C12 UNL     1      27.401   0.511  53.304  1.00  0.00    -0.055 A 
HETATM   17  C13 UNL     1      28.587   1.018  53.607  1.00  0.00     0.007 A 
HETATM   18  C14 UNL     1      29.742   0.161  53.658  1.00  0.00    -0.003 A 
HETATM   19  C15 UNL     1      29.730  -1.119  53.426  1.00  0.00    -0.022 A 
HETATM   20  C16 UNL     1      28.707  -2.126  53.062  1.00  0.00     0.063 A 
HETATM   21  P1  UNL     1      27.075  -1.251  52.927  1.00  0.00    -0.096 P 
HETATM   22  H21 UNL     1      26.544  -1.420  51.590  1.00  0.00     0.062 HD
ENDBRANCH  15  16
ENDBRANCH  14  15
ENDBRANCH  13  14
ENDBRANCH  11  13
ENDBRANCH   5  11
BRANCH   1  23
HETATM   23  C3  UNL     1      28.204   6.012  48.258  1.00  0.00     0.001 C 
HETATM   24  C2  UNL     1      29.506   6.232  48.240  1.00  0.00    -0.001 C 
BRANCH  24  25
HETATM   25  C1  UNL     1      30.081   7.533  47.842  1.00  0.00     0.191 C 
BRANCH  25  26
HETATM   26  O1  UNL     1      30.115   8.382  48.932  1.00  0.00    -0.397 OA
HETATM   27  H1  UNL     1      30.924   8.919  48.891  1.00  0.00     0.209 HD
ENDBRANCH  25  26
ENDBRANCH  24  25
ENDBRANCH   1  23
TORSDOF 8
ENDMDL
