MODEL 1
REMARK VINA RESULT:      -8.1      0.000      0.000
REMARK  6 active torsions:
REMARK  status: ('A' for Active; 'I' for Inactive)
REMARK    1  A    between atoms: C2_2  and  C3_4 
REMARK    2  A    between atoms: C4_6  and  C5_7 
REMARK    3  A    between atoms: C9_14  and  C10_15 
REMARK    4  A    between atoms: C10_15  and  C11_16 
REMARK    5  A    between atoms: C11_16  and  N3_17 
REMARK    6  A    between atoms: C14_20  and  N4_21 
ROOT
HETATM    1  C5  UNL     1      24.582   0.326  52.975  1.00  0.00     0.054 C 
HETATM    2  C6  UNL     1      23.529  -0.209  53.560  1.00  0.00     0.134 A 
HETATM    3  N1  UNL     1      23.834  -0.912  54.764  1.00  0.00    -0.224 NA
HETATM    4  C7  UNL     1      22.846  -1.482  55.410  1.00  0.00     0.239 A 
HETATM    5  N2  UNL     1      21.509  -1.405  54.929  1.00  0.00    -0.201 NA
HETATM    6  C8  UNL     1      21.239  -0.766  53.840  1.00  0.00     0.256 A 
HETATM    7  O1  UNL     1      19.865  -0.909  53.700  1.00  0.00    -0.282 OA
HETATM    8  C9  UNL     1      18.928  -0.595  52.733  1.00  0.00     0.058 C 
HETATM    9  C12 UNL     1      18.960   0.165  51.651  1.00  0.00     0.035 C 
HETATM   10  C13 UNL     1      19.879   1.011  50.928  1.00  0.00     0.028 C 
HETATM   11  C14 UNL     1      21.180   1.091  51.130  1.00  0.00     0.021 C 
HETATM   12  C15 UNL     1      22.392   0.685  51.842  1.00  0.00     0.190 C 
HETATM   13  N5  UNL     1      22.219  -0.091  53.024  1.00  0.00    -0.290 N 
ENDROOT
BRANCH   1  14
HETATM   14  C4  UNL     1      25.916   0.173  53.560  1.00  0.00     0.048 C 
HETATM   15  C3  UNL     1      27.010  -0.383  53.017  1.00  0.00     0.137 C 
HETATM   16  F1  UNL     1      26.737  -0.824  51.782  1.00  0.00    -0.204 F 
BRANCH  15  17
HETATM   17  C2  UNL     1      28.273  -0.455  53.740  1.00  0.00     0.063 C 
HETATM   18  C1  UNL     1      28.338   0.429  54.706  1.00  0.00     0.040 C 
HETATM   19 CL1  UNL     1      29.447  -1.650  53.227  1.00  0.00    -0.082 Cl
ENDBRANCH  15  17
ENDBRANCH   1  14
BRANCH  11  20
HETATM   20  N4  UNL     1      21.626   2.066  50.161  1.00  0.00    -0.401 N 
HETATM   21  H14 UNL     1      21.861   2.823  49.462  1.00  0.00     0.156 HD
HETATM   22  H15 UNL     1      22.055   2.695  49.471  1.00  0.00     0.156 HD
ENDBRANCH  11  20
BRANCH   8  23
HETATM   23  C10 UNL     1      17.641  -1.285  53.028  1.00  0.00     0.084 C 
BRANCH  23  24
HETATM   24  C11 UNL     1      17.875  -2.618  53.710  1.00  0.00     0.117 C 
BRANCH  24  25
HETATM   25  N3  UNL     1      16.723  -3.479  53.637  1.00  0.00    -0.430 N 
HETATM   26  H10 UNL     1      16.760  -4.218  52.928  1.00  0.00     0.149 HD
HETATM   27  H11 UNL     1      15.820  -2.960  53.707  1.00  0.00     0.149 HD
ENDBRANCH  24  25
ENDBRANCH  23  24
ENDBRANCH   8  23
TORSDOF 6
ENDMDL
MODEL 2
REMARK VINA RESULT:      -7.8      3.642      7.377
REMARK  6 active torsions:
REMARK  status: ('A' for Active; 'I' for Inactive)
REMARK    1  A    between atoms: C2_2  and  C3_4 
REMARK    2  A    between atoms: C4_6  and  C5_7 
REMARK    3  A    between atoms: C9_14  and  C10_15 
REMARK    4  A    between atoms: C10_15  and  C11_16 
REMARK    5  A    between atoms: C11_16  and  N3_17 
REMARK    6  A    between atoms: C14_20  and  N4_21 
ROOT
HETATM    1  C5  UNL     1      21.963   0.612  52.803  1.00  0.00     0.054 C 
HETATM    2  C6  UNL     1      22.930   0.050  53.499  1.00  0.00     0.134 A 
HETATM    3  N1  UNL     1      22.474  -0.929  54.432  1.00  0.00    -0.224 NA
HETATM    4  C7  UNL     1      23.369  -1.535  55.174  1.00  0.00     0.239 A 
HETATM    5  N2  UNL     1      24.753  -1.229  55.056  1.00  0.00    -0.201 NA
HETATM    6  C8  UNL     1      25.161  -0.343  54.210  1.00  0.00     0.256 A 
HETATM    7  O1  UNL     1      26.538  -0.323  54.382  1.00  0.00    -0.282 OA
HETATM    8  C9  UNL     1      27.586   0.445  53.909  1.00  0.00     0.058 C 
HETATM    9  C12 UNL     1      27.695   1.329  52.932  1.00  0.00     0.035 C 
HETATM   10  C13 UNL     1      26.883   1.941  51.907  1.00  0.00     0.028 C 
HETATM   11  C14 UNL     1      25.569   1.867  51.813  1.00  0.00     0.021 C 
HETATM   12  C15 UNL     1      24.275   1.397  52.308  1.00  0.00     0.190 C 
HETATM   13  N5  UNL     1      24.295   0.404  53.329  1.00  0.00    -0.290 N 
ENDROOT
BRANCH   1  14
HETATM   14  C4  UNL     1      20.567   0.221  53.017  1.00  0.00     0.048 C 
HETATM   15  C3  UNL     1      19.620  -0.038  52.103  1.00  0.00     0.137 C 
HETATM   16  F1  UNL     1      20.119   0.110  50.869  1.00  0.00    -0.204 F 
BRANCH  15  17
HETATM   17  C2  UNL     1      18.268  -0.419  52.486  1.00  0.00     0.063 C 
HETATM   18  C1  UNL     1      17.362   0.335  51.909  1.00  0.00     0.040 C 
HETATM   19 CL1  UNL     1      18.074  -1.753  53.604  1.00  0.00    -0.082 Cl
ENDBRANCH  15  17
ENDBRANCH   1  14
BRANCH  11  20
HETATM   20  N4  UNL     1      25.258   2.638  50.631  1.00  0.00    -0.401 N 
HETATM   21  H14 UNL     1      24.938   3.165  49.773  1.00  0.00     0.156 HD
HETATM   22  H15 UNL     1      25.160   3.228  49.796  1.00  0.00     0.156 HD
ENDBRANCH  11  20
BRANCH   8  23
HETATM   23  C10 UNL     1      28.815   0.174  54.705  1.00  0.00     0.084 C 
BRANCH  23  24
HETATM   24  C11 UNL     1      29.759  -0.752  53.964  1.00  0.00     0.117 C 
BRANCH  24  25
HETATM   25  N3  UNL     1      29.103  -1.947  53.504  1.00  0.00    -0.430 N 
HETATM   26  H10 UNL     1      28.098  -2.011  53.698  1.00  0.00     0.149 HD
HETATM   27  H11 UNL     1      29.656  -2.814  53.687  1.00  0.00     0.149 HD
ENDBRANCH  24  25
ENDBRANCH  23  24
ENDBRANCH   8  23
TORSDOF 6
ENDMDL
MODEL 3
REMARK VINA RESULT:      -7.5      3.682      5.828
REMARK  6 active torsions:
REMARK  status: ('A' for Active; 'I' for Inactive)
REMARK    1  A    between atoms: C2_2  and  C3_4 
REMARK    2  A    between atoms: C4_6  and  C5_7 
REMARK    3  A    between atoms: C9_14  and  C10_15 
REMARK    4  A    between atoms: C10_15  and  C11_16 
REMARK    5  A    between atoms: C11_16  and  N3_17 
REMARK    6  A    between atoms: C14_20  and  N4_21 
ROOT
HETATM    1  C5  UNL     1      25.631   0.597  52.452  1.00  0.00     0.054 C 
HETATM    2  C6  UNL     1      25.521   1.743  51.812  1.00  0.00     0.134 A 
HETATM    3  N1  UNL     1      26.728   2.169  51.182  1.00  0.00    -0.224 NA
HETATM    4  C7  UNL     1      26.711   3.305  50.527  1.00  0.00     0.239 A 
HETATM    5  N2  UNL     1      25.528   4.091  50.445  1.00  0.00    -0.201 NA
HETATM    6  C8  UNL     1      24.438   3.700  51.016  1.00  0.00     0.256 A 
HETATM    7  O1  UNL     1      23.526   4.704  50.722  1.00  0.00    -0.282 OA
HETATM    8  C9  UNL     1      22.229   5.007  51.093  1.00  0.00     0.058 C 
HETATM    9  C12 UNL     1      21.280   4.325  51.713  1.00  0.00     0.035 C 
HETATM   10  C13 UNL     1      21.063   3.023  52.297  1.00  0.00     0.028 C 
HETATM   11  C14 UNL     1      21.993   2.119  52.539  1.00  0.00     0.021 C 
HETATM   12  C15 UNL     1      23.389   1.681  52.516  1.00  0.00     0.190 C 
HETATM   13  N5  UNL     1      24.305   2.476  51.770  1.00  0.00    -0.290 N 
ENDROOT
BRANCH   1  14
HETATM   14  C4  UNL     1      26.907  -0.123  52.476  1.00  0.00     0.048 C 
HETATM   15  C3  UNL     1      27.684  -0.417  53.529  1.00  0.00     0.137 C 
HETATM   16  F1  UNL     1      27.131   0.055  54.654  1.00  0.00    -0.204 F 
BRANCH  15  17
HETATM   17  C2  UNL     1      28.935  -1.147  53.380  1.00  0.00     0.063 C 
HETATM   18  C1  UNL     1      29.979  -0.356  53.457  1.00  0.00     0.040 C 
HETATM   19 CL1  UNL     1      28.852  -2.879  53.131  1.00  0.00    -0.082 Cl
ENDBRANCH  15  17
ENDBRANCH   1  14
BRANCH  11  20
HETATM   20  N4  UNL     1      21.265   1.013  53.117  1.00  0.00    -0.401 N 
HETATM   21  H14 UNL     1      20.653   0.233  53.483  1.00  0.00     0.156 HD
HETATM   22  H15 UNL     1      20.855   0.201  53.594  1.00  0.00     0.156 HD
ENDBRANCH  11  20
BRANCH   8  23
HETATM   23  C10 UNL     1      21.893   6.398  50.682  1.00  0.00     0.084 C 
BRANCH  23  24
HETATM   24  C11 UNL     1      23.142   7.189  50.345  1.00  0.00     0.117 C 
BRANCH  24  25
HETATM   25  N3  UNL     1      23.924   7.498  51.513  1.00  0.00    -0.430 N 
HETATM   26  H10 UNL     1      23.490   7.277  52.416  1.00  0.00     0.149 HD
HETATM   27  H11 UNL     1      24.402   8.425  51.453  1.00  0.00     0.149 HD
ENDBRANCH  24  25
ENDBRANCH  23  24
ENDBRANCH   8  23
TORSDOF 6
ENDMDL
MODEL 4
REMARK VINA RESULT:      -7.5      4.663      8.055
REMARK  6 active torsions:
REMARK  status: ('A' for Active; 'I' for Inactive)
REMARK    1  A    between atoms: C2_2  and  C3_4 
REMARK    2  A    between atoms: C4_6  and  C5_7 
REMARK    3  A    between atoms: C9_14  and  C10_15 
REMARK    4  A    between atoms: C10_15  and  C11_16 
REMARK    5  A    between atoms: C11_16  and  N3_17 
REMARK    6  A    between atoms: C14_20  and  N4_21 
ROOT
HETATM    1  C5  UNL     1      23.168   2.654  50.087  1.00  0.00     0.054 C 
HETATM    2  C6  UNL     1      24.416   2.628  50.509  1.00  0.00     0.134 A 
HETATM    3  N1  UNL     1      25.281   3.517  49.805  1.00  0.00    -0.224 NA
HETATM    4  C7  UNL     1      26.544   3.551  50.154  1.00  0.00     0.239 A 
HETATM    5  N2  UNL     1      27.041   2.728  51.203  1.00  0.00    -0.201 NA
HETATM    6  C8  UNL     1      26.253   1.926  51.838  1.00  0.00     0.256 A 
HETATM    7  O1  UNL     1      27.081   1.308  52.765  1.00  0.00    -0.282 OA
HETATM    8  C9  UNL     1      26.952   0.277  53.678  1.00  0.00     0.058 C 
HETATM    9  C12 UNL     1      25.913  -0.376  54.169  1.00  0.00     0.035 C 
HETATM   10  C13 UNL     1      24.474  -0.398  54.056  1.00  0.00     0.028 C 
HETATM   11  C14 UNL     1      23.759   0.228  53.140  1.00  0.00     0.021 C 
HETATM   12  C15 UNL     1      23.662   1.091  51.963  1.00  0.00     0.190 C 
HETATM   13  N5  UNL     1      24.843   1.780  51.565  1.00  0.00    -0.290 N 
ENDROOT
BRANCH   1  14
HETATM   14  C4  UNL     1      22.772   3.540  48.989  1.00  0.00     0.048 C 
HETATM   15  C3  UNL     1      22.415   3.214  47.737  1.00  0.00     0.137 C 
HETATM   16  F1  UNL     1      22.461   1.885  47.577  1.00  0.00    -0.204 F 
BRANCH  15  17
HETATM   17  C2  UNL     1      22.045   4.225  46.757  1.00  0.00     0.063 C 
HETATM   18  C1  UNL     1      21.854   3.710  45.566  1.00  0.00     0.040 C 
HETATM   19 CL1  UNL     1      21.924   5.888  47.296  1.00  0.00    -0.082 Cl
ENDBRANCH  15  17
ENDBRANCH   1  14
BRANCH  11  20
HETATM   20  N4  UNL     1      22.394  -0.113  53.467  1.00  0.00    -0.401 N 
HETATM   21  H14 UNL     1      21.375  -0.264  53.703  1.00  0.00     0.156 HD
HETATM   22  H15 UNL     1      21.463  -0.480  53.699  1.00  0.00     0.156 HD
ENDBRANCH  11  20
BRANCH   8  23
HETATM   23  C10 UNL     1      28.296  -0.136  54.172  1.00  0.00     0.084 C 
BRANCH  23  24
HETATM   24  C11 UNL     1      29.375   0.812  53.689  1.00  0.00     0.117 C 
BRANCH  24  25
HETATM   25  N3  UNL     1      29.394   2.044  54.433  1.00  0.00    -0.430 N 
HETATM   26  H10 UNL     1      29.953   2.804  54.030  1.00  0.00     0.149 HD
HETATM   27  H11 UNL     1      29.499   1.899  55.462  1.00  0.00     0.149 HD
ENDBRANCH  24  25
ENDBRANCH  23  24
ENDBRANCH   8  23
TORSDOF 6
ENDMDL
MODEL 5
REMARK VINA RESULT:      -7.2      2.090      3.832
REMARK  6 active torsions:
REMARK  status: ('A' for Active; 'I' for Inactive)
REMARK    1  A    between atoms: C2_2  and  C3_4 
REMARK    2  A    between atoms: C4_6  and  C5_7 
REMARK    3  A    between atoms: C9_14  and  C10_15 
REMARK    4  A    between atoms: C10_15  and  C11_16 
REMARK    5  A    between atoms: C11_16  and  N3_17 
REMARK    6  A    between atoms: C14_20  and  N4_21 
ROOT
HETATM    1  C5  UNL     1      25.258   0.098  53.294  1.00  0.00     0.054 C 
HETATM    2  C6  UNL     1      24.504   0.828  52.498  1.00  0.00     0.134 A 
HETATM    3  N1  UNL     1      25.241   1.726  51.670  1.00  0.00    -0.224 NA
HETATM    4  C7  UNL     1      24.569   2.497  50.849  1.00  0.00     0.239 A 
HETATM    5  N2  UNL     1      23.149   2.443  50.783  1.00  0.00    -0.201 NA
HETATM    6  C8  UNL     1      22.487   1.628  51.534  1.00  0.00     0.256 A 
HETATM    7  O1  UNL     1      21.161   1.859  51.194  1.00  0.00    -0.282 OA
HETATM    8  C9  UNL     1      19.929   1.442  51.662  1.00  0.00     0.058 C 
HETATM    9  C12 UNL     1      19.549   0.484  52.490  1.00  0.00     0.035 C 
HETATM   10  C13 UNL     1      20.126  -0.566  53.295  1.00  0.00     0.028 C 
HETATM   11  C14 UNL     1      21.409  -0.718  53.567  1.00  0.00     0.021 C 
HETATM   12  C15 UNL     1      22.802  -0.286  53.450  1.00  0.00     0.190 C 
HETATM   13  N5  UNL     1      23.088   0.721  52.483  1.00  0.00    -0.290 N 
ENDROOT
BRANCH   1  14
HETATM   14  C4  UNL     1      26.716   0.247  53.281  1.00  0.00     0.048 C 
HETATM   15  C3  UNL     1      27.566   0.258  54.319  1.00  0.00     0.137 C 
HETATM   16  F1  UNL     1      26.893   0.109  55.467  1.00  0.00    -0.204 F 
BRANCH  15  17
HETATM   17  C2  UNL     1      29.002   0.416  54.133  1.00  0.00     0.063 C 
HETATM   18  C1  UNL     1      29.396   1.645  54.364  1.00  0.00     0.040 C 
HETATM   19 CL1  UNL     1      29.928  -0.990  53.650  1.00  0.00    -0.082 Cl
ENDBRANCH  15  17
ENDBRANCH   1  14
BRANCH  11  20
HETATM   20  N4  UNL     1      21.454  -1.901  54.396  1.00  0.00    -0.401 N 
HETATM   21  H14 UNL     1      21.572  -2.729  55.042  1.00  0.00     0.156 HD
HETATM   22  H15 UNL     1      21.376  -2.777  54.927  1.00  0.00     0.156 HD
ENDBRANCH  11  20
BRANCH   8  23
HETATM   23  C10 UNL     1      18.850   2.287  51.078  1.00  0.00     0.084 C 
BRANCH  23  24
HETATM   24  C11 UNL     1      19.280   2.893  49.756  1.00  0.00     0.117 C 
BRANCH  24  25
HETATM   25  N3  UNL     1      19.427   1.901  48.723  1.00  0.00    -0.430 N 
HETATM   26  H10 UNL     1      18.567   1.424  48.433  1.00  0.00     0.149 HD
HETATM   27  H11 UNL     1      20.262   1.290  48.859  1.00  0.00     0.149 HD
ENDBRANCH  24  25
ENDBRANCH  23  24
ENDBRANCH   8  23
TORSDOF 6
ENDMDL
MODEL 6
REMARK VINA RESULT:      -7.2      4.457      5.578
REMARK  6 active torsions:
REMARK  status: ('A' for Active; 'I' for Inactive)
REMARK    1  A    between atoms: C2_2  and  C3_4 
REMARK    2  A    between atoms: C4_6  and  C5_7 
REMARK    3  A    between atoms: C9_14  and  C10_15 
REMARK    4  A    between atoms: C10_15  and  C11_16 
REMARK    5  A    between atoms: C11_16  and  N3_17 
REMARK    6  A    between atoms: C14_20  and  N4_21 
ROOT
HETATM    1  C5  UNL     1      25.170   3.378  49.858  1.00  0.00     0.054 C 
HETATM    2  C6  UNL     1      25.306   2.602  50.914  1.00  0.00     0.134 A 
HETATM    3  N1  UNL     1      26.605   2.651  51.501  1.00  0.00    -0.224 NA
HETATM    4  C7  UNL     1      26.832   1.903  52.554  1.00  0.00     0.239 A 
HETATM    5  N2  UNL     1      25.817   1.067  53.098  1.00  0.00    -0.201 NA
HETATM    6  C8  UNL     1      24.642   1.028  52.563  1.00  0.00     0.256 A 
HETATM    7  O1  UNL     1      23.945   0.123  53.352  1.00  0.00    -0.282 OA
HETATM    8  C9  UNL     1      22.703  -0.484  53.305  1.00  0.00     0.058 C 
HETATM    9  C12 UNL     1      21.612  -0.264  52.591  1.00  0.00     0.035 C 
HETATM   10  C13 UNL     1      21.130   0.631  51.565  1.00  0.00     0.028 C 
HETATM   11  C14 UNL     1      21.867   1.470  50.861  1.00  0.00     0.021 C 
HETATM   12  C15 UNL     1      23.160   2.067  50.526  1.00  0.00     0.190 C 
HETATM   13  N5  UNL     1      24.247   1.792  51.404  1.00  0.00    -0.290 N 
ENDROOT
BRANCH   1  14
HETATM   14  C4  UNL     1      26.292   4.191  49.383  1.00  0.00     0.048 C 
HETATM   15  C3  UNL     1      26.268   5.422  48.849  1.00  0.00     0.137 C 
HETATM   16  F1  UNL     1      25.007   5.872  48.787  1.00  0.00    -0.204 F 
BRANCH  15  17
HETATM   17  C2  UNL     1      27.485   6.098  48.424  1.00  0.00     0.063 C 
HETATM   18  C1  UNL     1      27.288   7.376  48.204  1.00  0.00     0.040 C 
HETATM   19 CL1  UNL     1      28.947   5.144  48.277  1.00  0.00    -0.082 Cl
ENDBRANCH  15  17
ENDBRANCH   1  14
BRANCH  11  20
HETATM   20  N4  UNL     1      20.918   2.119  49.986  1.00  0.00    -0.401 N 
HETATM   21  H14 UNL     1      20.173   2.506  49.344  1.00  0.00     0.156 HD
HETATM   22  H15 UNL     1      20.316   2.686  49.376  1.00  0.00     0.156 HD
ENDBRANCH  11  20
BRANCH   8  23
HETATM   23  C10 UNL     1      22.649  -1.607  54.281  1.00  0.00     0.084 C 
BRANCH  23  24
HETATM   24  C11 UNL     1      23.259  -1.212  55.611  1.00  0.00     0.117 C 
BRANCH  24  25
HETATM   25  N3  UNL     1      24.660  -1.532  55.686  1.00  0.00    -0.430 N 
HETATM   26  H10 UNL     1      24.977  -2.306  55.091  1.00  0.00     0.149 HD
HETATM   27  H11 UNL     1      25.029  -1.531  56.663  1.00  0.00     0.149 HD
ENDBRANCH  24  25
ENDBRANCH  23  24
ENDBRANCH   8  23
TORSDOF 6
ENDMDL
MODEL 7
REMARK VINA RESULT:      -7.1      4.611      5.906
REMARK  6 active torsions:
REMARK  status: ('A' for Active; 'I' for Inactive)
REMARK    1  A    between atoms: C2_2  and  C3_4 
REMARK    2  A    between atoms: C4_6  and  C5_7 
REMARK    3  A    between atoms: C9_14  and  C10_15 
REMARK    4  A    between atoms: C10_15  and  C11_16 
REMARK    5  A    between atoms: C11_16  and  N3_17 
REMARK    6  A    between atoms: C14_20  and  N4_21 
ROOT
HETATM    1  C5  UNL     1      25.589   3.659  50.613  1.00  0.00     0.054 C 
HETATM    2  C6  UNL     1      24.436   3.313  51.149  1.00  0.00     0.134 A 
HETATM    3  N1  UNL     1      23.376   4.228  50.873  1.00  0.00    -0.224 NA
HETATM    4  C7  UNL     1      22.192   3.966  51.373  1.00  0.00     0.239 A 
HETATM    5  N2  UNL     1      21.967   2.807  52.167  1.00  0.00    -0.201 NA
HETATM    6  C8  UNL     1      22.930   1.983  52.413  1.00  0.00     0.256 A 
HETATM    7  O1  UNL     1      22.339   1.002  53.199  1.00  0.00    -0.282 OA
HETATM    8  C9  UNL     1      22.780  -0.101  53.907  1.00  0.00     0.058 C 
HETATM    9  C12 UNL     1      23.920  -0.770  53.928  1.00  0.00     0.035 C 
HETATM   10  C13 UNL     1      25.220  -0.748  53.301  1.00  0.00     0.028 C 
HETATM   11  C14 UNL     1      25.706   0.230  52.559  1.00  0.00     0.021 C 
HETATM   12  C15 UNL     1      25.577   1.546  51.933  1.00  0.00     0.190 C 
HETATM   13  N5  UNL     1      24.282   2.139  51.932  1.00  0.00    -0.290 N 
ENDROOT
BRANCH   1  14
HETATM   14  C4  UNL     1      25.703   4.884  49.818  1.00  0.00     0.048 C 
HETATM   15  C3  UNL     1      26.653   5.222  48.933  1.00  0.00     0.137 C 
HETATM   16  F1  UNL     1      27.565   4.246  48.841  1.00  0.00    -0.204 F 
BRANCH  15  17
HETATM   17  C2  UNL     1      26.619   6.491  48.219  1.00  0.00     0.063 C 
HETATM   18  C1  UNL     1      27.823   6.933  47.942  1.00  0.00     0.040 C 
HETATM   19 CL1  UNL     1      25.054   7.193  47.863  1.00  0.00    -0.082 Cl
ENDBRANCH  15  17
ENDBRANCH   1  14
BRANCH  11  20
HETATM   20  N4  UNL     1      27.020  -0.237  52.182  1.00  0.00    -0.401 N 
HETATM   21  H14 UNL     1      27.955  -0.668  51.944  1.00  0.00     0.156 HD
HETATM   22  H15 UNL     1      27.974  -0.450  51.866  1.00  0.00     0.156 HD
ENDBRANCH  11  20
BRANCH   8  23
HETATM   23  C10 UNL     1      21.703  -0.586  54.814  1.00  0.00     0.084 C 
BRANCH  23  24
HETATM   24  C11 UNL     1      20.643  -1.355  54.049  1.00  0.00     0.117 C 
BRANCH  24  25
HETATM   25  N3  UNL     1      19.535  -0.521  53.663  1.00  0.00    -0.430 N 
HETATM   26  H10 UNL     1      18.641  -0.722  54.123  1.00  0.00     0.149 HD
HETATM   27  H11 UNL     1      19.489  -0.352  52.634  1.00  0.00     0.149 HD
ENDBRANCH  24  25
ENDBRANCH  23  24
ENDBRANCH   8  23
TORSDOF 6
ENDMDL
MODEL 8
REMARK VINA RESULT:      -7.1      2.665      3.543
REMARK  6 active torsions:
REMARK  status: ('A' for Active; 'I' for Inactive)
REMARK    1  A    between atoms: C2_2  and  C3_4 
REMARK    2  A    between atoms: C4_6  and  C5_7 
REMARK    3  A    between atoms: C9_14  and  C10_15 
REMARK    4  A    between atoms: C10_15  and  C11_16 
REMARK    5  A    between atoms: C11_16  and  N3_17 
REMARK    6  A    between atoms: C14_20  and  N4_21 
ROOT
HETATM    1  C5  UNL     1      26.053   1.032  52.077  1.00  0.00     0.054 C 
HETATM    2  C6  UNL     1      24.781   0.902  52.394  1.00  0.00     0.134 A 
HETATM    3  N1  UNL     1      24.464  -0.349  53.002  1.00  0.00    -0.224 NA
HETATM    4  C7  UNL     1      23.217  -0.567  53.345  1.00  0.00     0.239 A 
HETATM    5  N2  UNL     1      22.208   0.410  53.119  1.00  0.00    -0.201 NA
HETATM    6  C8  UNL     1      22.501   1.541  52.568  1.00  0.00     0.256 A 
HETATM    7  O1  UNL     1      21.287   2.212  52.516  1.00  0.00    -0.282 OA
HETATM    8  C9  UNL     1      20.830   3.396  51.965  1.00  0.00     0.058 C 
HETATM    9  C12 UNL     1      21.438   4.453  51.454  1.00  0.00     0.035 C 
HETATM   10  C13 UNL     1      22.774   4.938  51.201  1.00  0.00     0.028 C 
HETATM   11  C14 UNL     1      23.884   4.229  51.279  1.00  0.00     0.021 C 
HETATM   12  C15 UNL     1      24.581   2.969  51.538  1.00  0.00     0.190 C 
HETATM   13  N5  UNL     1      23.826   1.922  52.139  1.00  0.00    -0.290 N 
ENDROOT
BRANCH   1  14
HETATM   14  C4  UNL     1      27.003  -0.049  52.351  1.00  0.00     0.048 C 
HETATM   15  C3  UNL     1      28.038  -0.058  53.204  1.00  0.00     0.137 C 
HETATM   16  F1  UNL     1      28.126   1.121  53.833  1.00  0.00    -0.204 F 
BRANCH  15  17
HETATM   17  C2  UNL     1      28.893  -1.227  53.360  1.00  0.00     0.063 C 
HETATM   18  C1  UNL     1      30.080  -0.910  53.823  1.00  0.00     0.040 C 
HETATM   19 CL1  UNL     1      28.237  -2.791  52.923  1.00  0.00    -0.082 Cl
ENDBRANCH  15  17
ENDBRANCH   1  14
BRANCH  11  20
HETATM   20  N4  UNL     1      24.926   5.169  50.936  1.00  0.00    -0.401 N 
HETATM   21  H14 UNL     1      25.723   5.786  50.620  1.00  0.00     0.156 HD
HETATM   22  H15 UNL     1      25.610   5.918  50.775  1.00  0.00     0.156 HD
ENDBRANCH  11  20
BRANCH   8  23
HETATM   23  C10 UNL     1      19.341   3.422  51.979  1.00  0.00     0.084 C 
BRANCH  23  24
HETATM   24  C11 UNL     1      18.763   2.064  51.634  1.00  0.00     0.117 C 
BRANCH  24  25
HETATM   25  N3  UNL     1      19.300   1.538  50.407  1.00  0.00    -0.430 N 
HETATM   26  H10 UNL     1      20.022   2.106  49.952  1.00  0.00     0.149 HD
HETATM   27  H11 UNL     1      18.568   1.144  49.775  1.00  0.00     0.149 HD
ENDBRANCH  24  25
ENDBRANCH  23  24
ENDBRANCH   8  23
TORSDOF 6
ENDMDL
MODEL 9
REMARK VINA RESULT:      -6.9      3.930      5.128
REMARK  6 active torsions:
REMARK  status: ('A' for Active; 'I' for Inactive)
REMARK    1  A    between atoms: C2_2  and  C3_4 
REMARK    2  A    between atoms: C4_6  and  C5_7 
REMARK    3  A    between atoms: C9_14  and  C10_15 
REMARK    4  A    between atoms: C10_15  and  C11_16 
REMARK    5  A    between atoms: C11_16  and  N3_17 
REMARK    6  A    between atoms: C14_20  and  N4_21 
ROOT
HETATM    1  C5  UNL     1      24.969   3.230  50.939  1.00  0.00     0.054 C 
HETATM    2  C6  UNL     1      23.688   2.986  50.751  1.00  0.00     0.134 A 
HETATM    3  N1  UNL     1      23.071   3.846  49.795  1.00  0.00    -0.224 NA
HETATM    4  C7  UNL     1      21.794   3.678  49.550  1.00  0.00     0.239 A 
HETATM    5  N2  UNL     1      21.042   2.670  50.216  1.00  0.00    -0.201 NA
HETATM    6  C8  UNL     1      21.606   1.894  51.080  1.00  0.00     0.256 A 
HETATM    7  O1  UNL     1      20.578   1.062  51.504  1.00  0.00    -0.282 OA
HETATM    8  C9  UNL     1      20.424   0.091  52.477  1.00  0.00     0.058 C 
HETATM    9  C12 UNL     1      21.276  -0.570  53.242  1.00  0.00     0.035 C 
HETATM   10  C13 UNL     1      22.696  -0.660  53.484  1.00  0.00     0.028 C 
HETATM   11  C14 UNL     1      23.613   0.177  53.035  1.00  0.00     0.021 C 
HETATM   12  C15 UNL     1      23.996   1.369  52.279  1.00  0.00     0.190 C 
HETATM   13  N5  UNL     1      22.999   1.960  51.452  1.00  0.00    -0.290 N 
ENDROOT
BRANCH   1  14
HETATM   14  C4  UNL     1      25.638   4.304  50.200  1.00  0.00     0.048 C 
HETATM   15  C3  UNL     1      26.619   4.210  49.290  1.00  0.00     0.137 C 
HETATM   16  F1  UNL     1      26.958   2.926  49.111  1.00  0.00    -0.204 F 
BRANCH  15  17
HETATM   17  C2  UNL     1      27.179   5.386  48.641  1.00  0.00     0.063 C 
HETATM   18  C1  UNL     1      28.459   5.246  48.386  1.00  0.00     0.040 C 
HETATM   19 CL1  UNL     1      26.110   6.737  48.321  1.00  0.00    -0.082 Cl
ENDBRANCH  15  17
ENDBRANCH   1  14
BRANCH  11  20
HETATM   20  N4  UNL     1      24.853  -0.353  53.552  1.00  0.00    -0.401 N 
HETATM   21  H14 UNL     1      25.712  -0.759  54.016  1.00  0.00     0.156 HD
HETATM   22  H15 UNL     1      25.786  -0.703  53.803  1.00  0.00     0.156 HD
ENDBRANCH  11  20
BRANCH   8  23
HETATM   23  C10 UNL     1      18.980  -0.229  52.651  1.00  0.00     0.084 C 
BRANCH  23  24
HETATM   24  C11 UNL     1      18.791  -1.504  53.450  1.00  0.00     0.117 C 
BRANCH  24  25
HETATM   25  N3  UNL     1      17.424  -1.697  53.856  1.00  0.00    -0.430 N 
HETATM   26  H10 UNL     1      17.272  -2.369  54.616  1.00  0.00     0.149 HD
HETATM   27  H11 UNL     1      16.764  -1.765  53.051  1.00  0.00     0.149 HD
ENDBRANCH  24  25
ENDBRANCH  23  24
ENDBRANCH   8  23
TORSDOF 6
ENDMDL
