MODEL 1
REMARK VINA RESULT:      -8.4      0.000      0.000
REMARK  5 active torsions:
REMARK  status: ('A' for Active; 'I' for Inactive)
REMARK    1  A    between atoms: C2_2  and  C3_3 
REMARK    2  A    between atoms: C4_4  and  C5_5 
REMARK    3  A    between atoms: C7_8  and  C8_9 
REMARK    4  A    between atoms: C11_13  and  N3_14 
REMARK    5  A    between atoms: N3_14  and  C12_15 
ROOT
HETATM    1  C12 UNL     1      27.102  -0.404  52.955  1.00  0.00     0.166 A 
HETATM    2  C13 UNL     1      27.029  -1.864  52.584  1.00  0.00     0.061 A 
HETATM    3  C14 UNL     1      28.308  -2.551  52.875  1.00  0.00    -0.005 A 
HETATM    4  C15 UNL     1      29.467  -2.164  53.379  1.00  0.00     0.114 A 
HETATM    5  N4  UNL     1      29.483  -0.765  53.715  1.00  0.00    -0.253 NA
HETATM    6  C16 UNL     1      28.411  -0.040  53.506  1.00  0.00     0.137 A 
HETATM    7  C17 UNL     1      28.561   1.354  53.889  1.00  0.00     0.117 C 
HETATM    8  N5  UNL     1      28.692   2.484  54.185  1.00  0.00    -0.190 NA
ENDROOT
BRANCH   1   9
HETATM    9  N3  UNL     1      26.007  -0.028  53.837  1.00  0.00    -0.211 N 
HETATM   10  H11 UNL     1      26.166   0.080  54.856  1.00  0.00     0.178 HD
BRANCH   9  11
HETATM   11  C11 UNL     1      24.739   0.178  53.230  1.00  0.00     0.723 A 
HETATM   12  N2  UNL     1      23.698  -0.575  53.634  1.00  0.00    -0.075 NA
HETATM   13  C10 UNL     1      22.464  -0.409  53.077  1.00  0.00     0.139 A 
HETATM   14  C9  UNL     1      22.400   0.573  52.095  1.00  0.00     0.054 A 
HETATM   15  C8  UNL     1      23.467   1.335  51.689  1.00  0.00     0.106 A 
HETATM   16  N6  UNL     1      24.648   1.125  52.274  1.00  0.00    -0.061 NA
BRANCH  15  17
HETATM   17  C7  UNL     1      23.328   2.357  50.645  1.00  0.00     0.089 A 
HETATM   18  C5  UNL     1      24.223   3.160  49.888  1.00  0.00     0.003 A 
HETATM   19  C6  UNL     1      23.112   3.775  49.192  1.00  0.00     0.191 A 
HETATM   20  N1  UNL     1      22.334   2.895  50.035  1.00  0.00    -0.282 NA
BRANCH  18  21
HETATM   21  C4  UNL     1      25.541   3.294  49.838  1.00  0.00    -0.019 C 
HETATM   22  C3  UNL     1      26.716   3.797  49.544  1.00  0.00    -0.014 C 
BRANCH  22  23
HETATM   23  C2  UNL     1      26.950   5.028  48.762  1.00  0.00     0.023 C 
HETATM   24  C1  UNL     1      28.448   5.127  48.444  1.00  0.00     0.009 C 
ENDBRANCH  22  23
ENDBRANCH  18  21
ENDBRANCH  15  17
ENDBRANCH   9  11
ENDBRANCH   1   9
TORSDOF 5
ENDMDL
MODEL 2
REMARK VINA RESULT:      -8.2      2.374      4.162
REMARK  5 active torsions:
REMARK  status: ('A' for Active; 'I' for Inactive)
REMARK    1  A    between atoms: C2_2  and  C3_3 
REMARK    2  A    between atoms: C4_4  and  C5_5 
REMARK    3  A    between atoms: C7_8  and  C8_9 
REMARK    4  A    between atoms: C11_13  and  N3_14 
REMARK    5  A    between atoms: N3_14  and  C12_15 
ROOT
HETATM    1  C12 UNL     1      27.147  -0.302  52.947  1.00  0.00     0.166 A 
HETATM    2  C13 UNL     1      26.948  -1.743  52.547  1.00  0.00     0.061 A 
HETATM    3  C14 UNL     1      28.162  -2.543  52.827  1.00  0.00    -0.005 A 
HETATM    4  C15 UNL     1      29.349  -2.267  53.338  1.00  0.00     0.114 A 
HETATM    5  N4  UNL     1      29.485  -0.882  53.702  1.00  0.00    -0.253 NA
HETATM    6  C16 UNL     1      28.481  -0.064  53.506  1.00  0.00     0.137 A 
HETATM    7  C17 UNL     1      28.750   1.305  53.915  1.00  0.00     0.117 C 
HETATM    8  N5  UNL     1      28.977   2.413  54.233  1.00  0.00    -0.190 NA
ENDROOT
BRANCH   1   9
HETATM    9  N3  UNL     1      26.086   0.151  53.835  1.00  0.00    -0.211 N 
HETATM   10  H11 UNL     1      25.988  -0.254  54.785  1.00  0.00     0.178 HD
BRANCH   9  11
HETATM   11  C11 UNL     1      25.217   1.156  53.333  1.00  0.00     0.723 A 
HETATM   12  N2  UNL     1      25.363   2.419  53.776  1.00  0.00    -0.075 NA
HETATM   13  C10 UNL     1      24.549   3.414  53.319  1.00  0.00     0.139 A 
HETATM   14  C9  UNL     1      23.599   3.003  52.390  1.00  0.00     0.054 A 
HETATM   15  C8  UNL     1      23.458   1.713  51.944  1.00  0.00     0.106 A 
HETATM   16  N6  UNL     1      24.285   0.785  52.431  1.00  0.00    -0.061 NA
BRANCH  15  17
HETATM   17  C7  UNL     1      22.431   1.348  50.961  1.00  0.00     0.089 A 
HETATM   18  C5  UNL     1      21.157   0.722  51.012  1.00  0.00     0.003 A 
HETATM   19  C6  UNL     1      21.017   0.850  49.575  1.00  0.00     0.191 A 
HETATM   20  N1  UNL     1      22.319   1.467  49.687  1.00  0.00    -0.282 NA
BRANCH  18  21
HETATM   21  C4  UNL     1      20.401   0.221  51.979  1.00  0.00    -0.019 C 
HETATM   22  C3  UNL     1      20.010  -0.114  53.185  1.00  0.00    -0.014 C 
BRANCH  22  23
HETATM   23  C2  UNL     1      20.752   0.155  54.433  1.00  0.00     0.023 C 
HETATM   24  C1  UNL     1      21.891  -0.866  54.554  1.00  0.00     0.009 C 
ENDBRANCH  22  23
ENDBRANCH  18  21
ENDBRANCH  15  17
ENDBRANCH   9  11
ENDBRANCH   1   9
TORSDOF 5
ENDMDL
MODEL 3
REMARK VINA RESULT:      -8.1      2.363      3.783
REMARK  5 active torsions:
REMARK  status: ('A' for Active; 'I' for Inactive)
REMARK    1  A    between atoms: C2_2  and  C3_3 
REMARK    2  A    between atoms: C4_4  and  C5_5 
REMARK    3  A    between atoms: C7_8  and  C8_9 
REMARK    4  A    between atoms: C11_13  and  N3_14 
REMARK    5  A    between atoms: N3_14  and  C12_15 
ROOT
HETATM    1  C12 UNL     1      27.177  -0.416  53.064  1.00  0.00     0.166 A 
HETATM    2  C13 UNL     1      27.050  -1.860  52.649  1.00  0.00     0.061 A 
HETATM    3  C14 UNL     1      28.324  -2.586  52.859  1.00  0.00    -0.005 A 
HETATM    4  C15 UNL     1      29.514  -2.243  53.320  1.00  0.00     0.114 A 
HETATM    5  N4  UNL     1      29.580  -0.857  53.701  1.00  0.00    -0.253 NA
HETATM    6  C16 UNL     1      28.518  -0.101  53.565  1.00  0.00     0.137 A 
HETATM    7  C17 UNL     1      28.720   1.276  53.986  1.00  0.00     0.117 C 
HETATM    8  N5  UNL     1      28.892   2.392  54.312  1.00  0.00    -0.190 NA
ENDROOT
BRANCH   1   9
HETATM    9  N3  UNL     1      26.133  -0.043  54.008  1.00  0.00    -0.211 N 
HETATM   10  H11 UNL     1      26.195  -0.334  55.001  1.00  0.00     0.178 HD
BRANCH   9  11
HETATM   11  C11 UNL     1      25.051   0.723  53.496  1.00  0.00     0.723 A 
HETATM   12  N2  UNL     1      25.307   1.944  52.988  1.00  0.00    -0.075 NA
HETATM   13  C10 UNL     1      24.297   2.712  52.486  1.00  0.00     0.139 A 
HETATM   14  C9  UNL     1      23.038   2.126  52.552  1.00  0.00     0.054 A 
HETATM   15  C8  UNL     1      22.787   0.881  53.071  1.00  0.00     0.106 A 
HETATM   16  N6  UNL     1      23.818   0.179  53.547  1.00  0.00    -0.061 NA
BRANCH  15  17
HETATM   17  C7  UNL     1      21.430   0.322  53.109  1.00  0.00     0.089 A 
HETATM   18  C5  UNL     1      20.315   0.312  52.229  1.00  0.00     0.003 A 
HETATM   19  C6  UNL     1      19.547  -0.463  53.183  1.00  0.00     0.191 A 
HETATM   20  N1  UNL     1      20.761  -0.365  53.963  1.00  0.00    -0.282 NA
BRANCH  18  21
HETATM   21  C4  UNL     1      20.072   0.811  51.025  1.00  0.00    -0.019 C 
HETATM   22  C3  UNL     1      20.268   1.161  49.777  1.00  0.00    -0.014 C 
BRANCH  22  23
HETATM   23  C2  UNL     1      21.512   0.948  49.011  1.00  0.00     0.023 C 
HETATM   24  C1  UNL     1      22.250   2.288  48.895  1.00  0.00     0.009 C 
ENDBRANCH  22  23
ENDBRANCH  18  21
ENDBRANCH  15  17
ENDBRANCH   9  11
ENDBRANCH   1   9
TORSDOF 5
ENDMDL
MODEL 4
REMARK VINA RESULT:      -8.0      1.392      2.828
REMARK  5 active torsions:
REMARK  status: ('A' for Active; 'I' for Inactive)
REMARK    1  A    between atoms: C2_2  and  C3_3 
REMARK    2  A    between atoms: C4_4  and  C5_5 
REMARK    3  A    between atoms: C7_8  and  C8_9 
REMARK    4  A    between atoms: C11_13  and  N3_14 
REMARK    5  A    between atoms: N3_14  and  C12_15 
ROOT
HETATM    1  C12 UNL     1      27.170  -0.472  52.944  1.00  0.00     0.166 A 
HETATM    2  C13 UNL     1      27.143  -1.945  52.619  1.00  0.00     0.061 A 
HETATM    3  C14 UNL     1      28.443  -2.580  52.930  1.00  0.00    -0.005 A 
HETATM    4  C15 UNL     1      29.590  -2.140  53.418  1.00  0.00     0.114 A 
HETATM    5  N4  UNL     1      29.561  -0.732  53.710  1.00  0.00    -0.253 NA
HETATM    6  C16 UNL     1      28.467  -0.049  53.480  1.00  0.00     0.137 A 
HETATM    7  C17 UNL     1      28.572   1.361  53.818  1.00  0.00     0.117 C 
HETATM    8  N5  UNL     1      28.667   2.503  54.078  1.00  0.00    -0.190 NA
ENDROOT
BRANCH   1   9
HETATM    9  N3  UNL     1      26.063  -0.103  53.815  1.00  0.00    -0.211 N 
HETATM   10  H11 UNL     1      26.118  -0.279  54.836  1.00  0.00     0.178 HD
BRANCH   9  11
HETATM   11  C11 UNL     1      24.935   0.499  53.196  1.00  0.00     0.723 A 
HETATM   12  N2  UNL     1      23.704   0.080  53.546  1.00  0.00    -0.075 NA
HETATM   13  C10 UNL     1      22.595   0.631  52.976  1.00  0.00     0.139 A 
HETATM   14  C9  UNL     1      22.859   1.624  52.040  1.00  0.00     0.054 A 
HETATM   15  C8  UNL     1      24.117   2.045  51.689  1.00  0.00     0.106 A 
HETATM   16  N6  UNL     1      25.162   1.466  52.283  1.00  0.00    -0.061 NA
BRANCH  15  17
HETATM   17  C7  UNL     1      24.324   3.101  50.691  1.00  0.00     0.089 A 
HETATM   18  C5  UNL     1      23.860   3.353  49.372  1.00  0.00     0.003 A 
HETATM   19  C6  UNL     1      24.626   4.582  49.318  1.00  0.00     0.191 A 
HETATM   20  N1  UNL     1      25.007   4.188  50.656  1.00  0.00    -0.282 NA
BRANCH  18  21
HETATM   21  C4  UNL     1      23.055   2.720  48.530  1.00  0.00    -0.019 C 
HETATM   22  C3  UNL     1      22.150   1.879  48.091  1.00  0.00    -0.014 C 
BRANCH  22  23
HETATM   23  C2  UNL     1      21.413   0.903  48.919  1.00  0.00     0.023 C 
HETATM   24  C1  UNL     1      20.127   1.567  49.427  1.00  0.00     0.009 C 
ENDBRANCH  22  23
ENDBRANCH  18  21
ENDBRANCH  15  17
ENDBRANCH   9  11
ENDBRANCH   1   9
TORSDOF 5
ENDMDL
MODEL 5
REMARK VINA RESULT:      -8.0      1.973      6.019
REMARK  5 active torsions:
REMARK  status: ('A' for Active; 'I' for Inactive)
REMARK    1  A    between atoms: C2_2  and  C3_3 
REMARK    2  A    between atoms: C4_4  and  C5_5 
REMARK    3  A    between atoms: C7_8  and  C8_9 
REMARK    4  A    between atoms: C11_13  and  N3_14 
REMARK    5  A    between atoms: N3_14  and  C12_15 
ROOT
HETATM    1  C12 UNL     1      25.542   3.367  50.673  1.00  0.00     0.166 A 
HETATM    2  C13 UNL     1      26.664   3.498  49.674  1.00  0.00     0.061 A 
HETATM    3  C14 UNL     1      26.626   4.817  49.003  1.00  0.00    -0.005 A 
HETATM    4  C15 UNL     1      25.837   5.873  49.093  1.00  0.00     0.114 A 
HETATM    5  N4  UNL     1      24.785   5.696  50.059  1.00  0.00    -0.253 NA
HETATM    6  C16 UNL     1      24.706   4.570  50.724  1.00  0.00     0.137 A 
HETATM    7  C17 UNL     1      23.599   4.522  51.666  1.00  0.00     0.117 C 
HETATM    8  N5  UNL     1      22.694   4.480  52.414  1.00  0.00    -0.190 NA
ENDROOT
BRANCH   1   9
HETATM    9  N3  UNL     1      26.044   2.986  51.985  1.00  0.00    -0.211 N 
HETATM   10  H11 UNL     1      26.484   3.692  52.604  1.00  0.00     0.178 HD
BRANCH   9  11
HETATM   11  C11 UNL     1      25.898   1.622  52.355  1.00  0.00     0.723 A 
HETATM   12  N2  UNL     1      26.932   0.783  52.157  1.00  0.00    -0.075 NA
HETATM   13  C10 UNL     1      26.833  -0.534  52.498  1.00  0.00     0.139 A 
HETATM   14  C9  UNL     1      25.607  -0.899  53.045  1.00  0.00     0.054 A 
HETATM   15  C8  UNL     1      24.559  -0.036  53.243  1.00  0.00     0.106 A 
HETATM   16  N6  UNL     1      24.719   1.241  52.888  1.00  0.00    -0.061 NA
BRANCH  15  17
HETATM   17  C7  UNL     1      23.291  -0.489  53.827  1.00  0.00     0.089 A 
HETATM   18  C5  UNL     1      21.915  -0.340  53.504  1.00  0.00     0.003 A 
HETATM   19  C6  UNL     1      21.539  -1.131  54.657  1.00  0.00     0.191 A 
HETATM   20  N1  UNL     1      22.970  -1.192  54.854  1.00  0.00    -0.282 NA
BRANCH  18  21
HETATM   21  C4  UNL     1      21.246   0.275  52.539  1.00  0.00    -0.019 C 
HETATM   22  C3  UNL     1      21.011   0.897  51.409  1.00  0.00    -0.014 C 
BRANCH  22  23
HETATM   23  C2  UNL     1      22.024   1.230  50.387  1.00  0.00     0.023 C 
HETATM   24  C1  UNL     1      21.425   0.962  49.000  1.00  0.00     0.009 C 
ENDBRANCH  22  23
ENDBRANCH  18  21
ENDBRANCH  15  17
ENDBRANCH   9  11
ENDBRANCH   1   9
TORSDOF 5
ENDMDL
MODEL 6
REMARK VINA RESULT:      -7.8      2.484      4.526
REMARK  5 active torsions:
REMARK  status: ('A' for Active; 'I' for Inactive)
REMARK    1  A    between atoms: C2_2  and  C3_3 
REMARK    2  A    between atoms: C4_4  and  C5_5 
REMARK    3  A    between atoms: C7_8  and  C8_9 
REMARK    4  A    between atoms: C11_13  and  N3_14 
REMARK    5  A    between atoms: N3_14  and  C12_15 
ROOT
HETATM    1  C12 UNL     1      26.917   1.624  53.001  1.00  0.00     0.166 A 
HETATM    2  C13 UNL     1      28.329   2.102  53.225  1.00  0.00     0.061 A 
HETATM    3  C14 UNL     1      29.018   1.266  54.235  1.00  0.00    -0.005 A 
HETATM    4  C15 UNL     1      28.665   0.219  54.959  1.00  0.00     0.114 A 
HETATM    5  N4  UNL     1      27.310  -0.195  54.707  1.00  0.00    -0.253 NA
HETATM    6  C16 UNL     1      26.588   0.463  53.834  1.00  0.00     0.137 A 
HETATM    7  C17 UNL     1      25.240  -0.058  53.675  1.00  0.00     0.117 C 
HETATM    8  N5  UNL     1      24.146  -0.472  53.561  1.00  0.00    -0.190 NA
ENDROOT
BRANCH   1   9
HETATM    9  N3  UNL     1      26.658   1.383  51.589  1.00  0.00    -0.211 N 
HETATM   10  H11 UNL     1      26.850   0.454  51.171  1.00  0.00     0.178 HD
BRANCH   9  11
HETATM   11  C11 UNL     1      26.139   2.472  50.839  1.00  0.00     0.723 A 
HETATM   12  N2  UNL     1      24.806   2.657  50.803  1.00  0.00    -0.075 NA
HETATM   13  C10 UNL     1      24.267   3.691  50.095  1.00  0.00     0.139 A 
HETATM   14  C9  UNL     1      25.198   4.494  49.445  1.00  0.00     0.054 A 
HETATM   15  C8  UNL     1      26.556   4.298  49.488  1.00  0.00     0.106 A 
HETATM   16  N6  UNL     1      27.021   3.268  50.198  1.00  0.00    -0.061 NA
BRANCH  15  17
HETATM   17  C7  UNL     1      27.483   5.187  48.777  1.00  0.00     0.089 A 
HETATM   18  C5  UNL     1      27.413   6.496  48.231  1.00  0.00     0.003 A 
HETATM   19  C6  UNL     1      28.790   6.406  47.791  1.00  0.00     0.191 A 
HETATM   20  N1  UNL     1      28.705   5.094  48.391  1.00  0.00    -0.282 NA
BRANCH  18  21
HETATM   21  C4  UNL     1      26.470   7.426  48.154  1.00  0.00    -0.019 C 
HETATM   22  C3  UNL     1      25.606   8.334  48.535  1.00  0.00    -0.014 C 
BRANCH  22  23
HETATM   23  C2  UNL     1      25.369   8.761  49.929  1.00  0.00     0.023 C 
HETATM   24  C1  UNL     1      24.187   7.961  50.491  1.00  0.00     0.009 C 
ENDBRANCH  22  23
ENDBRANCH  18  21
ENDBRANCH  15  17
ENDBRANCH   9  11
ENDBRANCH   1   9
TORSDOF 5
ENDMDL
MODEL 7
REMARK VINA RESULT:      -7.8      2.076      3.806
REMARK  5 active torsions:
REMARK  status: ('A' for Active; 'I' for Inactive)
REMARK    1  A    between atoms: C2_2  and  C3_3 
REMARK    2  A    between atoms: C4_4  and  C5_5 
REMARK    3  A    between atoms: C7_8  and  C8_9 
REMARK    4  A    between atoms: C11_13  and  N3_14 
REMARK    5  A    between atoms: N3_14  and  C12_15 
ROOT
HETATM    1  C12 UNL     1      27.089  -0.641  53.212  1.00  0.00     0.166 A 
HETATM    2  C13 UNL     1      27.197  -2.102  52.855  1.00  0.00     0.061 A 
HETATM    3  C14 UNL     1      28.595  -2.575  52.971  1.00  0.00    -0.005 A 
HETATM    4  C15 UNL     1      29.735  -2.002  53.313  1.00  0.00     0.114 A 
HETATM    5  N4  UNL     1      29.577  -0.611  53.644  1.00  0.00    -0.253 NA
HETATM    6  C16 UNL     1      28.386  -0.066  53.581  1.00  0.00     0.137 A 
HETATM    7  C17 UNL     1      28.366   1.343  53.939  1.00  0.00     0.117 C 
HETATM    8  N5  UNL     1      28.356   2.485  54.214  1.00  0.00    -0.190 NA
ENDROOT
BRANCH   1   9
HETATM    9  N3  UNL     1      26.076  -0.420  54.234  1.00  0.00    -0.211 N 
HETATM   10  H11 UNL     1      26.337  -0.405  55.237  1.00  0.00     0.178 HD
BRANCH   9  11
HETATM   11  C11 UNL     1      24.742  -0.231  53.782  1.00  0.00     0.723 A 
HETATM   12  N2  UNL     1      23.741  -0.834  54.449  1.00  0.00    -0.075 NA
HETATM   13  C10 UNL     1      22.446  -0.679  54.048  1.00  0.00     0.139 A 
HETATM   14  C9  UNL     1      22.281   0.130  52.929  1.00  0.00     0.054 A 
HETATM   15  C8  UNL     1      23.309   0.740  52.255  1.00  0.00     0.106 A 
HETATM   16  N6  UNL     1      24.553   0.549  52.697  1.00  0.00    -0.061 NA
BRANCH  15  17
HETATM   17  C7  UNL     1      23.062   1.583  51.078  1.00  0.00     0.089 A 
HETATM   18  C5  UNL     1      22.002   1.733  50.144  1.00  0.00     0.003 A 
HETATM   19  C6  UNL     1      22.740   2.765  49.445  1.00  0.00     0.191 A 
HETATM   20  N1  UNL     1      23.727   2.497  50.467  1.00  0.00    -0.282 NA
BRANCH  18  21
HETATM   21  C4  UNL     1      20.818   1.161  49.977  1.00  0.00    -0.019 C 
HETATM   22  C3  UNL     1      19.594   0.769  50.237  1.00  0.00    -0.014 C 
BRANCH  22  23
HETATM   23  C2  UNL     1      18.851   1.047  51.483  1.00  0.00     0.023 C 
HETATM   24  C1  UNL     1      18.609  -0.281  52.214  1.00  0.00     0.009 C 
ENDBRANCH  22  23
ENDBRANCH  18  21
ENDBRANCH  15  17
ENDBRANCH   9  11
ENDBRANCH   1   9
TORSDOF 5
ENDMDL
MODEL 8
REMARK VINA RESULT:      -7.8      2.478      6.625
REMARK  5 active torsions:
REMARK  status: ('A' for Active; 'I' for Inactive)
REMARK    1  A    between atoms: C2_2  and  C3_3 
REMARK    2  A    between atoms: C4_4  and  C5_5 
REMARK    3  A    between atoms: C7_8  and  C8_9 
REMARK    4  A    between atoms: C11_13  and  N3_14 
REMARK    5  A    between atoms: N3_14  and  C12_15 
ROOT
HETATM    1  C12 UNL     1      26.268   5.499  49.134  1.00  0.00     0.166 A 
HETATM    2  C13 UNL     1      27.482   4.735  48.668  1.00  0.00     0.061 A 
HETATM    3  C14 UNL     1      28.586   5.656  48.317  1.00  0.00    -0.005 A 
HETATM    4  C15 UNL     1      28.728   6.970  48.327  1.00  0.00     0.114 A 
HETATM    5  N4  UNL     1      27.543   7.649  48.779  1.00  0.00    -0.253 NA
HETATM    6  C16 UNL     1      26.490   6.948  49.121  1.00  0.00     0.137 A 
HETATM    7  C17 UNL     1      25.364   7.756  49.559  1.00  0.00     0.117 C 
HETATM    8  N5  UNL     1      24.450   8.414  49.896  1.00  0.00    -0.190 NA
ENDROOT
BRANCH   1   9
HETATM    9  N3  UNL     1      25.809   5.021  50.431  1.00  0.00    -0.211 N 
HETATM   10  H11 UNL     1      26.180   5.437  51.305  1.00  0.00     0.178 HD
BRANCH   9  11
HETATM   11  C11 UNL     1      24.844   3.978  50.422  1.00  0.00     0.723 A 
HETATM   12  N2  UNL     1      23.900   3.977  49.463  1.00  0.00    -0.075 NA
HETATM   13  C10 UNL     1      22.956   2.993  49.419  1.00  0.00     0.139 A 
HETATM   14  C9  UNL     1      23.069   2.038  50.423  1.00  0.00     0.054 A 
HETATM   15  C8  UNL     1      24.035   2.048  51.398  1.00  0.00     0.106 A 
HETATM   16  N6  UNL     1      24.930   3.038  51.386  1.00  0.00    -0.061 NA
BRANCH  15  17
HETATM   17  C7  UNL     1      24.096   1.006  52.430  1.00  0.00     0.089 A 
HETATM   18  C5  UNL     1      25.082   0.091  52.889  1.00  0.00     0.003 A 
HETATM   19  C6  UNL     1      24.158  -0.438  53.871  1.00  0.00     0.191 A 
HETATM   20  N1  UNL     1      23.268   0.544  53.296  1.00  0.00    -0.282 NA
BRANCH  18  21
HETATM   21  C4  UNL     1      26.338  -0.172  52.555  1.00  0.00    -0.019 C 
HETATM   22  C3  UNL     1      27.622  -0.400  52.684  1.00  0.00    -0.014 C 
BRANCH  22  23
HETATM   23  C2  UNL     1      28.363  -0.436  53.961  1.00  0.00     0.023 C 
HETATM   24  C1  UNL     1      29.761  -1.012  53.699  1.00  0.00     0.009 C 
ENDBRANCH  22  23
ENDBRANCH  18  21
ENDBRANCH  15  17
ENDBRANCH   9  11
ENDBRANCH   1   9
TORSDOF 5
ENDMDL
MODEL 9
REMARK VINA RESULT:      -7.7      2.472      6.965
REMARK  5 active torsions:
REMARK  status: ('A' for Active; 'I' for Inactive)
REMARK    1  A    between atoms: C2_2  and  C3_3 
REMARK    2  A    between atoms: C4_4  and  C5_5 
REMARK    3  A    between atoms: C7_8  and  C8_9 
REMARK    4  A    between atoms: C11_13  and  N3_14 
REMARK    5  A    between atoms: N3_14  and  C12_15 
ROOT
HETATM    1  C12 UNL     1      25.980   5.302  49.344  1.00  0.00     0.166 A 
HETATM    2  C13 UNL     1      27.162   4.459  48.937  1.00  0.00     0.061 A 
HETATM    3  C14 UNL     1      28.261   5.302  48.414  1.00  0.00    -0.005 A 
HETATM    4  C15 UNL     1      28.419   6.602  48.236  1.00  0.00     0.114 A 
HETATM    5  N4  UNL     1      27.264   7.359  48.639  1.00  0.00    -0.253 NA
HETATM    6  C16 UNL     1      26.219   6.731  49.120  1.00  0.00     0.137 A 
HETATM    7  C17 UNL     1      25.123   7.612  49.489  1.00  0.00     0.117 C 
HETATM    8  N5  UNL     1      24.233   8.327  49.771  1.00  0.00    -0.190 NA
ENDROOT
BRANCH   1   9
HETATM    9  N3  UNL     1      25.574   5.017  50.713  1.00  0.00    -0.211 N 
HETATM   10  H11 UNL     1      25.811   5.674  51.479  1.00  0.00     0.178 HD
BRANCH   9  11
HETATM   11  C11 UNL     1      24.850   3.813  50.927  1.00  0.00     0.723 A 
HETATM   12  N2  UNL     1      23.547   3.773  50.591  1.00  0.00    -0.075 NA
HETATM   13  C10 UNL     1      22.816   2.637  50.780  1.00  0.00     0.139 A 
HETATM   14  C9  UNL     1      23.528   1.576  51.331  1.00  0.00     0.054 A 
HETATM   15  C8  UNL     1      24.857   1.627  51.670  1.00  0.00     0.106 A 
HETATM   16  N6  UNL     1      25.516   2.768  51.460  1.00  0.00    -0.061 NA
BRANCH  15  17
HETATM   17  C7  UNL     1      25.547   0.468  52.248  1.00  0.00     0.089 A 
HETATM   18  C5  UNL     1      25.255  -0.481  53.265  1.00  0.00     0.003 A 
HETATM   19  C6  UNL     1      26.525  -1.141  53.037  1.00  0.00     0.191 A 
HETATM   20  N1  UNL     1      26.675  -0.108  52.038  1.00  0.00    -0.282 NA
BRANCH  18  21
HETATM   21  C4  UNL     1      24.237  -0.682  54.089  1.00  0.00    -0.019 C 
HETATM   22  C3  UNL     1      23.003  -0.837  54.503  1.00  0.00    -0.014 C 
BRANCH  22  23
HETATM   23  C2  UNL     1      21.800  -0.809  53.646  1.00  0.00     0.023 C 
HETATM   24  C1  UNL     1      20.845   0.266  54.180  1.00  0.00     0.009 C 
ENDBRANCH  22  23
ENDBRANCH  18  21
ENDBRANCH  15  17
ENDBRANCH   9  11
ENDBRANCH   1   9
TORSDOF 5
ENDMDL
