MODEL 1
REMARK VINA RESULT:      -9.2      0.000      0.000
REMARK  5 active torsions:
REMARK  status: ('A' for Active; 'I' for Inactive)
REMARK    1  A    between atoms: C2_2  and  C3_3 
REMARK    2  A    between atoms: C12_13  and  N2_14 
REMARK       I    between atoms: N2_14  and  C13_15 
REMARK    3  A    between atoms: C13_15  and  C14_17 
REMARK    4  A    between atoms: C22_25  and  N3_26 
REMARK    5  A    between atoms: N3_26  and  N4_27 
ROOT
HETATM    1  C3  UNL     1      25.193  -0.561  54.037  1.00  0.00     0.076 C 
HETATM    2  C4  UNL     1      24.717  -0.849  55.299  1.00  0.00     0.147 C 
HETATM    3  N1  UNL     1      23.519  -1.413  54.968  1.00  0.00    -0.271 NA
HETATM    4  C5  UNL     1      22.408  -0.638  54.860  1.00  0.00     0.116 C 
HETATM    5  C6  UNL     1      21.717  -0.515  53.685  1.00  0.00     0.019 C 
HETATM    6  C7  UNL     1      21.926  -0.209  52.357  1.00  0.00     0.002 C 
HETATM    7  C8  UNL     1      21.834   0.970  51.639  1.00  0.00     0.012 C 
HETATM    8  C9  UNL     1      22.845   1.711  51.060  1.00  0.00    -0.022 A 
HETATM    9  C10 UNL     1      22.580   2.354  49.869  1.00  0.00     0.014 A 
HETATM   10  C11 UNL     1      23.482   3.125  49.176  1.00  0.00     0.030 A 
HETATM   11  C12 UNL     1      24.754   3.288  49.682  1.00  0.00     0.035 A 
HETATM   12  C20 UNL     1      25.016   2.632  50.892  1.00  0.00     0.045 A 
HETATM   13  C21 UNL     1      24.096   1.849  51.592  1.00  0.00     0.026 A 
HETATM   14  C22 UNL     1      24.602   1.315  52.750  1.00  0.00     0.180 C 
HETATM   15  N5  UNL     1      24.661   0.001  52.938  1.00  0.00    -0.226 NA
ENDROOT
BRANCH  11  16
HETATM   16  N2  UNL     1      25.764   4.057  49.059  1.00  0.00    -0.323 N 
HETATM   17  C13 UNL     1      26.059   5.415  49.268  1.00  0.00     0.256 C 
HETATM   18  O1  UNL     1      25.301   5.971  50.127  1.00  0.00    -0.267 OA
HETATM   19  H11 UNL     1      26.324   3.481  48.367  1.00  0.00     0.169 HD
BRANCH  17  20
HETATM   20  C14 UNL     1      27.142   6.085  48.546  1.00  0.00     0.032 A 
HETATM   21  C15 UNL     1      27.093   7.290  47.909  1.00  0.00     0.017 A 
HETATM   22  C16 UNL     1      28.174   7.820  47.264  1.00  0.00     0.001 A 
HETATM   23  C17 UNL     1      29.382   7.159  47.222  1.00  0.00     0.000 A 
HETATM   24  C18 UNL     1      29.434   5.938  47.866  1.00  0.00     0.001 A 
HETATM   25  C19 UNL     1      28.354   5.393  48.519  1.00  0.00     0.017 A 
ENDBRANCH  17  20
ENDBRANCH  11  16
BRANCH  14  26
HETATM   26  N3  UNL     1      24.973   2.261  53.540  1.00  0.00    -0.161 NA
BRANCH  26  27
HETATM   27  N4  UNL     1      26.337   2.454  53.760  1.00  0.00    -0.321 N 
HETATM   28  H18 UNL     1      27.343   2.257  53.951  1.00  0.00     0.179 HD
HETATM   29  H19 UNL     1      26.162   3.464  53.642  1.00  0.00     0.179 HD
ENDBRANCH  26  27
ENDBRANCH  14  26
BRANCH   1  30
HETATM   30  C2  UNL     1      26.586  -0.966  53.878  1.00  0.00     0.023 C 
HETATM   31  C1  UNL     1      27.165  -1.387  52.764  1.00  0.00     0.013 C 
ENDBRANCH   1  30
TORSDOF 5
ENDMDL
MODEL 2
REMARK VINA RESULT:      -8.8      2.010      3.822
REMARK  5 active torsions:
REMARK  status: ('A' for Active; 'I' for Inactive)
REMARK    1  A    between atoms: C2_2  and  C3_3 
REMARK    2  A    between atoms: C12_13  and  N2_14 
REMARK       I    between atoms: N2_14  and  C13_15 
REMARK    3  A    between atoms: C13_15  and  C14_17 
REMARK    4  A    between atoms: C22_25  and  N3_26 
REMARK    5  A    between atoms: N3_26  and  N4_27 
ROOT
HETATM    1  C3  UNL     1      20.551   1.560  52.691  1.00  0.00     0.076 C 
HETATM    2  C4  UNL     1      19.537   0.631  52.588  1.00  0.00     0.147 C 
HETATM    3  N1  UNL     1      19.863  -0.180  53.637  1.00  0.00    -0.271 NA
HETATM    4  C5  UNL     1      20.689  -1.243  53.446  1.00  0.00     0.116 C 
HETATM    5  C6  UNL     1      21.896  -1.350  54.082  1.00  0.00     0.019 C 
HETATM    6  C7  UNL     1      23.052  -0.628  54.295  1.00  0.00     0.002 C 
HETATM    7  C8  UNL     1      24.271  -0.593  53.642  1.00  0.00     0.012 C 
HETATM    8  C9  UNL     1      24.819   0.427  52.888  1.00  0.00    -0.022 A 
HETATM    9  C10 UNL     1      26.185   0.612  52.941  1.00  0.00     0.014 A 
HETATM   10  C11 UNL     1      26.872   1.581  52.249  1.00  0.00     0.030 A 
HETATM   11  C12 UNL     1      26.173   2.448  51.436  1.00  0.00     0.035 A 
HETATM   12  C20 UNL     1      24.786   2.254  51.388  1.00  0.00     0.045 A 
HETATM   13  C21 UNL     1      24.092   1.268  52.093  1.00  0.00     0.026 A 
HETATM   14  C22 UNL     1      22.739   1.290  51.874  1.00  0.00     0.180 C 
HETATM   15  N5  UNL     1      21.880   1.483  52.871  1.00  0.00    -0.226 NA
ENDROOT
BRANCH  11  16
HETATM   16  N2  UNL     1      26.771   3.482  50.678  1.00  0.00    -0.323 N 
HETATM   17  C13 UNL     1      26.259   4.105  49.526  1.00  0.00     0.256 C 
HETATM   18  O1  UNL     1      25.125   3.651  49.166  1.00  0.00    -0.267 OA
HETATM   19  H11 UNL     1      27.708   3.770  51.079  1.00  0.00     0.169 HD
BRANCH  17  20
HETATM   20  C14 UNL     1      26.994   5.170  48.841  1.00  0.00     0.032 A 
HETATM   21  C15 UNL     1      28.303   5.160  48.458  1.00  0.00     0.017 A 
HETATM   22  C16 UNL     1      28.886   6.217  47.820  1.00  0.00     0.001 A 
HETATM   23  C17 UNL     1      28.176   7.361  47.527  1.00  0.00     0.000 A 
HETATM   24  C18 UNL     1      26.850   7.374  47.914  1.00  0.00     0.001 A 
HETATM   25  C19 UNL     1      26.251   6.316  48.557  1.00  0.00     0.017 A 
ENDBRANCH  17  20
ENDBRANCH  11  16
BRANCH  14  26
HETATM   26  N3  UNL     1      22.496   1.104  50.624  1.00  0.00    -0.161 NA
BRANCH  26  27
HETATM   27  N4  UNL     1      22.424   2.214  49.784  1.00  0.00    -0.321 N 
HETATM   28  H18 UNL     1      22.709   2.994  49.152  1.00  0.00     0.179 HD
HETATM   29  H19 UNL     1      21.402   2.194  49.926  1.00  0.00     0.179 HD
ENDBRANCH  26  27
ENDBRANCH  14  26
BRANCH   1  30
HETATM   30  C2  UNL     1      20.047   2.925  52.579  1.00  0.00     0.023 C 
HETATM   31  C1  UNL     1      19.812   3.592  51.461  1.00  0.00     0.013 C 
ENDBRANCH   1  30
TORSDOF 5
ENDMDL
MODEL 3
REMARK VINA RESULT:      -8.7      3.050      6.942
REMARK  5 active torsions:
REMARK  status: ('A' for Active; 'I' for Inactive)
REMARK    1  A    between atoms: C2_2  and  C3_3 
REMARK    2  A    between atoms: C12_13  and  N2_14 
REMARK       I    between atoms: N2_14  and  C13_15 
REMARK    3  A    between atoms: C13_15  and  C14_17 
REMARK    4  A    between atoms: C22_25  and  N3_26 
REMARK    5  A    between atoms: N3_26  and  N4_27 
ROOT
HETATM    1  C3  UNL     1      21.657   4.879  49.501  1.00  0.00     0.076 C 
HETATM    2  C4  UNL     1      20.726   5.194  48.534  1.00  0.00     0.147 C 
HETATM    3  N1  UNL     1      19.609   5.284  49.314  1.00  0.00    -0.271 NA
HETATM    4  C5  UNL     1      18.836   4.186  49.526  1.00  0.00     0.116 C 
HETATM    5  C6  UNL     1      18.639   3.664  50.775  1.00  0.00     0.019 C 
HETATM    6  C7  UNL     1      19.357   3.236  51.873  1.00  0.00     0.002 C 
HETATM    7  C8  UNL     1      19.816   1.993  52.268  1.00  0.00     0.012 C 
HETATM    8  C9  UNL     1      21.118   1.534  52.340  1.00  0.00    -0.022 A 
HETATM    9  C10 UNL     1      21.444   0.661  53.356  1.00  0.00     0.014 A 
HETATM   10  C11 UNL     1      22.692   0.122  53.556  1.00  0.00     0.030 A 
HETATM   11  C12 UNL     1      23.714   0.458  52.694  1.00  0.00     0.035 A 
HETATM   12  C20 UNL     1      23.375   1.346  51.665  1.00  0.00     0.045 A 
HETATM   13  C21 UNL     1      22.105   1.892  51.465  1.00  0.00     0.026 A 
HETATM   14  C22 UNL     1      22.035   2.734  50.386  1.00  0.00     0.180 C 
HETATM   15  N5  UNL     1      21.691   4.011  50.525  1.00  0.00    -0.226 NA
ENDROOT
BRANCH  11  16
HETATM   16  N2  UNL     1      25.036  -0.033  52.800  1.00  0.00    -0.323 N 
HETATM   17  C13 UNL     1      26.141   0.602  53.394  1.00  0.00     0.256 C 
HETATM   18  O1  UNL     1      25.867   1.749  53.876  1.00  0.00    -0.267 OA
HETATM   19  H11 UNL     1      25.134  -0.993  52.361  1.00  0.00     0.169 HD
BRANCH  17  20
HETATM   20  C14 UNL     1      27.461  -0.031  53.430  1.00  0.00     0.032 A 
HETATM   21  C15 UNL     1      27.764  -1.332  53.153  1.00  0.00     0.017 A 
HETATM   22  C16 UNL     1      29.039  -1.815  53.219  1.00  0.00     0.001 A 
HETATM   23  C17 UNL     1      30.097  -1.007  53.575  1.00  0.00     0.000 A 
HETATM   24  C18 UNL     1      29.792   0.311  53.857  1.00  0.00     0.001 A 
HETATM   25  C19 UNL     1      28.513   0.810  53.794  1.00  0.00     0.017 A 
ENDBRANCH  17  20
ENDBRANCH  11  16
BRANCH  14  26
HETATM   26  N3  UNL     1      22.345   2.095  49.313  1.00  0.00    -0.161 NA
BRANCH  26  27
HETATM   27  N4  UNL     1      21.355   1.361  48.661  1.00  0.00    -0.321 N 
HETATM   28  H18 UNL     1      20.816   0.882  47.907  1.00  0.00     0.179 HD
HETATM   29  H19 UNL     1      20.894   1.260  49.579  1.00  0.00     0.179 HD
ENDBRANCH  26  27
ENDBRANCH  14  26
BRANCH   1  30
HETATM   30  C2  UNL     1      22.870   5.680  49.366  1.00  0.00     0.023 C 
HETATM   31  C1  UNL     1      23.895   5.434  48.567  1.00  0.00     0.013 C 
ENDBRANCH   1  30
TORSDOF 5
ENDMDL
MODEL 4
REMARK VINA RESULT:      -8.6      2.905      9.357
REMARK  5 active torsions:
REMARK  status: ('A' for Active; 'I' for Inactive)
REMARK    1  A    between atoms: C2_2  and  C3_3 
REMARK    2  A    between atoms: C12_13  and  N2_14 
REMARK       I    between atoms: N2_14  and  C13_15 
REMARK    3  A    between atoms: C13_15  and  C14_17 
REMARK    4  A    between atoms: C22_25  and  N3_26 
REMARK    5  A    between atoms: N3_26  and  N4_27 
ROOT
HETATM    1  C3  UNL     1      24.824   9.650  47.808  1.00  0.00     0.076 C 
HETATM    2  C4  UNL     1      25.303  10.943  47.832  1.00  0.00     0.147 C 
HETATM    3  N1  UNL     1      26.322  10.826  46.931  1.00  0.00    -0.271 NA
HETATM    4  C5  UNL     1      27.569  10.487  47.353  1.00  0.00     0.116 C 
HETATM    5  C6  UNL     1      28.193   9.344  46.935  1.00  0.00     0.019 C 
HETATM    6  C7  UNL     1      27.974   7.985  46.846  1.00  0.00     0.002 C 
HETATM    7  C8  UNL     1      28.280   6.927  47.682  1.00  0.00     0.012 C 
HETATM    8  C9  UNL     1      27.424   6.128  48.416  1.00  0.00    -0.022 A 
HETATM    9  C10 UNL     1      27.750   4.797  48.570  1.00  0.00     0.014 A 
HETATM   10  C11 UNL     1      27.000   3.882  49.269  1.00  0.00     0.030 A 
HETATM   11  C12 UNL     1      25.831   4.294  49.873  1.00  0.00     0.035 A 
HETATM   12  C20 UNL     1      25.507   5.647  49.712  1.00  0.00     0.045 A 
HETATM   13  C21 UNL     1      26.272   6.573  49.000  1.00  0.00     0.026 A 
HETATM   14  C22 UNL     1      25.735   7.835  48.992  1.00  0.00     0.180 C 
HETATM   15  N5  UNL     1      25.397   8.436  47.855  1.00  0.00    -0.226 NA
ENDROOT
BRANCH  11  16
HETATM   16  N2  UNL     1      24.979   3.445  50.618  1.00  0.00    -0.323 N 
HETATM   17  C13 UNL     1      23.868   2.722  50.149  1.00  0.00     0.256 C 
HETATM   18  O1  UNL     1      23.644   2.886  48.906  1.00  0.00    -0.267 OA
HETATM   19  H11 UNL     1      25.270   3.393  51.636  1.00  0.00     0.169 HD
BRANCH  17  20
HETATM   20  C14 UNL     1      23.073   1.876  51.041  1.00  0.00     0.032 A 
HETATM   21  C15 UNL     1      23.267   1.664  52.374  1.00  0.00     0.017 A 
HETATM   22  C16 UNL     1      22.457   0.849  53.111  1.00  0.00     0.001 A 
HETATM   23  C17 UNL     1      21.389   0.190  52.540  1.00  0.00     0.000 A 
HETATM   24  C18 UNL     1      21.190   0.403  51.190  1.00  0.00     0.001 A 
HETATM   25  C19 UNL     1      21.999   1.222  50.437  1.00  0.00     0.017 A 
ENDBRANCH  17  20
ENDBRANCH  11  16
BRANCH  14  26
HETATM   26  N3  UNL     1      25.635   8.274  50.198  1.00  0.00    -0.161 NA
BRANCH  26  27
HETATM   27  N4  UNL     1      26.758   8.841  50.800  1.00  0.00    -0.321 N 
HETATM   28  H18 UNL     1      27.444   9.138  51.527  1.00  0.00     0.179 HD
HETATM   29  H19 UNL     1      27.052   9.140  49.856  1.00  0.00     0.179 HD
ENDBRANCH  26  27
ENDBRANCH  14  26
BRANCH   1  30
HETATM   30  C2  UNL     1      23.369   9.614  47.707  1.00  0.00     0.023 C 
HETATM   31  C1  UNL     1      22.515   9.347  48.683  1.00  0.00     0.013 C 
ENDBRANCH   1  30
TORSDOF 5
ENDMDL
MODEL 5
REMARK VINA RESULT:      -8.5      2.969      8.937
REMARK  5 active torsions:
REMARK  status: ('A' for Active; 'I' for Inactive)
REMARK    1  A    between atoms: C2_2  and  C3_3 
REMARK    2  A    between atoms: C12_13  and  N2_14 
REMARK       I    between atoms: N2_14  and  C13_15 
REMARK    3  A    between atoms: C13_15  and  C14_17 
REMARK    4  A    between atoms: C22_25  and  N3_26 
REMARK    5  A    between atoms: N3_26  and  N4_27 
ROOT
HETATM    1  C3  UNL     1      22.747   7.992  48.288  1.00  0.00     0.076 C 
HETATM    2  C4  UNL     1      22.932   9.358  48.332  1.00  0.00     0.147 C 
HETATM    3  N1  UNL     1      24.075   9.458  47.593  1.00  0.00    -0.271 NA
HETATM    4  C5  UNL     1      25.288   9.398  48.202  1.00  0.00     0.116 C 
HETATM    5  C6  UNL     1      26.196   8.413  47.921  1.00  0.00     0.019 C 
HETATM    6  C7  UNL     1      26.285   7.038  47.852  1.00  0.00     0.002 C 
HETATM    7  C8  UNL     1      26.682   6.076  48.763  1.00  0.00     0.012 C 
HETATM    8  C9  UNL     1      25.915   5.115  49.395  1.00  0.00    -0.022 A 
HETATM    9  C10 UNL     1      26.489   3.887  49.643  1.00  0.00     0.014 A 
HETATM   10  C11 UNL     1      25.855   2.835  50.261  1.00  0.00     0.030 A 
HETATM   11  C12 UNL     1      24.549   2.990  50.674  1.00  0.00     0.035 A 
HETATM   12  C20 UNL     1      23.972   4.240  50.418  1.00  0.00     0.045 A 
HETATM   13  C21 UNL     1      24.621   5.306  49.790  1.00  0.00     0.026 A 
HETATM   14  C22 UNL     1      23.836   6.423  49.658  1.00  0.00     0.180 C 
HETATM   15  N5  UNL     1      23.550   6.930  48.463  1.00  0.00    -0.226 NA
ENDROOT
BRANCH  11  16
HETATM   16  N2  UNL     1      23.796   1.981  51.320  1.00  0.00    -0.323 N 
HETATM   17  C13 UNL     1      23.701   1.734  52.701  1.00  0.00     0.256 C 
HETATM   18  O1  UNL     1      24.390   2.538  53.408  1.00  0.00    -0.267 OA
HETATM   19  H11 UNL     1      23.268   1.379  50.624  1.00  0.00     0.169 HD
BRANCH  17  20
HETATM   20  C14 UNL     1      22.877   0.645  53.229  1.00  0.00     0.032 A 
HETATM   21  C15 UNL     1      23.285  -0.406  53.997  1.00  0.00     0.017 A 
HETATM   22  C16 UNL     1      22.421  -1.368  54.436  1.00  0.00     0.001 A 
HETATM   23  C17 UNL     1      21.079  -1.328  54.125  1.00  0.00     0.000 A 
HETATM   24  C18 UNL     1      20.664  -0.264  53.347  1.00  0.00     0.001 A 
HETATM   25  C19 UNL     1      21.523   0.711  52.898  1.00  0.00     0.017 A 
ENDBRANCH  17  20
ENDBRANCH  11  16
BRANCH  14  26
HETATM   26  N3  UNL     1      23.467   6.836  50.819  1.00  0.00    -0.161 NA
BRANCH  26  27
HETATM   27  N4  UNL     1      24.290   7.729  51.505  1.00  0.00    -0.321 N 
HETATM   28  H18 UNL     1      25.067   8.105  52.091  1.00  0.00     0.179 HD
HETATM   29  H19 UNL     1      23.666   8.481  51.173  1.00  0.00     0.179 HD
ENDBRANCH  26  27
ENDBRANCH  14  26
BRANCH   1  30
HETATM   30  C2  UNL     1      21.364   7.643  47.980  1.00  0.00     0.023 C 
HETATM   31  C1  UNL     1      20.356   7.575  48.836  1.00  0.00     0.013 C 
ENDBRANCH   1  30
TORSDOF 5
ENDMDL
MODEL 6
REMARK VINA RESULT:      -8.4      4.495      6.804
REMARK  5 active torsions:
REMARK  status: ('A' for Active; 'I' for Inactive)
REMARK    1  A    between atoms: C2_2  and  C3_3 
REMARK    2  A    between atoms: C12_13  and  N2_14 
REMARK       I    between atoms: N2_14  and  C13_15 
REMARK    3  A    between atoms: C13_15  and  C14_17 
REMARK    4  A    between atoms: C22_25  and  N3_26 
REMARK    5  A    between atoms: N3_26  and  N4_27 
ROOT
HETATM    1  C3  UNL     1      19.069   2.109  50.750  1.00  0.00     0.076 C 
HETATM    2  C4  UNL     1      18.122   1.802  49.796  1.00  0.00     0.147 C 
HETATM    3  N1  UNL     1      17.198   1.179  50.584  1.00  0.00    -0.271 NA
HETATM    4  C5  UNL     1      17.261  -0.165  50.776  1.00  0.00     0.116 C 
HETATM    5  C6  UNL     1      17.448  -0.716  52.015  1.00  0.00     0.019 C 
HETATM    6  C7  UNL     1      18.298  -0.632  53.098  1.00  0.00     0.002 C 
HETATM    7  C8  UNL     1      19.429  -1.340  53.462  1.00  0.00     0.012 C 
HETATM    8  C9  UNL     1      20.741  -0.908  53.514  1.00  0.00    -0.022 A 
HETATM    9  C10 UNL     1      21.552  -1.414  54.509  1.00  0.00     0.014 A 
HETATM   10  C11 UNL     1      22.873  -1.080  54.688  1.00  0.00     0.030 A 
HETATM   11  C12 UNL     1      23.459  -0.177  53.828  1.00  0.00     0.035 A 
HETATM   12  C20 UNL     1      22.630   0.333  52.821  1.00  0.00     0.045 A 
HETATM   13  C21 UNL     1      21.287  -0.009  52.642  1.00  0.00     0.026 A 
HETATM   14  C22 UNL     1      20.696   0.630  51.583  1.00  0.00     0.180 C 
HETATM   15  N5  UNL     1      19.646   1.427  51.754  1.00  0.00    -0.226 NA
ENDROOT
BRANCH  11  16
HETATM   16  N2  UNL     1      24.808   0.242  53.914  1.00  0.00    -0.323 N 
HETATM   17  C13 UNL     1      25.933  -0.369  53.332  1.00  0.00     0.256 C 
HETATM   18  O1  UNL     1      25.652  -1.414  52.661  1.00  0.00    -0.267 OA
HETATM   19  H11 UNL     1      24.910   1.120  54.499  1.00  0.00     0.169 HD
BRANCH  17  20
HETATM   20  C14 UNL     1      27.279   0.180  53.508  1.00  0.00     0.032 A 
HETATM   21  C15 UNL     1      28.454  -0.511  53.571  1.00  0.00     0.017 A 
HETATM   22  C16 UNL     1      29.658   0.110  53.737  1.00  0.00     0.001 A 
HETATM   23  C17 UNL     1      29.752   1.481  53.853  1.00  0.00     0.000 A 
HETATM   24  C18 UNL     1      28.563   2.181  53.790  1.00  0.00     0.001 A 
HETATM   25  C19 UNL     1      27.344   1.568  53.622  1.00  0.00     0.017 A 
ENDBRANCH  17  20
ENDBRANCH  11  16
BRANCH  14  26
HETATM   26  N3  UNL     1      21.312   0.329  50.493  1.00  0.00    -0.161 NA
BRANCH  26  27
HETATM   27  N4  UNL     1      22.133   1.287  49.901  1.00  0.00    -0.321 N 
HETATM   28  H18 UNL     1      22.955   1.734  49.439  1.00  0.00     0.179 HD
HETATM   29  H19 UNL     1      21.370   1.965  50.055  1.00  0.00     0.179 HD
ENDBRANCH  26  27
ENDBRANCH  14  26
BRANCH   1  30
HETATM   30  C2  UNL     1      19.537   3.486  50.625  1.00  0.00     0.023 C 
HETATM   31  C1  UNL     1      20.344   4.125  51.456  1.00  0.00     0.013 C 
ENDBRANCH   1  30
TORSDOF 5
ENDMDL
MODEL 7
REMARK VINA RESULT:      -7.9      3.684      9.399
REMARK  5 active torsions:
REMARK  status: ('A' for Active; 'I' for Inactive)
REMARK    1  A    between atoms: C2_2  and  C3_3 
REMARK    2  A    between atoms: C12_13  and  N2_14 
REMARK       I    between atoms: N2_14  and  C13_15 
REMARK    3  A    between atoms: C13_15  and  C14_17 
REMARK    4  A    between atoms: C22_25  and  N3_26 
REMARK    5  A    between atoms: N3_26  and  N4_27 
ROOT
HETATM    1  C3  UNL     1      26.927   9.371  46.977  1.00  0.00     0.076 C 
HETATM    2  C4  UNL     1      27.841  10.389  47.145  1.00  0.00     0.147 C 
HETATM    3  N1  UNL     1      28.977   9.743  46.750  1.00  0.00    -0.271 NA
HETATM    4  C5  UNL     1      29.735   9.078  47.662  1.00  0.00     0.116 C 
HETATM    5  C6  UNL     1      29.950   7.729  47.584  1.00  0.00     0.019 C 
HETATM    6  C7  UNL     1      29.250   6.546  47.466  1.00  0.00     0.002 C 
HETATM    7  C8  UNL     1      28.777   5.638  48.396  1.00  0.00     0.012 C 
HETATM    8  C9  UNL     1      27.469   5.356  48.742  1.00  0.00    -0.022 A 
HETATM    9  C10 UNL     1      27.150   4.055  49.069  1.00  0.00     0.014 A 
HETATM   10  C11 UNL     1      25.897   3.622  49.433  1.00  0.00     0.030 A 
HETATM   11  C12 UNL     1      24.863   4.532  49.484  1.00  0.00     0.035 A 
HETATM   12  C20 UNL     1      25.194   5.851  49.150  1.00  0.00     0.045 A 
HETATM   13  C21 UNL     1      26.469   6.286  48.781  1.00  0.00     0.026 A 
HETATM   14  C22 UNL     1      26.530   7.627  48.502  1.00  0.00     0.180 C 
HETATM   15  N5  UNL     1      26.900   8.069  47.304  1.00  0.00    -0.226 NA
ENDROOT
BRANCH  11  16
HETATM   16  N2  UNL     1      23.534   4.204  49.843  1.00  0.00    -0.323 N 
HETATM   17  C13 UNL     1      23.026   3.986  51.136  1.00  0.00     0.256 C 
HETATM   18  O1  UNL     1      23.902   4.111  52.052  1.00  0.00    -0.267 OA
HETATM   19  H11 UNL     1      22.905   4.129  48.994  1.00  0.00     0.169 HD
BRANCH  17  20
HETATM   20  C14 UNL     1      21.618   3.651  51.360  1.00  0.00     0.032 A 
HETATM   21  C15 UNL     1      21.118   2.645  52.133  1.00  0.00     0.017 A 
HETATM   22  C16 UNL     1      19.778   2.425  52.269  1.00  0.00     0.001 A 
HETATM   23  C17 UNL     1      18.850   3.215  51.625  1.00  0.00     0.000 A 
HETATM   24  C18 UNL     1      19.354   4.234  50.841  1.00  0.00     0.001 A 
HETATM   25  C19 UNL     1      20.702   4.467  50.696  1.00  0.00     0.017 A 
ENDBRANCH  17  20
ENDBRANCH  11  16
BRANCH  14  26
HETATM   26  N3  UNL     1      26.185   8.304  49.540  1.00  0.00    -0.161 NA
BRANCH  26  27
HETATM   27  N4  UNL     1      27.118   8.491  50.559  1.00  0.00    -0.321 N 
HETATM   28  H18 UNL     1      27.554   8.517  51.507  1.00  0.00     0.179 HD
HETATM   29  H19 UNL     1      27.775   8.812  49.830  1.00  0.00     0.179 HD
ENDBRANCH  26  27
ENDBRANCH  14  26
BRANCH   1  30
HETATM   30  C2  UNL     1      25.726   9.831  46.286  1.00  0.00     0.023 C 
HETATM   31  C1  UNL     1      24.843   9.079  45.649  1.00  0.00     0.013 C 
ENDBRANCH   1  30
TORSDOF 5
ENDMDL
MODEL 8
REMARK VINA RESULT:      -7.8      4.612      7.586
REMARK  5 active torsions:
REMARK  status: ('A' for Active; 'I' for Inactive)
REMARK    1  A    between atoms: C2_2  and  C3_3 
REMARK    2  A    between atoms: C12_13  and  N2_14 
REMARK       I    between atoms: N2_14  and  C13_15 
REMARK    3  A    between atoms: C13_15  and  C14_17 
REMARK    4  A    between atoms: C22_25  and  N3_26 
REMARK    5  A    between atoms: N3_26  and  N4_27 
ROOT
HETATM    1  C3  UNL     1      23.520   5.601  48.892  1.00  0.00     0.076 C 
HETATM    2  C4  UNL     1      22.493   5.997  49.724  1.00  0.00     0.147 C 
HETATM    3  N1  UNL     1      22.020   7.060  49.011  1.00  0.00    -0.271 NA
HETATM    4  C5  UNL     1      22.516   8.306  49.235  1.00  0.00     0.116 C 
HETATM    5  C6  UNL     1      23.161   9.019  48.261  1.00  0.00     0.019 C 
HETATM    6  C7  UNL     1      24.195   8.888  47.357  1.00  0.00     0.002 C 
HETATM    7  C8  UNL     1      25.536   9.223  47.410  1.00  0.00     0.012 C 
HETATM    8  C9  UNL     1      26.635   8.386  47.451  1.00  0.00    -0.022 A 
HETATM    9  C10 UNL     1      27.781   8.787  46.797  1.00  0.00     0.014 A 
HETATM   10  C11 UNL     1      28.950   8.065  46.749  1.00  0.00     0.030 A 
HETATM   11  C12 UNL     1      29.012   6.847  47.392  1.00  0.00     0.035 A 
HETATM   12  C20 UNL     1      27.844   6.446  48.053  1.00  0.00     0.045 A 
HETATM   13  C21 UNL     1      26.659   7.183  48.099  1.00  0.00     0.026 A 
HETATM   14  C22 UNL     1      25.661   6.570  48.811  1.00  0.00     0.180 C 
HETATM   15  N5  UNL     1      24.504   6.245  48.243  1.00  0.00    -0.226 NA
ENDROOT
BRANCH  11  16
HETATM   16  N2  UNL     1      30.158   6.018  47.411  1.00  0.00    -0.323 N 
HETATM   17  C13 UNL     1      31.351   6.222  48.127  1.00  0.00     0.256 C 
HETATM   18  O1  UNL     1      31.349   7.289  48.821  1.00  0.00    -0.267 OA
HETATM   19  H11 UNL     1      30.035   5.164  46.794  1.00  0.00     0.169 HD
BRANCH  17  20
HETATM   20  C14 UNL     1      32.462   5.272  48.050  1.00  0.00     0.032 A 
HETATM   21  C15 UNL     1      33.764   5.489  48.395  1.00  0.00     0.017 A 
HETATM   22  C16 UNL     1      34.721   4.522  48.282  1.00  0.00     0.001 A 
HETATM   23  C17 UNL     1      34.420   3.263  47.808  1.00  0.00     0.000 A 
HETATM   24  C18 UNL     1      33.103   3.041  47.457  1.00  0.00     0.001 A 
HETATM   25  C19 UNL     1      32.129   4.006  47.567  1.00  0.00     0.017 A 
ENDBRANCH  17  20
ENDBRANCH  11  16
BRANCH  14  26
HETATM   26  N3  UNL     1      26.041   6.388  50.027  1.00  0.00    -0.161 NA
BRANCH  26  27
HETATM   27  N4  UNL     1      25.954   7.454  50.922  1.00  0.00    -0.321 N 
HETATM   28  H18 UNL     1      25.843   8.420  51.299  1.00  0.00     0.179 HD
HETATM   29  H19 UNL     1      26.111   6.767  51.677  1.00  0.00     0.179 HD
ENDBRANCH  26  27
ENDBRANCH  14  26
BRANCH   1  30
HETATM   30  C2  UNL     1      23.522   4.157  48.684  1.00  0.00     0.023 C 
HETATM   31  C1  UNL     1      24.172   3.254  49.401  1.00  0.00     0.013 C 
ENDBRANCH   1  30
TORSDOF 5
ENDMDL
MODEL 9
REMARK VINA RESULT:      -7.8      3.317      9.153
REMARK  5 active torsions:
REMARK  status: ('A' for Active; 'I' for Inactive)
REMARK    1  A    between atoms: C2_2  and  C3_3 
REMARK    2  A    between atoms: C12_13  and  N2_14 
REMARK       I    between atoms: N2_14  and  C13_15 
REMARK    3  A    between atoms: C13_15  and  C14_17 
REMARK    4  A    between atoms: C22_25  and  N3_26 
REMARK    5  A    between atoms: N3_26  and  N4_27 
ROOT
HETATM    1  C3  UNL     1      23.060   6.105  47.641  1.00  0.00     0.076 C 
HETATM    2  C4  UNL     1      23.469   7.422  47.641  1.00  0.00     0.147 C 
HETATM    3  N1  UNL     1      24.821   7.242  47.675  1.00  0.00    -0.271 NA
HETATM    4  C5  UNL     1      25.470   7.170  48.867  1.00  0.00     0.116 C 
HETATM    5  C6  UNL     1      26.159   6.053  49.254  1.00  0.00     0.019 C 
HETATM    6  C7  UNL     1      25.986   4.691  49.390  1.00  0.00     0.002 C 
HETATM    7  C8  UNL     1      25.620   3.893  50.458  1.00  0.00     0.012 C 
HETATM    8  C9  UNL     1      24.455   3.171  50.639  1.00  0.00    -0.022 A 
HETATM    9  C10 UNL     1      24.536   1.961  51.294  1.00  0.00     0.014 A 
HETATM   10  C11 UNL     1      23.468   1.133  51.548  1.00  0.00     0.030 A 
HETATM   11  C12 UNL     1      22.211   1.514  51.129  1.00  0.00     0.035 A 
HETATM   12  C20 UNL     1      22.137   2.744  50.464  1.00  0.00     0.045 A 
HETATM   13  C21 UNL     1      23.224   3.582  50.208  1.00  0.00     0.026 A 
HETATM   14  C22 UNL     1      22.886   4.730  49.540  1.00  0.00     0.180 C 
HETATM   15  N5  UNL     1      23.403   5.016  48.349  1.00  0.00    -0.226 NA
ENDROOT
BRANCH  11  16
HETATM   16  N2  UNL     1      21.040   0.746  51.333  1.00  0.00    -0.323 N 
HETATM   17  C13 UNL     1      20.269   0.656  52.506  1.00  0.00     0.256 C 
HETATM   18  O1  UNL     1      20.718   1.366  53.463  1.00  0.00    -0.267 OA
HETATM   19  H11 UNL     1      20.771   0.202  50.464  1.00  0.00     0.169 HD
BRANCH  17  20
HETATM   20  C14 UNL     1      19.072  -0.185  52.573  1.00  0.00     0.032 A 
HETATM   21  C15 UNL     1      18.843  -1.234  53.413  1.00  0.00     0.017 A 
HETATM   22  C16 UNL     1      17.681  -1.951  53.387  1.00  0.00     0.001 A 
HETATM   23  C17 UNL     1      16.670  -1.651  52.500  1.00  0.00     0.000 A 
HETATM   24  C18 UNL     1      16.901  -0.588  51.647  1.00  0.00     0.001 A 
HETATM   25  C19 UNL     1      18.065   0.142  51.664  1.00  0.00     0.017 A 
ENDBRANCH  17  20
ENDBRANCH  11  16
BRANCH  14  26
HETATM   26  N3  UNL     1      22.042   5.408  50.237  1.00  0.00    -0.161 NA
BRANCH  26  27
HETATM   27  N4  UNL     1      22.526   6.287  51.204  1.00  0.00    -0.321 N 
HETATM   28  H18 UNL     1      22.709   7.165  51.738  1.00  0.00     0.179 HD
HETATM   29  H19 UNL     1      22.998   5.476  51.634  1.00  0.00     0.179 HD
ENDBRANCH  26  27
ENDBRANCH  14  26
BRANCH   1  30
HETATM   30  C2  UNL     1      22.026   5.859  46.641  1.00  0.00     0.023 C 
HETATM   31  C1  UNL     1      21.915   4.794  45.864  1.00  0.00     0.013 C 
ENDBRANCH   1  30
TORSDOF 5
ENDMDL
