MODEL 1
REMARK VINA RESULT:      -9.7      0.000      0.000
REMARK  2 active torsions:
REMARK  status: ('A' for Active; 'I' for Inactive)
REMARK    1  A    between atoms: C5_5  and  N1_6 
REMARK       I    between atoms: N1_6  and  C6_7 
REMARK    2  A    between atoms: C6_7  and  C7_9 
ROOT
HETATM    1  C1  UNL     1      18.876   1.383  51.193  1.00  0.00     0.048 C 
HETATM    2  C2  UNL     1      19.901   0.718  52.025  1.00  0.00    -0.033 A 
HETATM    3  C3  UNL     1      19.528  -0.189  52.901  1.00  0.00     0.009 A 
HETATM    4  C4  UNL     1      20.626  -0.761  53.647  1.00  0.00     0.030 A 
HETATM    5  C5  UNL     1      21.709  -0.110  53.144  1.00  0.00     0.062 A 
HETATM    6  C13 UNL     1      21.420   0.881  52.093  1.00  0.00     0.181 A 
HETATM    7  N2  UNL     1      21.689   2.230  52.467  1.00  0.00    -0.219 NA
HETATM    8  N3  UNL     1      22.994   2.657  52.430  1.00  0.00    -0.235 NA
HETATM    9  C14 UNL     1      23.767   3.664  53.113  1.00  0.00     0.074 C 
HETATM   10  C15 UNL     1      24.144   4.664  52.268  1.00  0.00     0.009 C 
HETATM   11  C16 UNL     1      24.005   5.030  50.832  1.00  0.00    -0.014 C 
HETATM   12  C17 UNL     1      23.354   4.142  50.146  1.00  0.00     0.074 C 
HETATM   13  C18 UNL     1      22.712   3.422  49.109  1.00  0.00     0.063 A 
HETATM   14  C19 UNL     1      22.293   3.313  47.842  1.00  0.00     0.048 A 
HETATM   15  C20 UNL     1      21.678   2.104  47.498  1.00  0.00     0.138 A 
HETATM   16  N4  UNL     1      21.512   1.106  48.379  1.00  0.00    -0.075 NA
HETATM   17  C21 UNL     1      21.956   1.284  49.632  1.00  0.00     0.724 A 
HETATM   18  N5  UNL     1      22.540   2.426  49.969  1.00  0.00    -0.067 NA
HETATM   19  N6  UNL     1      22.008   0.555  50.832  1.00  0.00    -0.189 N 
HETATM   20  H11 UNL     1      21.064   2.806  51.765  1.00  0.00     0.144 HD
HETATM   21  H12 UNL     1      22.338   3.119  53.146  1.00  0.00     0.146 HD
HETATM   22  H19 UNL     1      22.581  -0.226  50.468  1.00  0.00     0.180 HD
ENDROOT
BRANCH   5  23
HETATM   23  N1  UNL     1      23.002  -0.349  53.576  1.00  0.00    -0.323 N 
HETATM   24  C6  UNL     1      24.155  -0.710  54.245  1.00  0.00     0.256 C 
HETATM   25  O1  UNL     1      23.709  -1.268  55.320  1.00  0.00    -0.267 OA
HETATM   26  H6  UNL     1      23.552   0.119  52.743  1.00  0.00     0.169 HD
BRANCH  24  27
HETATM   27  C7  UNL     1      25.584  -0.600  54.013  1.00  0.00     0.032 A 
HETATM   28  C8  UNL     1      26.234   0.110  54.990  1.00  0.00     0.018 A 
HETATM   29  C9  UNL     1      27.623   0.231  54.785  1.00  0.00     0.025 A 
HETATM   30  C10 UNL     1      28.212  -0.328  53.693  1.00  0.00     0.034 A 
HETATM   31 CL1  UNL     1      29.966  -0.127  53.505  1.00  0.00    -0.084 Cl
HETATM   32  C11 UNL     1      27.571  -1.043  52.705  1.00  0.00     0.025 A 
HETATM   33  C12 UNL     1      26.219  -1.152  52.922  1.00  0.00     0.018 A 
ENDBRANCH  24  27
ENDBRANCH   5  23
TORSDOF 2
ENDMDL
MODEL 2
REMARK VINA RESULT:      -9.3      1.614      1.971
REMARK  2 active torsions:
REMARK  status: ('A' for Active; 'I' for Inactive)
REMARK    1  A    between atoms: C5_5  and  N1_6 
REMARK       I    between atoms: N1_6  and  C6_7 
REMARK    2  A    between atoms: C6_7  and  C7_9 
ROOT
HETATM    1  C1  UNL     1      19.420   1.704  49.975  1.00  0.00     0.048 C 
HETATM    2  C2  UNL     1      20.558   1.295  50.825  1.00  0.00    -0.033 A 
HETATM    3  C3  UNL     1      20.418   0.267  51.634  1.00  0.00     0.009 A 
HETATM    4  C4  UNL     1      21.603  -0.027  52.407  1.00  0.00     0.030 A 
HETATM    5  C5  UNL     1      22.481   0.925  51.995  1.00  0.00     0.062 A 
HETATM    6  C13 UNL     1      21.969   1.863  50.981  1.00  0.00     0.181 A 
HETATM    7  N2  UNL     1      21.841   3.208  51.435  1.00  0.00    -0.219 NA
HETATM    8  N3  UNL     1      22.978   3.978  51.488  1.00  0.00    -0.235 NA
HETATM    9  C14 UNL     1      23.416   5.113  52.260  1.00  0.00     0.074 C 
HETATM   10  C15 UNL     1      23.533   6.229  51.487  1.00  0.00     0.009 C 
HETATM   11  C16 UNL     1      23.351   6.631  50.066  1.00  0.00    -0.014 C 
HETATM   12  C17 UNL     1      22.997   5.644  49.303  1.00  0.00     0.074 C 
HETATM   13  C18 UNL     1      22.617   4.842  48.199  1.00  0.00     0.063 A 
HETATM   14  C19 UNL     1      22.291   4.701  46.907  1.00  0.00     0.048 A 
HETATM   15  C20 UNL     1      22.047   3.394  46.472  1.00  0.00     0.138 A 
HETATM   16  N4  UNL     1      22.132   2.336  47.293  1.00  0.00    -0.075 NA
HETATM   17  C21 UNL     1      22.463   2.550  48.574  1.00  0.00     0.724 A 
HETATM   18  N5  UNL     1      22.696   3.785  48.998  1.00  0.00    -0.067 NA
HETATM   19  N6  UNL     1      22.670   1.789  49.737  1.00  0.00    -0.189 N 
HETATM   20  H11 UNL     1      21.107   3.634  50.731  1.00  0.00     0.144 HD
HETATM   21  H12 UNL     1      22.194   4.196  52.190  1.00  0.00     0.146 HD
HETATM   22  H19 UNL     1      23.450   1.220  49.365  1.00  0.00     0.180 HD
ENDROOT
BRANCH   5  23
HETATM   23  N1  UNL     1      23.774   1.023  52.481  1.00  0.00    -0.323 N 
HETATM   24  C6  UNL     1      24.977   1.397  53.047  1.00  0.00     0.256 C 
HETATM   25  O1  UNL     1      24.746   2.600  53.458  1.00  0.00    -0.267 OA
HETATM   26  H6  UNL     1      24.151   0.035  52.170  1.00  0.00     0.169 HD
BRANCH  24  27
HETATM   27  C7  UNL     1      26.280   0.790  53.246  1.00  0.00     0.032 A 
HETATM   28  C8  UNL     1      26.313  -0.536  52.898  1.00  0.00     0.018 A 
HETATM   29  C9  UNL     1      27.569  -1.148  53.083  1.00  0.00     0.025 A 
HETATM   30  C10 UNL     1      28.621  -0.434  53.570  1.00  0.00     0.034 A 
HETATM   31 CL1  UNL     1      30.168  -1.278  53.778  1.00  0.00    -0.084 Cl
HETATM   32  C11 UNL     1      28.601   0.898  53.923  1.00  0.00     0.025 A 
HETATM   33  C12 UNL     1      27.370   1.477  53.735  1.00  0.00     0.018 A 
ENDBRANCH  24  27
ENDBRANCH   5  23
TORSDOF 2
ENDMDL
MODEL 3
REMARK VINA RESULT:      -9.1      3.140      5.753
REMARK  2 active torsions:
REMARK  status: ('A' for Active; 'I' for Inactive)
REMARK    1  A    between atoms: C5_5  and  N1_6 
REMARK       I    between atoms: N1_6  and  C6_7 
REMARK    2  A    between atoms: C6_7  and  C7_9 
ROOT
HETATM    1  C1  UNL     1      26.270   4.763  49.346  1.00  0.00     0.048 C 
HETATM    2  C2  UNL     1      25.840   3.644  50.211  1.00  0.00    -0.033 A 
HETATM    3  C3  UNL     1      26.748   2.852  50.737  1.00  0.00     0.009 A 
HETATM    4  C4  UNL     1      26.195   1.801  51.560  1.00  0.00     0.030 A 
HETATM    5  C5  UNL     1      24.856   2.024  51.481  1.00  0.00     0.062 A 
HETATM    6  C13 UNL     1      24.453   3.171  50.649  1.00  0.00     0.181 A 
HETATM    7  N2  UNL     1      23.730   2.818  49.473  1.00  0.00    -0.219 NA
HETATM    8  N3  UNL     1      22.395   2.520  49.605  1.00  0.00    -0.235 NA
HETATM    9  C14 UNL     1      21.445   1.712  48.884  1.00  0.00     0.074 C 
HETATM   10  C15 UNL     1      20.500   2.478  48.271  1.00  0.00     0.009 C 
HETATM   11  C16 UNL     1      20.144   3.916  48.127  1.00  0.00    -0.014 C 
HETATM   12  C17 UNL     1      20.936   4.701  48.790  1.00  0.00     0.074 C 
HETATM   13  C18 UNL     1      21.571   5.830  49.362  1.00  0.00     0.063 A 
HETATM   14  C19 UNL     1      21.700   7.155  49.510  1.00  0.00     0.048 A 
HETATM   15  C20 UNL     1      22.674   7.582  50.418  1.00  0.00     0.138 A 
HETATM   16  N4  UNL     1      23.441   6.723  51.107  1.00  0.00    -0.075 NA
HETATM   17  C21 UNL     1      23.258   5.409  50.910  1.00  0.00     0.724 A 
HETATM   18  N5  UNL     1      22.338   4.993  50.051  1.00  0.00    -0.067 NA
HETATM   19  N6  UNL     1      23.792   4.200  51.388  1.00  0.00    -0.189 N 
HETATM   20  H11 UNL     1      23.876   3.698  48.824  1.00  0.00     0.144 HD
HETATM   21  H12 UNL     1      22.937   2.041  48.810  1.00  0.00     0.146 HD
HETATM   22  H19 UNL     1      23.537   4.346  52.380  1.00  0.00     0.180 HD
ENDROOT
BRANCH   5  23
HETATM   23  N1  UNL     1      23.920   1.240  52.134  1.00  0.00    -0.323 N 
HETATM   24  C6  UNL     1      23.220   0.381  52.957  1.00  0.00     0.256 C 
HETATM   25  O1  UNL     1      24.122  -0.037  53.781  1.00  0.00    -0.267 OA
HETATM   26  H6  UNL     1      23.042   1.462  51.507  1.00  0.00     0.169 HD
BRANCH  24  27
HETATM   27  C7  UNL     1      21.850  -0.088  53.068  1.00  0.00     0.032 A 
HETATM   28  C8  UNL     1      21.698  -1.087  53.994  1.00  0.00     0.018 A 
HETATM   29  C9  UNL     1      20.376  -1.560  54.117  1.00  0.00     0.025 A 
HETATM   30  C10 UNL     1      19.378  -1.031  53.356  1.00  0.00     0.034 A 
HETATM   31 CL1  UNL     1      17.741  -1.683  53.569  1.00  0.00    -0.084 Cl
HETATM   32  C11 UNL     1      19.519  -0.027  52.423  1.00  0.00     0.025 A 
HETATM   33  C12 UNL     1      20.813   0.421  52.317  1.00  0.00     0.018 A 
ENDBRANCH  24  27
ENDBRANCH   5  23
TORSDOF 2
ENDMDL
MODEL 4
REMARK VINA RESULT:      -9.0      3.460      6.391
REMARK  2 active torsions:
REMARK  status: ('A' for Active; 'I' for Inactive)
REMARK    1  A    between atoms: C5_5  and  N1_6 
REMARK       I    between atoms: N1_6  and  C6_7 
REMARK    2  A    between atoms: C6_7  and  C7_9 
ROOT
HETATM    1  C1  UNL     1      26.082   2.461  52.117  1.00  0.00     0.048 C 
HETATM    2  C2  UNL     1      24.819   1.749  52.407  1.00  0.00    -0.033 A 
HETATM    3  C3  UNL     1      24.827   0.749  53.261  1.00  0.00     0.009 A 
HETATM    4  C4  UNL     1      23.530   0.141  53.454  1.00  0.00     0.030 A 
HETATM    5  C5  UNL     1      22.728   0.865  52.630  1.00  0.00     0.062 A 
HETATM    6  C13 UNL     1      23.398   1.938  51.876  1.00  0.00     0.181 A 
HETATM    7  N2  UNL     1      23.437   1.732  50.466  1.00  0.00    -0.219 NA
HETATM    8  N3  UNL     1      22.302   2.014  49.745  1.00  0.00    -0.235 NA
HETATM    9  C14 UNL     1      21.730   1.553  48.505  1.00  0.00     0.074 C 
HETATM   10  C15 UNL     1      21.737   2.531  47.557  1.00  0.00     0.009 C 
HETATM   11  C16 UNL     1      22.155   3.953  47.417  1.00  0.00    -0.014 C 
HETATM   12  C17 UNL     1      22.642   4.447  48.514  1.00  0.00     0.074 C 
HETATM   13  C18 UNL     1      23.209   5.301  49.490  1.00  0.00     0.063 A 
HETATM   14  C19 UNL     1      23.751   6.471  49.854  1.00  0.00     0.048 A 
HETATM   15  C20 UNL     1      24.075   6.605  51.208  1.00  0.00     0.138 A 
HETATM   16  N4  UNL     1      23.860   5.625  52.099  1.00  0.00    -0.075 NA
HETATM   17  C21 UNL     1      23.315   4.479  51.665  1.00  0.00     0.724 A 
HETATM   18  N5  UNL     1      23.004   4.341  50.383  1.00  0.00    -0.067 NA
HETATM   19  N6  UNL     1      22.919   3.244  52.205  1.00  0.00    -0.189 N 
HETATM   20  H11 UNL     1      24.276   2.372  50.149  1.00  0.00     0.144 HD
HETATM   21  H12 UNL     1      22.954   1.245  49.370  1.00  0.00     0.146 HD
HETATM   22  H19 UNL     1      22.218   3.626  52.864  1.00  0.00     0.180 HD
ENDROOT
BRANCH   5  23
HETATM   23  N1  UNL     1      21.371   0.626  52.495  1.00  0.00    -0.323 N 
HETATM   24  C6  UNL     1      20.010   0.673  52.261  1.00  0.00     0.256 C 
HETATM   25  O1  UNL     1      19.830   1.871  51.811  1.00  0.00    -0.267 OA
HETATM   26  H6  UNL     1      21.336  -0.403  52.887  1.00  0.00     0.169 HD
BRANCH  24  27
HETATM   27  C7  UNL     1      18.887  -0.235  52.402  1.00  0.00     0.032 A 
HETATM   28  C8  UNL     1      17.867   0.030  51.525  1.00  0.00     0.018 A 
HETATM   29  C9  UNL     1      16.764  -0.839  51.645  1.00  0.00     0.025 A 
HETATM   30  C10 UNL     1      16.768  -1.836  52.571  1.00  0.00     0.034 A 
HETATM   31 CL1  UNL     1      15.339  -2.886  52.662  1.00  0.00    -0.084 Cl
HETATM   32  C11 UNL     1      17.785  -2.113  53.458  1.00  0.00     0.025 A 
HETATM   33  C12 UNL     1      18.851  -1.258  53.325  1.00  0.00     0.018 A 
ENDBRANCH  24  27
ENDBRANCH   5  23
TORSDOF 2
ENDMDL
MODEL 5
REMARK VINA RESULT:      -9.0      3.196      5.703
REMARK  2 active torsions:
REMARK  status: ('A' for Active; 'I' for Inactive)
REMARK    1  A    between atoms: C5_5  and  N1_6 
REMARK       I    between atoms: N1_6  and  C6_7 
REMARK    2  A    between atoms: C6_7  and  C7_9 
ROOT
HETATM    1  C1  UNL     1      24.756   6.932  47.920  1.00  0.00     0.048 C 
HETATM    2  C2  UNL     1      25.198   5.785  48.742  1.00  0.00    -0.033 A 
HETATM    3  C3  UNL     1      26.485   5.551  48.880  1.00  0.00     0.009 A 
HETATM    4  C4  UNL     1      26.780   4.404  49.707  1.00  0.00     0.030 A 
HETATM    5  C5  UNL     1      25.546   3.954  50.058  1.00  0.00     0.062 A 
HETATM    6  C13 UNL     1      24.414   4.727  49.518  1.00  0.00     0.181 A 
HETATM    7  N2  UNL     1      23.611   4.015  48.580  1.00  0.00    -0.219 NA
HETATM    8  N3  UNL     1      22.691   3.121  49.071  1.00  0.00    -0.235 NA
HETATM    9  C14 UNL     1      22.058   1.923  48.581  1.00  0.00     0.074 C 
HETATM   10  C15 UNL     1      20.725   2.112  48.368  1.00  0.00     0.009 C 
HETATM   11  C16 UNL     1      19.712   3.195  48.500  1.00  0.00    -0.014 C 
HETATM   12  C17 UNL     1      20.208   4.294  48.979  1.00  0.00     0.074 C 
HETATM   13  C18 UNL     1      20.384   5.615  49.459  1.00  0.00     0.063 A 
HETATM   14  C19 UNL     1      19.916   6.845  49.709  1.00  0.00     0.048 A 
HETATM   15  C20 UNL     1      20.807   7.729  50.326  1.00  0.00     0.138 A 
HETATM   16  N4  UNL     1      22.059   7.376  50.653  1.00  0.00    -0.075 NA
HETATM   17  C21 UNL     1      22.461   6.128  50.374  1.00  0.00     0.724 A 
HETATM   18  N5  UNL     1      21.625   5.282  49.788  1.00  0.00    -0.067 NA
HETATM   19  N6  UNL     1      23.619   5.347  50.532  1.00  0.00    -0.189 N 
HETATM   20  H11 UNL     1      23.115   4.825  48.020  1.00  0.00     0.144 HD
HETATM   21  H12 UNL     1      23.111   2.923  48.102  1.00  0.00     0.146 HD
HETATM   22  H19 UNL     1      23.654   5.400  51.564  1.00  0.00     0.180 HD
ENDROOT
BRANCH   5  23
HETATM   23  N1  UNL     1      25.346   2.850  50.868  1.00  0.00    -0.323 N 
HETATM   24  C6  UNL     1      25.444   1.710  51.643  1.00  0.00     0.256 C 
HETATM   25  O1  UNL     1      26.704   1.430  51.595  1.00  0.00    -0.267 OA
HETATM   26  H6  UNL     1      24.254   2.919  50.989  1.00  0.00     0.169 HD
BRANCH  24  27
HETATM   27  C7  UNL     1      24.533   0.872  52.400  1.00  0.00     0.032 A 
HETATM   28  C8  UNL     1      23.227   1.005  52.004  1.00  0.00     0.018 A 
HETATM   29  C9  UNL     1      22.322   0.201  52.727  1.00  0.00     0.025 A 
HETATM   30  C10 UNL     1      22.765  -0.616  53.721  1.00  0.00     0.034 A 
HETATM   31 CL1  UNL     1      21.563  -1.594  54.586  1.00  0.00    -0.084 Cl
HETATM   32  C11 UNL     1      24.074  -0.758  54.128  1.00  0.00     0.025 A 
HETATM   33  C12 UNL     1      24.941   0.032  53.413  1.00  0.00     0.018 A 
ENDBRANCH  24  27
ENDBRANCH   5  23
TORSDOF 2
ENDMDL
MODEL 6
REMARK VINA RESULT:      -8.7      8.441     11.093
REMARK  2 active torsions:
REMARK  status: ('A' for Active; 'I' for Inactive)
REMARK    1  A    between atoms: C5_5  and  N1_6 
REMARK       I    between atoms: N1_6  and  C6_7 
REMARK    2  A    between atoms: C6_7  and  C7_9 
ROOT
HETATM    1  C1  UNL     1      30.866  11.582  48.692  1.00  0.00     0.048 C 
HETATM    2  C2  UNL     1      29.823  10.549  48.868  1.00  0.00    -0.033 A 
HETATM    3  C3  UNL     1      28.669  10.886  49.401  1.00  0.00     0.009 A 
HETATM    4  C4  UNL     1      27.740   9.786  49.516  1.00  0.00     0.030 A 
HETATM    5  C5  UNL     1      28.441   8.739  49.005  1.00  0.00     0.062 A 
HETATM    6  C13 UNL     1      29.804   9.055  48.544  1.00  0.00     0.181 A 
HETATM    7  N2  UNL     1      30.840   8.439  49.305  1.00  0.00    -0.219 NA
HETATM    8  N3  UNL     1      31.124   7.118  49.052  1.00  0.00    -0.235 NA
HETATM    9  C14 UNL     1      31.674   6.022  49.808  1.00  0.00     0.074 C 
HETATM   10  C15 UNL     1      32.899   5.654  49.336  1.00  0.00     0.009 C 
HETATM   11  C16 UNL     1      33.846   6.043  48.256  1.00  0.00    -0.014 C 
HETATM   12  C17 UNL     1      33.393   7.001  47.507  1.00  0.00     0.074 C 
HETATM   13  C18 UNL     1      33.238   7.997  46.512  1.00  0.00     0.063 A 
HETATM   14  C19 UNL     1      33.711   8.711  45.482  1.00  0.00     0.048 A 
HETATM   15  C20 UNL     1      32.820   9.620  44.902  1.00  0.00     0.138 A 
HETATM   16  N4  UNL     1      31.563   9.777  45.345  1.00  0.00    -0.075 NA
HETATM   17  C21 UNL     1      31.156   9.030  46.381  1.00  0.00     0.724 A 
HETATM   18  N5  UNL     1      31.992   8.165  46.938  1.00  0.00    -0.067 NA
HETATM   19  N6  UNL     1      29.988   8.852  47.141  1.00  0.00    -0.189 N 
HETATM   20  H11 UNL     1      31.712   9.078  49.092  1.00  0.00     0.144 HD
HETATM   21  H12 UNL     1      31.298   7.485  50.048  1.00  0.00     0.146 HD
HETATM   22  H19 UNL     1      29.385   8.549  46.357  1.00  0.00     0.180 HD
ENDROOT
BRANCH   5  23
HETATM   23  N1  UNL     1      27.927   7.457  48.913  1.00  0.00    -0.323 N 
HETATM   24  C6  UNL     1      27.663   6.125  48.660  1.00  0.00     0.256 C 
HETATM   25  O1  UNL     1      28.685   5.750  47.964  1.00  0.00    -0.267 OA
HETATM   26  H6  UNL     1      26.982   7.610  49.457  1.00  0.00     0.169 HD
BRANCH  24  27
HETATM   27  C7  UNL     1      26.605   5.184  48.977  1.00  0.00     0.032 A 
HETATM   28  C8  UNL     1      25.350   5.714  48.820  1.00  0.00     0.018 A 
HETATM   29  C9  UNL     1      24.305   4.818  49.123  1.00  0.00     0.025 A 
HETATM   30  C10 UNL     1      24.579   3.549  49.534  1.00  0.00     0.034 A 
HETATM   31 CL1  UNL     1      23.208   2.484  49.900  1.00  0.00    -0.084 Cl
HETATM   32  C11 UNL     1      25.835   3.005  49.696  1.00  0.00     0.025 A 
HETATM   33  C12 UNL     1      26.839   3.892  49.394  1.00  0.00     0.018 A 
ENDBRANCH  24  27
ENDBRANCH   5  23
TORSDOF 2
ENDMDL
MODEL 7
REMARK VINA RESULT:      -8.7      9.472     12.075
REMARK  2 active torsions:
REMARK  status: ('A' for Active; 'I' for Inactive)
REMARK    1  A    between atoms: C5_5  and  N1_6 
REMARK       I    between atoms: N1_6  and  C6_7 
REMARK    2  A    between atoms: C6_7  and  C7_9 
ROOT
HETATM    1  C1  UNL     1      33.834   9.626  46.554  1.00  0.00     0.048 C 
HETATM    2  C2  UNL     1      32.571   9.099  47.112  1.00  0.00    -0.033 A 
HETATM    3  C3  UNL     1      31.804   9.892  47.827  1.00  0.00     0.009 A 
HETATM    4  C4  UNL     1      30.602   9.254  48.312  1.00  0.00     0.030 A 
HETATM    5  C5  UNL     1      30.711   7.989  47.828  1.00  0.00     0.062 A 
HETATM    6  C13 UNL     1      31.923   7.716  47.035  1.00  0.00     0.181 A 
HETATM    7  N2  UNL     1      32.821   6.788  47.635  1.00  0.00    -0.219 NA
HETATM    8  N3  UNL     1      32.525   5.450  47.534  1.00  0.00    -0.235 NA
HETATM    9  C14 UNL     1      32.813   4.270  48.309  1.00  0.00     0.074 C 
HETATM   10  C15 UNL     1      33.648   3.425  47.642  1.00  0.00     0.009 C 
HETATM   11  C16 UNL     1      34.353   3.347  46.334  1.00  0.00    -0.014 C 
HETATM   12  C17 UNL     1      34.102   4.362  45.564  1.00  0.00     0.074 C 
HETATM   13  C18 UNL     1      34.067   5.279  44.486  1.00  0.00     0.063 A 
HETATM   14  C19 UNL     1      34.480   5.689  43.280  1.00  0.00     0.048 A 
HETATM   15  C20 UNL     1      33.866   6.840  42.777  1.00  0.00     0.138 A 
HETATM   16  N4  UNL     1      32.917   7.504  43.455  1.00  0.00    -0.075 NA
HETATM   17  C21 UNL     1      32.552   7.037  44.658  1.00  0.00     0.724 A 
HETATM   18  N5  UNL     1      33.128   5.947  45.145  1.00  0.00    -0.067 NA
HETATM   19  N6  UNL     1      31.644   7.377  45.674  1.00  0.00    -0.189 N 
HETATM   20  H11 UNL     1      33.778   7.019  47.140  1.00  0.00     0.144 HD
HETATM   21  H12 UNL     1      33.076   5.774  48.398  1.00  0.00     0.146 HD
HETATM   22  H19 UNL     1      30.789   7.291  45.099  1.00  0.00     0.180 HD
ENDROOT
BRANCH   5  23
HETATM   23  N1  UNL     1      29.758   7.009  48.050  1.00  0.00    -0.323 N 
HETATM   24  C6  UNL     1      29.031   5.844  48.198  1.00  0.00     0.256 C 
HETATM   25  O1  UNL     1      29.890   4.923  47.910  1.00  0.00    -0.267 OA
HETATM   26  H6  UNL     1      28.898   7.655  48.290  1.00  0.00     0.169 HD
BRANCH  24  27
HETATM   27  C7  UNL     1      27.671   5.492  48.563  1.00  0.00     0.032 A 
HETATM   28  C8  UNL     1      26.789   6.531  48.413  1.00  0.00     0.018 A 
HETATM   29  C9  UNL     1      25.461   6.213  48.763  1.00  0.00     0.025 A 
HETATM   30  C10 UNL     1      25.143   4.965  49.205  1.00  0.00     0.034 A 
HETATM   31 CL1  UNL     1      23.449   4.645  49.629  1.00  0.00    -0.084 Cl
HETATM   32  C11 UNL     1      26.019   3.913  49.360  1.00  0.00     0.025 A 
HETATM   33  C12 UNL     1      27.307   4.242  49.013  1.00  0.00     0.018 A 
ENDBRANCH  24  27
ENDBRANCH   5  23
TORSDOF 2
ENDMDL
MODEL 8
REMARK VINA RESULT:      -8.7      8.427     10.290
REMARK  2 active torsions:
REMARK  status: ('A' for Active; 'I' for Inactive)
REMARK    1  A    between atoms: C5_5  and  N1_6 
REMARK       I    between atoms: N1_6  and  C6_7 
REMARK    2  A    between atoms: C6_7  and  C7_9 
ROOT
HETATM    1  C1  UNL     1      25.193   7.388  49.152  1.00  0.00     0.048 C 
HETATM    2  C2  UNL     1      26.405   6.592  48.867  1.00  0.00    -0.033 A 
HETATM    3  C3  UNL     1      26.389   5.295  49.085  1.00  0.00     0.009 A 
HETATM    4  C4  UNL     1      27.635   4.638  48.765  1.00  0.00     0.030 A 
HETATM    5  C5  UNL     1      28.419   5.661  48.333  1.00  0.00     0.062 A 
HETATM    6  C13 UNL     1      27.784   6.990  48.339  1.00  0.00     0.181 A 
HETATM    7  N2  UNL     1      28.350   7.909  49.270  1.00  0.00    -0.219 NA
HETATM    8  N3  UNL     1      29.522   8.535  48.922  1.00  0.00    -0.235 NA
HETATM    9  C14 UNL     1      30.635   9.106  49.637  1.00  0.00     0.074 C 
HETATM   10  C15 UNL     1      30.681  10.460  49.492  1.00  0.00     0.009 C 
HETATM   11  C16 UNL     1      29.923  11.540  48.802  1.00  0.00    -0.014 C 
HETATM   12  C17 UNL     1      28.929  11.089  48.101  1.00  0.00     0.074 C 
HETATM   13  C18 UNL     1      27.795  10.974  47.259  1.00  0.00     0.063 A 
HETATM   14  C19 UNL     1      26.818  11.522  46.525  1.00  0.00     0.048 A 
HETATM   15  C20 UNL     1      25.981  10.628  45.850  1.00  0.00     0.138 A 
HETATM   16  N4  UNL     1      26.137   9.298  45.927  1.00  0.00    -0.075 NA
HETATM   17  C21 UNL     1      27.137   8.818  46.681  1.00  0.00     0.724 A 
HETATM   18  N5  UNL     1      27.937   9.656  47.325  1.00  0.00    -0.067 NA
HETATM   19  N6  UNL     1      27.665   7.565  47.035  1.00  0.00    -0.189 N 
HETATM   20  H11 UNL     1      27.538   8.641  49.414  1.00  0.00     0.144 HD
HETATM   21  H12 UNL     1      29.339   8.364  49.967  1.00  0.00     0.146 HD
HETATM   22  H19 UNL     1      27.905   7.265  46.074  1.00  0.00     0.180 HD
ENDROOT
BRANCH   5  23
HETATM   23  N1  UNL     1      29.726   5.487  47.911  1.00  0.00    -0.323 N 
HETATM   24  C6  UNL     1      31.082   5.260  47.782  1.00  0.00     0.256 C 
HETATM   25  O1  UNL     1      31.454   5.006  48.993  1.00  0.00    -0.267 OA
HETATM   26  H6  UNL     1      29.594   5.711  46.841  1.00  0.00     0.169 HD
BRANCH  24  27
HETATM   27  C7  UNL     1      32.049   5.253  46.699  1.00  0.00     0.032 A 
HETATM   28  C8  UNL     1      32.207   6.482  46.113  1.00  0.00     0.018 A 
HETATM   29  C9  UNL     1      33.141   6.500  45.057  1.00  0.00     0.025 A 
HETATM   30  C10 UNL     1      33.797   5.363  44.696  1.00  0.00     0.034 A 
HETATM   31 CL1  UNL     1      34.954   5.468  43.354  1.00  0.00    -0.084 Cl
HETATM   32  C11 UNL     1      33.647   4.123  45.277  1.00  0.00     0.025 A 
HETATM   33  C12 UNL     1      32.735   4.125  46.304  1.00  0.00     0.018 A 
ENDBRANCH  24  27
ENDBRANCH   5  23
TORSDOF 2
ENDMDL
MODEL 9
REMARK VINA RESULT:      -8.5      2.638      3.347
REMARK  2 active torsions:
REMARK  status: ('A' for Active; 'I' for Inactive)
REMARK    1  A    between atoms: C5_5  and  N1_6 
REMARK       I    between atoms: N1_6  and  C6_7 
REMARK    2  A    between atoms: C6_7  and  C7_9 
ROOT
HETATM    1  C1  UNL     1      18.813   5.176  49.814  1.00  0.00     0.048 C 
HETATM    2  C2  UNL     1      19.706   4.338  50.643  1.00  0.00    -0.033 A 
HETATM    3  C3  UNL     1      19.192   3.625  51.622  1.00  0.00     0.009 A 
HETATM    4  C4  UNL     1      20.171   2.853  52.352  1.00  0.00     0.030 A 
HETATM    5  C5  UNL     1      21.336   3.167  51.728  1.00  0.00     0.062 A 
HETATM    6  C13 UNL     1      21.218   4.115  50.606  1.00  0.00     0.181 A 
HETATM    7  N2  UNL     1      21.842   5.376  50.833  1.00  0.00    -0.219 NA
HETATM    8  N3  UNL     1      23.206   5.454  50.679  1.00  0.00    -0.235 NA
HETATM    9  C14 UNL     1      24.256   6.281  51.218  1.00  0.00     0.074 C 
HETATM   10  C15 UNL     1      24.800   7.085  50.261  1.00  0.00     0.009 C 
HETATM   11  C16 UNL     1      24.640   7.362  48.807  1.00  0.00    -0.014 C 
HETATM   12  C17 UNL     1      23.736   6.618  48.248  1.00  0.00     0.074 C 
HETATM   13  C18 UNL     1      22.854   6.008  47.323  1.00  0.00     0.063 A 
HETATM   14  C19 UNL     1      22.319   5.911  46.099  1.00  0.00     0.048 A 
HETATM   15  C20 UNL     1      21.399   4.876  45.909  1.00  0.00     0.138 A 
HETATM   16  N4  UNL     1      21.063   4.023  46.889  1.00  0.00    -0.075 NA
HETATM   17  C21 UNL     1      21.637   4.179  48.090  1.00  0.00     0.724 A 
HETATM   18  N5  UNL     1      22.511   5.157  48.282  1.00  0.00    -0.067 NA
HETATM   19  N6  UNL     1      21.603   3.554  49.349  1.00  0.00    -0.189 N 
HETATM   20  H11 UNL     1      21.325   6.037  50.118  1.00  0.00     0.144 HD
HETATM   21  H12 UNL     1      22.744   6.121  51.386  1.00  0.00     0.146 HD
HETATM   22  H19 UNL     1      21.934   2.628  49.027  1.00  0.00     0.180 HD
ENDROOT
BRANCH   5  23
HETATM   23  N1  UNL     1      22.561   2.641  52.102  1.00  0.00    -0.323 N 
HETATM   24  C6  UNL     1      23.825   2.389  52.598  1.00  0.00     0.256 C 
HETATM   25  O1  UNL     1      24.144   3.502  53.170  1.00  0.00    -0.267 OA
HETATM   26  H6  UNL     1      22.470   1.644  51.642  1.00  0.00     0.169 HD
BRANCH  24  27
HETATM   27  C7  UNL     1      24.749   1.269  52.603  1.00  0.00     0.032 A 
HETATM   28  C8  UNL     1      24.311   0.214  53.361  1.00  0.00     0.018 A 
HETATM   29  C9  UNL     1      25.192  -0.885  53.381  1.00  0.00     0.025 A 
HETATM   30  C10 UNL     1      26.364  -0.844  52.690  1.00  0.00     0.034 A 
HETATM   31 CL1  UNL     1      27.422  -2.267  52.769  1.00  0.00    -0.084 Cl
HETATM   32  C11 UNL     1      26.816   0.209  51.925  1.00  0.00     0.025 A 
HETATM   33  C12 UNL     1      25.944   1.270  51.916  1.00  0.00     0.018 A 
ENDBRANCH  24  27
ENDBRANCH   5  23
TORSDOF 2
ENDMDL
