MODEL 1
REMARK VINA RESULT:      -8.8      0.000      0.000
REMARK  6 active torsions:
REMARK  status: ('A' for Active; 'I' for Inactive)
REMARK    1  A    between atoms: O1_2  and  C2_3 
REMARK    2  A    between atoms: C2_3  and  C3_4 
REMARK    3  A    between atoms: C3_4  and  O2_5 
REMARK    4  A    between atoms: O2_5  and  C4_6 
REMARK    5  A    between atoms: C8_12  and  N3_13 
REMARK    6  A    between atoms: N3_13  and  C9_14 
ROOT
HETATM    1  C9  UNL     1      26.202  -0.255  53.016  1.00  0.00     0.035 A 
HETATM    2  C10 UNL     1      26.750  -1.448  52.660  1.00  0.00     0.032 A 
HETATM    3  C11 UNL     1      28.089  -1.629  52.918  1.00  0.00     0.046 A 
HETATM    4  C12 UNL     1      28.852  -0.648  53.512  1.00  0.00     0.137 A 
HETATM    5  F1  UNL     1      30.154  -0.957  53.708  1.00  0.00    -0.204 F 
HETATM    6  C13 UNL     1      28.313   0.560  53.876  1.00  0.00     0.085 A 
HETATM    7  C14 UNL     1      29.152   1.548  54.509  1.00  0.00     0.102 C 
HETATM    8  N4  UNL     1      29.833   2.340  54.999  1.00  0.00    -0.191 NA
HETATM    9  C15 UNL     1      26.980   0.722  53.611  1.00  0.00     0.055 A 
ENDROOT
BRANCH   1  10
HETATM   10  N3  UNL     1      24.815  -0.055  52.780  1.00  0.00    -0.340 N 
HETATM   11  H10 UNL     1      24.492   0.301  51.835  1.00  0.00     0.167 HD
BRANCH  10  12
HETATM   12  C8  UNL     1      23.557  -0.183  53.430  1.00  0.00     0.144 A 
HETATM   13  N2  UNL     1      23.326  -1.183  54.323  1.00  0.00    -0.223 NA
HETATM   14  C7  UNL     1      22.101  -1.278  54.905  1.00  0.00     0.236 A 
HETATM   15  N1  UNL     1      21.132  -0.402  54.606  1.00  0.00    -0.241 NA
HETATM   16  C6  UNL     1      21.274   0.613  53.737  1.00  0.00     0.077 A 
HETATM   17  C5  UNL     1      20.240   1.481  53.456  1.00  0.00     0.072 A 
HETATM   18  C16 UNL     1      22.533   0.726  53.129  1.00  0.00     0.075 A 
HETATM   19  C4  UNL     1      20.437   2.496  52.550  1.00  0.00     0.107 A 
HETATM   20  C18 UNL     1      21.679   2.644  51.922  1.00  0.00     0.136 A 
HETATM   21  C17 UNL     1      22.711   1.755  52.220  1.00  0.00     0.121 A 
HETATM   22  O3  UNL     1      22.106   3.577  50.991  1.00  0.00    -0.344 OA
HETATM   23  O4  UNL     1      23.970   1.880  51.603  1.00  0.00    -0.345 OA
HETATM   24  C20 UNL     1      24.488   3.173  51.294  1.00  0.00     0.202 C 
HETATM   25  C19 UNL     1      23.393   4.193  51.174  1.00  0.00     0.202 C 
BRANCH  19  26
HETATM   26  O2  UNL     1      19.532   3.427  52.157  1.00  0.00    -0.346 OA
BRANCH  26  27
HETATM   27  C3  UNL     1      18.620   3.378  51.102  1.00  0.00     0.201 C 
BRANCH  27  28
HETATM   28  C2  UNL     1      17.198   3.172  51.590  1.00  0.00     0.193 C 
BRANCH  28  29
HETATM   29  O1  UNL     1      16.722   4.237  52.347  1.00  0.00    -0.394 OA
HETATM   30  C1  UNL     1      15.411   4.021  52.755  1.00  0.00     0.201 C 
ENDBRANCH  28  29
ENDBRANCH  27  28
ENDBRANCH  26  27
ENDBRANCH  19  26
ENDBRANCH  10  12
ENDBRANCH   1  10
TORSDOF 6
ENDMDL
MODEL 2
REMARK VINA RESULT:      -8.6      2.679      4.081
REMARK  6 active torsions:
REMARK  status: ('A' for Active; 'I' for Inactive)
REMARK    1  A    between atoms: O1_2  and  C2_3 
REMARK    2  A    between atoms: C2_3  and  C3_4 
REMARK    3  A    between atoms: C3_4  and  O2_5 
REMARK    4  A    between atoms: O2_5  and  C4_6 
REMARK    5  A    between atoms: C8_12  and  N3_13 
REMARK    6  A    between atoms: N3_13  and  C9_14 
ROOT
HETATM    1  C9  UNL     1      26.523   1.390  52.882  1.00  0.00     0.035 A 
HETATM    2  C10 UNL     1      27.446   2.340  53.190  1.00  0.00     0.032 A 
HETATM    3  C11 UNL     1      28.712   1.909  53.515  1.00  0.00     0.046 A 
HETATM    4  C12 UNL     1      29.040   0.571  53.530  1.00  0.00     0.137 A 
HETATM    5  F1  UNL     1      30.318   0.286  53.866  1.00  0.00    -0.204 F 
HETATM    6  C13 UNL     1      28.120  -0.398  53.222  1.00  0.00     0.085 A 
HETATM    7  C14 UNL     1      28.518  -1.784  53.238  1.00  0.00     0.102 C 
HETATM    8  N4  UNL     1      28.839  -2.892  53.271  1.00  0.00    -0.191 NA
HETATM    9  C15 UNL     1      26.866   0.050  52.903  1.00  0.00     0.055 A 
ENDROOT
BRANCH   1  10
HETATM   10  N3  UNL     1      25.216   1.815  52.521  1.00  0.00    -0.340 N 
HETATM   11  H10 UNL     1      24.503   2.010  53.281  1.00  0.00     0.167 HD
BRANCH  10  12
HETATM   12  C8  UNL     1      24.433   2.113  51.374  1.00  0.00     0.144 A 
HETATM   13  N2  UNL     1      24.916   2.904  50.378  1.00  0.00    -0.223 NA
HETATM   14  C7  UNL     1      24.123   3.179  49.309  1.00  0.00     0.236 A 
HETATM   15  N1  UNL     1      22.882   2.681  49.232  1.00  0.00    -0.241 NA
HETATM   16  C6  UNL     1      22.326   1.893  50.168  1.00  0.00     0.077 A 
HETATM   17  C5  UNL     1      21.038   1.414  50.045  1.00  0.00     0.072 A 
HETATM   18  C16 UNL     1      23.132   1.599  51.277  1.00  0.00     0.075 A 
HETATM   19  C4  UNL     1      20.515   0.621  51.039  1.00  0.00     0.107 A 
HETATM   20  C18 UNL     1      21.287   0.303  52.162  1.00  0.00     0.136 A 
HETATM   21  C17 UNL     1      22.587   0.798  52.266  1.00  0.00     0.121 A 
HETATM   22  O3  UNL     1      20.978  -0.468  53.271  1.00  0.00    -0.344 OA
HETATM   23  O4  UNL     1      23.385   0.494  53.384  1.00  0.00    -0.345 OA
HETATM   24  C20 UNL     1      23.276  -0.782  54.014  1.00  0.00     0.202 C 
HETATM   25  C19 UNL     1      21.948  -1.423  53.736  1.00  0.00     0.202 C 
BRANCH  19  26
HETATM   26  O2  UNL     1      19.273   0.076  51.080  1.00  0.00    -0.346 OA
BRANCH  26  27
HETATM   27  C3  UNL     1      18.168   0.460  51.839  1.00  0.00     0.201 C 
BRANCH  27  28
HETATM   28  C2  UNL     1      17.367  -0.736  52.321  1.00  0.00     0.193 C 
BRANCH  28  29
HETATM   29  O1  UNL     1      17.718  -1.144  53.604  1.00  0.00    -0.394 OA
HETATM   30  C1  UNL     1      17.834  -2.527  53.679  1.00  0.00     0.201 C 
ENDBRANCH  28  29
ENDBRANCH  27  28
ENDBRANCH  26  27
ENDBRANCH  19  26
ENDBRANCH  10  12
ENDBRANCH   1  10
TORSDOF 6
ENDMDL
MODEL 3
REMARK VINA RESULT:      -8.4      1.382      1.807
REMARK  6 active torsions:
REMARK  status: ('A' for Active; 'I' for Inactive)
REMARK    1  A    between atoms: O1_2  and  C2_3 
REMARK    2  A    between atoms: C2_3  and  C3_4 
REMARK    3  A    between atoms: C3_4  and  O2_5 
REMARK    4  A    between atoms: O2_5  and  C4_6 
REMARK    5  A    between atoms: C8_12  and  N3_13 
REMARK    6  A    between atoms: N3_13  and  C9_14 
ROOT
HETATM    1  C9  UNL     1      26.059   0.989  52.902  1.00  0.00     0.035 A 
HETATM    2  C10 UNL     1      26.759   2.134  53.117  1.00  0.00     0.032 A 
HETATM    3  C11 UNL     1      28.097   2.010  53.414  1.00  0.00     0.046 A 
HETATM    4  C12 UNL     1      28.711   0.780  53.492  1.00  0.00     0.137 A 
HETATM    5  F1  UNL     1      30.029   0.802  53.791  1.00  0.00    -0.204 F 
HETATM    6  C13 UNL     1      28.018  -0.384  53.277  1.00  0.00     0.085 A 
HETATM    7  C14 UNL     1      28.711  -1.647  53.355  1.00  0.00     0.102 C 
HETATM    8  N4  UNL     1      29.268  -2.653  53.438  1.00  0.00    -0.191 NA
HETATM    9  C15 UNL     1      26.688  -0.241  52.985  1.00  0.00     0.055 A 
ENDROOT
BRANCH   1  10
HETATM   10  N3  UNL     1      24.681   1.095  52.571  1.00  0.00    -0.340 N 
HETATM   11  H10 UNL     1      24.382   1.737  51.782  1.00  0.00     0.167 HD
BRANCH  10  12
HETATM   12  C8  UNL     1      23.413   0.585  52.960  1.00  0.00     0.144 A 
HETATM   13  N2  UNL     1      23.293  -0.646  53.525  1.00  0.00    -0.223 NA
HETATM   14  C7  UNL     1      22.058  -1.102  53.862  1.00  0.00     0.236 A 
HETATM   15  N1  UNL     1      20.970  -0.351  53.642  1.00  0.00    -0.241 NA
HETATM   16  C6  UNL     1      20.996   0.874  53.091  1.00  0.00     0.077 A 
HETATM   17  C5  UNL     1      19.844   1.601  52.877  1.00  0.00     0.072 A 
HETATM   18  C16 UNL     1      22.264   1.359  52.738  1.00  0.00     0.075 A 
HETATM   19  C4  UNL     1      19.928   2.846  52.298  1.00  0.00     0.107 A 
HETATM   20  C18 UNL     1      21.175   3.366  51.933  1.00  0.00     0.136 A 
HETATM   21  C17 UNL     1      22.328   2.613  52.158  1.00  0.00     0.121 A 
HETATM   22  O3  UNL     1      21.502   4.578  51.346  1.00  0.00    -0.344 OA
HETATM   23  O4  UNL     1      23.594   3.112  51.801  1.00  0.00    -0.345 OA
HETATM   24  C20 UNL     1      23.869   4.508  51.913  1.00  0.00     0.202 C 
HETATM   25  C19 UNL     1      22.610   5.324  51.880  1.00  0.00     0.202 C 
BRANCH  19  26
HETATM   26  O2  UNL     1      18.901   3.685  52.013  1.00  0.00    -0.346 OA
BRANCH  26  27
HETATM   27  C3  UNL     1      17.957   3.604  50.989  1.00  0.00     0.201 C 
BRANCH  27  28
HETATM   28  C2  UNL     1      16.541   3.515  51.529  1.00  0.00     0.193 C 
BRANCH  28  29
HETATM   29  O1  UNL     1      16.334   4.314  52.648  1.00  0.00    -0.394 OA
HETATM   30  C1  UNL     1      15.049   4.154  53.152  1.00  0.00     0.201 C 
ENDBRANCH  28  29
ENDBRANCH  27  28
ENDBRANCH  26  27
ENDBRANCH  19  26
ENDBRANCH  10  12
ENDBRANCH   1  10
TORSDOF 6
ENDMDL
MODEL 4
REMARK VINA RESULT:      -8.1      4.126      8.637
REMARK  6 active torsions:
REMARK  status: ('A' for Active; 'I' for Inactive)
REMARK    1  A    between atoms: O1_2  and  C2_3 
REMARK    2  A    between atoms: C2_3  and  C3_4 
REMARK    3  A    between atoms: C3_4  and  O2_5 
REMARK    4  A    between atoms: O2_5  and  C4_6 
REMARK    5  A    between atoms: C8_12  and  N3_13 
REMARK    6  A    between atoms: N3_13  and  C9_14 
ROOT
HETATM    1  C9  UNL     1      20.535   0.225  51.814  1.00  0.00     0.035 A 
HETATM    2  C10 UNL     1      20.270  -0.297  53.041  1.00  0.00     0.032 A 
HETATM    3  C11 UNL     1      18.968  -0.656  53.306  1.00  0.00     0.046 A 
HETATM    4  C12 UNL     1      17.968  -0.498  52.372  1.00  0.00     0.137 A 
HETATM    5  F1  UNL     1      16.735  -0.892  52.763  1.00  0.00    -0.204 F 
HETATM    6  C13 UNL     1      18.221   0.027  51.130  1.00  0.00     0.085 A 
HETATM    7  C14 UNL     1      17.141   0.157  50.183  1.00  0.00     0.102 C 
HETATM    8  N4  UNL     1      16.270   0.276  49.437  1.00  0.00    -0.191 NA
HETATM    9  C15 UNL     1      19.521   0.379  50.886  1.00  0.00     0.055 A 
ENDROOT
BRANCH   1  10
HETATM   10  N3  UNL     1      21.877   0.581  51.511  1.00  0.00    -0.340 N 
HETATM   11  H10 UNL     1      22.653  -0.123  51.670  1.00  0.00     0.167 HD
BRANCH  10  12
HETATM   12  C8  UNL     1      22.640   1.669  51.006  1.00  0.00     0.144 A 
HETATM   13  N2  UNL     1      22.088   2.588  50.171  1.00  0.00    -0.223 NA
HETATM   14  C7  UNL     1      22.861   3.600  49.696  1.00  0.00     0.236 A 
HETATM   15  N1  UNL     1      24.152   3.694  50.044  1.00  0.00    -0.241 NA
HETATM   16  C6  UNL     1      24.778   2.832  50.862  1.00  0.00     0.077 A 
HETATM   17  C5  UNL     1      26.113   2.969  51.180  1.00  0.00     0.072 A 
HETATM   18  C16 UNL     1      23.992   1.783  51.361  1.00  0.00     0.075 A 
HETATM   19  C4  UNL     1      26.706   2.050  52.014  1.00  0.00     0.107 A 
HETATM   20  C18 UNL     1      25.957   0.989  52.534  1.00  0.00     0.136 A 
HETATM   21  C17 UNL     1      24.608   0.869  52.200  1.00  0.00     0.121 A 
HETATM   22  O3  UNL     1      26.332  -0.041  53.382  1.00  0.00    -0.344 OA
HETATM   23  O4  UNL     1      23.831  -0.188  52.709  1.00  0.00    -0.345 OA
HETATM   24  C20 UNL     1      24.073  -0.682  54.025  1.00  0.00     0.202 C 
HETATM   25  C19 UNL     1      25.469  -0.375  54.483  1.00  0.00     0.202 C 
BRANCH  19  26
HETATM   26  O2  UNL     1      28.000   2.033  52.420  1.00  0.00    -0.346 OA
BRANCH  26  27
HETATM   27  C3  UNL     1      28.545   2.427  53.642  1.00  0.00     0.201 C 
BRANCH  27  28
HETATM   28  C2  UNL     1      29.295   1.296  54.322  1.00  0.00     0.193 C 
BRANCH  28  29
HETATM   29  O1  UNL     1      29.869   0.406  53.422  1.00  0.00    -0.394 OA
HETATM   30  C1  UNL     1      29.593  -0.911  53.770  1.00  0.00     0.201 C 
ENDBRANCH  28  29
ENDBRANCH  27  28
ENDBRANCH  26  27
ENDBRANCH  19  26
ENDBRANCH  10  12
ENDBRANCH   1  10
TORSDOF 6
ENDMDL
MODEL 5
REMARK VINA RESULT:      -8.0      1.755      2.045
REMARK  6 active torsions:
REMARK  status: ('A' for Active; 'I' for Inactive)
REMARK    1  A    between atoms: O1_2  and  C2_3 
REMARK    2  A    between atoms: C2_3  and  C3_4 
REMARK    3  A    between atoms: C3_4  and  O2_5 
REMARK    4  A    between atoms: O2_5  and  C4_6 
REMARK    5  A    between atoms: C8_12  and  N3_13 
REMARK    6  A    between atoms: N3_13  and  C9_14 
ROOT
HETATM    1  C9  UNL     1      25.758   0.129  53.160  1.00  0.00     0.035 A 
HETATM    2  C10 UNL     1      26.157  -1.106  52.756  1.00  0.00     0.032 A 
HETATM    3  C11 UNL     1      27.486  -1.424  52.917  1.00  0.00     0.046 A 
HETATM    4  C12 UNL     1      28.383  -0.534  53.466  1.00  0.00     0.137 A 
HETATM    5  F1  UNL     1      29.657  -0.974  53.568  1.00  0.00    -0.204 F 
HETATM    6  C13 UNL     1      27.994   0.715  53.878  1.00  0.00     0.085 A 
HETATM    7  C14 UNL     1      28.969   1.604  54.461  1.00  0.00     0.102 C 
HETATM    8  N4  UNL     1      29.758   2.317  54.909  1.00  0.00    -0.191 NA
HETATM    9  C15 UNL     1      26.669   1.014  53.708  1.00  0.00     0.055 A 
ENDROOT
BRANCH   1  10
HETATM   10  N3  UNL     1      24.385   0.470  53.023  1.00  0.00    -0.340 N 
HETATM   11  H10 UNL     1      24.117   1.365  52.520  1.00  0.00     0.167 HD
BRANCH  10  12
HETATM   12  C8  UNL     1      23.091  -0.018  53.351  1.00  0.00     0.144 A 
HETATM   13  N2  UNL     1      22.884  -0.769  54.466  1.00  0.00    -0.223 NA
HETATM   14  C7  UNL     1      21.634  -1.232  54.729  1.00  0.00     0.236 A 
HETATM   15  N1  UNL     1      20.615  -0.955  53.903  1.00  0.00    -0.241 NA
HETATM   16  C6  UNL     1      20.729  -0.223  52.782  1.00  0.00     0.077 A 
HETATM   17  C5  UNL     1      19.650   0.023  51.960  1.00  0.00     0.072 A 
HETATM   18  C16 UNL     1      22.014   0.263  52.497  1.00  0.00     0.075 A 
HETATM   19  C4  UNL     1      19.826   0.769  50.818  1.00  0.00     0.107 A 
HETATM   20  C18 UNL     1      21.092   1.273  50.499  1.00  0.00     0.136 A 
HETATM   21  C17 UNL     1      22.170   1.013  51.345  1.00  0.00     0.121 A 
HETATM   22  O3  UNL     1      21.504   2.040  49.421  1.00  0.00    -0.344 OA
HETATM   23  O4  UNL     1      23.454   1.507  51.048  1.00  0.00    -0.345 OA
HETATM   24  C20 UNL     1      23.600   2.779  50.416  1.00  0.00     0.202 C 
HETATM   25  C19 UNL     1      22.360   3.170  49.667  1.00  0.00     0.202 C 
BRANCH  19  26
HETATM   26  O2  UNL     1      18.880   1.097  49.903  1.00  0.00    -0.346 OA
BRANCH  26  27
HETATM   27  C3  UNL     1      17.730   1.870  50.064  1.00  0.00     0.201 C 
BRANCH  27  28
HETATM   28  C2  UNL     1      17.639   2.976  49.029  1.00  0.00     0.193 C 
BRANCH  28  29
HETATM   29  O1  UNL     1      18.613   2.878  48.041  1.00  0.00    -0.394 OA
HETATM   30  C1  UNL     1      19.163   4.120  47.749  1.00  0.00     0.201 C 
ENDBRANCH  28  29
ENDBRANCH  27  28
ENDBRANCH  26  27
ENDBRANCH  19  26
ENDBRANCH  10  12
ENDBRANCH   1  10
TORSDOF 6
ENDMDL
MODEL 6
REMARK VINA RESULT:      -8.0      1.957      3.514
REMARK  6 active torsions:
REMARK  status: ('A' for Active; 'I' for Inactive)
REMARK    1  A    between atoms: O1_2  and  C2_3 
REMARK    2  A    between atoms: C2_3  and  C3_4 
REMARK    3  A    between atoms: C3_4  and  O2_5 
REMARK    4  A    between atoms: O2_5  and  C4_6 
REMARK    5  A    between atoms: C8_12  and  N3_13 
REMARK    6  A    between atoms: N3_13  and  C9_14 
ROOT
HETATM    1  C9  UNL     1      26.441   1.206  52.787  1.00  0.00     0.035 A 
HETATM    2  C10 UNL     1      27.351   2.150  53.148  1.00  0.00     0.032 A 
HETATM    3  C11 UNL     1      28.612   1.716  53.483  1.00  0.00     0.046 A 
HETATM    4  C12 UNL     1      28.951   0.381  53.455  1.00  0.00     0.137 A 
HETATM    5  F1  UNL     1      30.224   0.092  53.806  1.00  0.00    -0.204 F 
HETATM    6  C13 UNL     1      28.044  -0.583  53.092  1.00  0.00     0.085 A 
HETATM    7  C14 UNL     1      28.453  -1.966  53.064  1.00  0.00     0.102 C 
HETATM    8  N4  UNL     1      28.782  -3.071  53.061  1.00  0.00    -0.191 NA
HETATM    9  C15 UNL     1      26.794  -0.131  52.764  1.00  0.00     0.055 A 
ENDROOT
BRANCH   1  10
HETATM   10  N3  UNL     1      25.139   1.635  52.415  1.00  0.00    -0.340 N 
HETATM   11  H10 UNL     1      24.297   1.063  52.710  1.00  0.00     0.167 HD
BRANCH  10  12
HETATM   12  C8  UNL     1      24.482   2.683  51.713  1.00  0.00     0.144 A 
HETATM   13  N2  UNL     1      25.182   3.564  50.950  1.00  0.00    -0.223 NA
HETATM   14  C7  UNL     1      24.515   4.563  50.313  1.00  0.00     0.236 A 
HETATM   15  N1  UNL     1      23.186   4.681  50.434  1.00  0.00    -0.241 NA
HETATM   16  C6  UNL     1      22.418   3.857  51.166  1.00  0.00     0.077 A 
HETATM   17  C5  UNL     1      21.053   4.030  51.265  1.00  0.00     0.072 A 
HETATM   18  C16 UNL     1      23.091   2.820  51.828  1.00  0.00     0.075 A 
HETATM   19  C4  UNL     1      20.316   3.163  52.038  1.00  0.00     0.107 A 
HETATM   20  C18 UNL     1      20.951   2.115  52.714  1.00  0.00     0.136 A 
HETATM   21  C17 UNL     1      22.332   1.958  52.600  1.00  0.00     0.121 A 
HETATM   22  O3  UNL     1      20.424   1.131  53.536  1.00  0.00    -0.344 OA
HETATM   23  O4  UNL     1      22.996   0.913  53.269  1.00  0.00    -0.345 OA
HETATM   24  C20 UNL     1      22.353  -0.351  53.433  1.00  0.00     0.202 C 
HETATM   25  C19 UNL     1      20.860  -0.227  53.350  1.00  0.00     0.202 C 
BRANCH  19  26
HETATM   26  O2  UNL     1      18.976   3.193  52.247  1.00  0.00    -0.346 OA
BRANCH  26  27
HETATM   27  C3  UNL     1      17.938   3.140  51.317  1.00  0.00     0.201 C 
BRANCH  27  28
HETATM   28  C2  UNL     1      17.078   4.390  51.353  1.00  0.00     0.193 C 
BRANCH  28  29
HETATM   29  O1  UNL     1      16.221   4.429  52.447  1.00  0.00    -0.394 OA
HETATM   30  C1  UNL     1      15.427   3.290  52.507  1.00  0.00     0.201 C 
ENDBRANCH  28  29
ENDBRANCH  27  28
ENDBRANCH  26  27
ENDBRANCH  19  26
ENDBRANCH  10  12
ENDBRANCH   1  10
TORSDOF 6
ENDMDL
MODEL 7
REMARK VINA RESULT:      -7.9      4.437      6.630
REMARK  6 active torsions:
REMARK  status: ('A' for Active; 'I' for Inactive)
REMARK    1  A    between atoms: O1_2  and  C2_3 
REMARK    2  A    between atoms: C2_3  and  C3_4 
REMARK    3  A    between atoms: C3_4  and  O2_5 
REMARK    4  A    between atoms: O2_5  and  C4_6 
REMARK    5  A    between atoms: C8_12  and  N3_13 
REMARK    6  A    between atoms: N3_13  and  C9_14 
ROOT
HETATM    1  C9  UNL     1      26.084   5.336  48.940  1.00  0.00     0.035 A 
HETATM    2  C10 UNL     1      25.712   6.581  48.539  1.00  0.00     0.032 A 
HETATM    3  C11 UNL     1      26.688   7.389  48.002  1.00  0.00     0.046 A 
HETATM    4  C12 UNL     1      27.991   6.963  47.872  1.00  0.00     0.137 A 
HETATM    5  F1  UNL     1      28.848   7.856  47.328  1.00  0.00    -0.204 F 
HETATM    6  C13 UNL     1      28.381   5.710  48.272  1.00  0.00     0.085 A 
HETATM    7  C14 UNL     1      29.755   5.306  48.100  1.00  0.00     0.102 C 
HETATM    8  N4  UNL     1      30.859   4.997  47.975  1.00  0.00    -0.191 NA
HETATM    9  C15 UNL     1      27.397   4.921  48.805  1.00  0.00     0.055 A 
ENDROOT
BRANCH   1  10
HETATM   10  N3  UNL     1      25.087   4.477  49.477  1.00  0.00    -0.340 N 
HETATM   11  H10 UNL     1      25.238   4.033  50.428  1.00  0.00     0.167 HD
BRANCH  10  12
HETATM   12  C8  UNL     1      23.808   3.943  49.162  1.00  0.00     0.144 A 
HETATM   13  N2  UNL     1      23.052   4.471  48.163  1.00  0.00    -0.223 NA
HETATM   14  C7  UNL     1      21.826   3.941  47.910  1.00  0.00     0.236 A 
HETATM   15  N1  UNL     1      21.364   2.913  48.635  1.00  0.00    -0.241 NA
HETATM   16  C6  UNL     1      22.043   2.331  49.638  1.00  0.00     0.077 A 
HETATM   17  C5  UNL     1      21.516   1.280  50.360  1.00  0.00     0.072 A 
HETATM   18  C16 UNL     1      23.310   2.866  49.910  1.00  0.00     0.075 A 
HETATM   19  C4  UNL     1      22.250   0.730  51.385  1.00  0.00     0.107 A 
HETATM   20  C18 UNL     1      23.520   1.235  51.687  1.00  0.00     0.136 A 
HETATM   21  C17 UNL     1      24.033   2.298  50.944  1.00  0.00     0.121 A 
HETATM   22  O3  UNL     1      24.429   0.846  52.658  1.00  0.00    -0.344 OA
HETATM   23  O4  UNL     1      25.308   2.824  51.227  1.00  0.00    -0.345 OA
HETATM   24  C20 UNL     1      26.355   1.961  51.668  1.00  0.00     0.202 C 
HETATM   25  C19 UNL     1      25.812   0.707  52.288  1.00  0.00     0.202 C 
BRANCH  19  26
HETATM   26  O2  UNL     1      21.882  -0.296  52.193  1.00  0.00    -0.346 OA
BRANCH  26  27
HETATM   27  C3  UNL     1      20.975  -0.300  53.252  1.00  0.00     0.201 C 
BRANCH  27  28
HETATM   28  C2  UNL     1      21.213  -1.462  54.199  1.00  0.00     0.193 C 
BRANCH  28  29
HETATM   29  O1  UNL     1      21.828  -1.079  55.386  1.00  0.00    -0.394 OA
HETATM   30  C1  UNL     1      23.177  -1.415  55.387  1.00  0.00     0.201 C 
ENDBRANCH  28  29
ENDBRANCH  27  28
ENDBRANCH  26  27
ENDBRANCH  19  26
ENDBRANCH  10  12
ENDBRANCH   1  10
TORSDOF 6
ENDMDL
MODEL 8
REMARK VINA RESULT:      -7.8      4.358      6.256
REMARK  6 active torsions:
REMARK  status: ('A' for Active; 'I' for Inactive)
REMARK    1  A    between atoms: O1_2  and  C2_3 
REMARK    2  A    between atoms: C2_3  and  C3_4 
REMARK    3  A    between atoms: C3_4  and  O2_5 
REMARK    4  A    between atoms: O2_5  and  C4_6 
REMARK    5  A    between atoms: C8_12  and  N3_13 
REMARK    6  A    between atoms: N3_13  and  C9_14 
ROOT
HETATM    1  C9  UNL     1      26.912   5.043  48.848  1.00  0.00     0.035 A 
HETATM    2  C10 UNL     1      26.204   6.186  48.647  1.00  0.00     0.032 A 
HETATM    3  C11 UNL     1      26.886   7.270  48.146  1.00  0.00     0.046 A 
HETATM    4  C12 UNL     1      28.232   7.210  47.855  1.00  0.00     0.137 A 
HETATM    5  F1  UNL     1      28.777   8.347  47.367  1.00  0.00    -0.204 F 
HETATM    6  C13 UNL     1      28.958   6.063  48.052  1.00  0.00     0.085 A 
HETATM    7  C14 UNL     1      30.361   6.047  47.717  1.00  0.00     0.102 C 
HETATM    8  N4  UNL     1      31.486   6.047  47.464  1.00  0.00    -0.191 NA
HETATM    9  C15 UNL     1      28.263   4.996  48.553  1.00  0.00     0.055 A 
ENDROOT
BRANCH   1  10
HETATM   10  N3  UNL     1      26.222   3.904  49.345  1.00  0.00    -0.340 N 
HETATM   11  H10 UNL     1      25.517   3.410  48.726  1.00  0.00     0.167 HD
BRANCH  10  12
HETATM   12  C8  UNL     1      26.133   3.090  50.507  1.00  0.00     0.144 A 
HETATM   13  N2  UNL     1      27.235   2.804  51.251  1.00  0.00    -0.223 NA
HETATM   14  C7  UNL     1      27.106   2.005  52.343  1.00  0.00     0.236 A 
HETATM   15  N1  UNL     1      25.911   1.502  52.684  1.00  0.00    -0.241 NA
HETATM   16  C6  UNL     1      24.774   1.732  52.007  1.00  0.00     0.077 A 
HETATM   17  C5  UNL     1      23.571   1.180  52.395  1.00  0.00     0.072 A 
HETATM   18  C16 UNL     1      24.890   2.557  50.878  1.00  0.00     0.075 A 
HETATM   19  C4  UNL     1      22.440   1.440  51.658  1.00  0.00     0.107 A 
HETATM   20  C18 UNL     1      22.513   2.259  50.526  1.00  0.00     0.136 A 
HETATM   21  C17 UNL     1      23.740   2.807  50.150  1.00  0.00     0.121 A 
HETATM   22  O3  UNL     1      21.522   2.657  49.643  1.00  0.00    -0.344 OA
HETATM   23  O4  UNL     1      23.843   3.633  49.016  1.00  0.00    -0.345 OA
HETATM   24  C20 UNL     1      22.770   4.509  48.672  1.00  0.00     0.202 C 
HETATM   25  C19 UNL     1      21.466   4.039  49.248  1.00  0.00     0.202 C 
BRANCH  19  26
HETATM   26  O2  UNL     1      21.187   0.977  51.895  1.00  0.00    -0.346 OA
BRANCH  26  27
HETATM   27  C3  UNL     1      20.786  -0.144  52.622  1.00  0.00     0.201 C 
BRANCH  27  28
HETATM   28  C2  UNL     1      20.463   0.200  54.065  1.00  0.00     0.193 C 
BRANCH  28  29
HETATM   29  O1  UNL     1      21.482  -0.140  54.947  1.00  0.00    -0.394 OA
HETATM   30  C1  UNL     1      21.934  -1.434  54.721  1.00  0.00     0.201 C 
ENDBRANCH  28  29
ENDBRANCH  27  28
ENDBRANCH  26  27
ENDBRANCH  19  26
ENDBRANCH  10  12
ENDBRANCH   1  10
TORSDOF 6
ENDMDL
MODEL 9
REMARK VINA RESULT:      -7.6      4.019      8.411
REMARK  6 active torsions:
REMARK  status: ('A' for Active; 'I' for Inactive)
REMARK    1  A    between atoms: O1_2  and  C2_3 
REMARK    2  A    between atoms: C2_3  and  C3_4 
REMARK    3  A    between atoms: C3_4  and  O2_5 
REMARK    4  A    between atoms: O2_5  and  C4_6 
REMARK    5  A    between atoms: C8_12  and  N3_13 
REMARK    6  A    between atoms: N3_13  and  C9_14 
ROOT
HETATM    1  C9  UNL     1      18.817  -0.209  52.159  1.00  0.00     0.035 A 
HETATM    2  C10 UNL     1      18.130  -1.050  52.977  1.00  0.00     0.032 A 
HETATM    3  C11 UNL     1      16.847  -1.381  52.608  1.00  0.00     0.046 A 
HETATM    4  C12 UNL     1      16.273  -0.887  51.457  1.00  0.00     0.137 A 
HETATM    5  F1  UNL     1      15.007  -1.293  51.213  1.00  0.00    -0.204 F 
HETATM    6  C13 UNL     1      16.954  -0.038  50.622  1.00  0.00     0.085 A 
HETATM    7  C14 UNL     1      16.313   0.440  49.421  1.00  0.00     0.102 C 
HETATM    8  N4  UNL     1      15.788   0.832  48.472  1.00  0.00    -0.191 NA
HETATM    9  C15 UNL     1      18.228   0.281  51.007  1.00  0.00     0.055 A 
ENDROOT
BRANCH   1  10
HETATM   10  N3  UNL     1      20.152   0.128  52.510  1.00  0.00    -0.340 N 
HETATM   11  H10 UNL     1      20.581   1.021  52.133  1.00  0.00     0.167 HD
BRANCH  10  12
HETATM   12  C8  UNL     1      21.244  -0.355  53.280  1.00  0.00     0.144 A 
HETATM   13  N2  UNL     1      21.067  -1.317  54.226  1.00  0.00    -0.223 NA
HETATM   14  C7  UNL     1      22.136  -1.735  54.954  1.00  0.00     0.236 A 
HETATM   15  N1  UNL     1      23.351  -1.208  54.746  1.00  0.00    -0.241 NA
HETATM   16  C6  UNL     1      23.616  -0.257  53.835  1.00  0.00     0.077 A 
HETATM   17  C5  UNL     1      24.884   0.259  53.669  1.00  0.00     0.072 A 
HETATM   18  C16 UNL     1      22.522   0.184  53.075  1.00  0.00     0.075 A 
HETATM   19  C4  UNL     1      25.096   1.240  52.729  1.00  0.00     0.107 A 
HETATM   20  C18 UNL     1      24.032   1.706  51.950  1.00  0.00     0.136 A 
HETATM   21  C17 UNL     1      22.757   1.171  52.134  1.00  0.00     0.121 A 
HETATM   22  O3  UNL     1      24.006   2.672  50.955  1.00  0.00    -0.344 OA
HETATM   23  O4  UNL     1      21.669   1.622  51.364  1.00  0.00    -0.345 OA
HETATM   24  C20 UNL     1      21.867   2.003  50.003  1.00  0.00     0.202 C 
HETATM   25  C19 UNL     1      23.293   2.387  49.739  1.00  0.00     0.202 C 
BRANCH  19  26
HETATM   26  O2  UNL     1      26.271   1.856  52.443  1.00  0.00    -0.346 OA
BRANCH  26  27
HETATM   27  C3  UNL     1      27.574   1.417  52.674  1.00  0.00     0.201 C 
BRANCH  27  28
HETATM   28  C2  UNL     1      28.345   2.370  53.568  1.00  0.00     0.193 C 
BRANCH  28  29
HETATM   29  O1  UNL     1      29.045   1.721  54.579  1.00  0.00    -0.394 OA
HETATM   30  C1  UNL     1      28.553   0.439  54.792  1.00  0.00     0.201 C 
ENDBRANCH  28  29
ENDBRANCH  27  28
ENDBRANCH  26  27
ENDBRANCH  19  26
ENDBRANCH  10  12
ENDBRANCH   1  10
TORSDOF 6
ENDMDL
