MODEL 1
REMARK VINA RESULT:      -7.6      0.000      0.000
REMARK  3 active torsions:
REMARK  status: ('A' for Active; 'I' for Inactive)
REMARK    1  A    between atoms: O1_2  and  C2_3 
REMARK    2  A    between atoms: C4_5  and  N1_6 
REMARK    3  A    between atoms: N1_6  and  C5_7 
ROOT
HETATM    1  C2  UNL     1      22.543   0.543  52.109  1.00  0.00     0.072 C 
HETATM    2  C3  UNL     1      22.776   1.503  51.190  1.00  0.00     0.037 C 
HETATM    3  C4  UNL     1      24.168   2.088  51.144  1.00  0.00     0.134 C 
HETATM    4  C11 UNL     1      24.556   2.511  52.492  1.00  0.00     0.129 C 
HETATM    5  C12 UNL     1      24.042   3.763  52.961  1.00  0.00     0.076 C 
HETATM    6  N2  UNL     1      23.649   4.770  53.342  1.00  0.00    -0.196 NA
HETATM    7  C13 UNL     1      25.257   1.504  52.919  1.00  0.00     0.263 C 
HETATM    8  N3  UNL     1      26.051   0.766  53.858  1.00  0.00     0.032 NA
HETATM    9  C14 UNL     1      25.514  -0.299  54.433  1.00  0.00     0.687 C 
HETATM   10  C15 UNL     1      24.193  -0.366  53.854  1.00  0.00     0.022 C 
HETATM   11  C16 UNL     1      23.074  -0.248  53.185  1.00  0.00    -0.030 C 
HETATM   12  C17 UNL     1      22.180  -1.279  53.817  1.00  0.00     0.050 C 
ENDROOT
BRANCH   3  13
HETATM   13  N1  UNL     1      24.050   3.328  50.335  1.00  0.00    -0.380 N 
HETATM   14  H6  UNL     1      23.092   3.755  50.143  1.00  0.00     0.160 HD
BRANCH  13  15
HETATM   15  C5  UNL     1      25.122   4.075  49.741  1.00  0.00     0.029 A 
HETATM   16  C6  UNL     1      26.403   3.556  49.566  1.00  0.00     0.029 A 
HETATM   17  C7  UNL     1      27.373   4.342  48.985  1.00  0.00     0.004 A 
HETATM   18  C8  UNL     1      27.147   5.638  48.560  1.00  0.00     0.019 A 
HETATM   19  C9  UNL     1      25.862   6.169  48.732  1.00  0.00     0.013 A 
HETATM   20 BR1  UNL     1      25.548   7.956  48.144  1.00  0.00    -0.051 Br
HETATM   21  C10 UNL     1      24.901   5.370  49.314  1.00  0.00     0.048 A 
ENDBRANCH  13  15
ENDBRANCH   3  13
BRANCH   1  22
HETATM   22  O1  UNL     1      21.205   0.256  51.845  1.00  0.00    -0.356 OA
HETATM   23  C1  UNL     1      20.680   0.666  50.598  1.00  0.00     0.210 C 
ENDBRANCH   1  22
TORSDOF 3
ENDMDL
MODEL 2
REMARK VINA RESULT:      -7.4      3.397      6.726
REMARK  3 active torsions:
REMARK  status: ('A' for Active; 'I' for Inactive)
REMARK    1  A    between atoms: O1_2  and  C2_3 
REMARK    2  A    between atoms: C4_5  and  N1_6 
REMARK    3  A    between atoms: N1_6  and  C5_7 
ROOT
HETATM    1  C2  UNL     1      24.459   6.300  50.596  1.00  0.00     0.072 C 
HETATM    2  C3  UNL     1      23.863   5.311  51.293  1.00  0.00     0.037 C 
HETATM    3  C4  UNL     1      24.521   3.951  51.259  1.00  0.00     0.134 C 
HETATM    4  C11 UNL     1      24.763   3.572  49.865  1.00  0.00     0.129 C 
HETATM    5  C12 UNL     1      23.652   3.057  49.121  1.00  0.00     0.076 C 
HETATM    6  N2  UNL     1      22.775   2.631  48.519  1.00  0.00    -0.196 NA
HETATM    7  C13 UNL     1      26.006   3.907  49.687  1.00  0.00     0.263 C 
HETATM    8  N3  UNL     1      27.231   4.054  48.955  1.00  0.00     0.032 NA
HETATM    9  C14 UNL     1      27.609   5.273  48.606  1.00  0.00     0.687 C 
HETATM   10  C15 UNL     1      26.568   6.118  49.142  1.00  0.00     0.022 C 
HETATM   11  C16 UNL     1      25.543   6.680  49.733  1.00  0.00    -0.030 C 
HETATM   12  C17 UNL     1      25.643   8.119  49.308  1.00  0.00     0.050 C 
ENDROOT
BRANCH   3  13
HETATM   13  N1  UNL     1      23.500   3.005  51.778  1.00  0.00    -0.380 N 
HETATM   14  H6  UNL     1      22.463   3.192  51.618  1.00  0.00     0.160 HD
BRANCH  13  15
HETATM   15  C5  UNL     1      23.742   1.795  52.513  1.00  0.00     0.029 A 
HETATM   16  C6  UNL     1      25.021   1.324  52.799  1.00  0.00     0.029 A 
HETATM   17  C7  UNL     1      25.162   0.154  53.511  1.00  0.00     0.004 A 
HETATM   18  C8  UNL     1      24.091  -0.593  53.966  1.00  0.00     0.019 A 
HETATM   19  C9  UNL     1      22.800  -0.126  53.683  1.00  0.00     0.013 A 
HETATM   20 BR1  UNL     1      21.321  -1.154  54.312  1.00  0.00    -0.051 Br
HETATM   21  C10 UNL     1      22.674   1.047  52.969  1.00  0.00     0.048 A 
ENDBRANCH  13  15
ENDBRANCH   3  13
BRANCH   1  22
HETATM   22  O1  UNL     1      23.599   7.361  50.871  1.00  0.00    -0.356 OA
HETATM   23  C1  UNL     1      22.212   7.143  50.701  1.00  0.00     0.210 C 
ENDBRANCH   1  22
TORSDOF 3
ENDMDL
MODEL 3
REMARK VINA RESULT:      -7.1      3.334      6.296
REMARK  3 active torsions:
REMARK  status: ('A' for Active; 'I' for Inactive)
REMARK    1  A    between atoms: O1_2  and  C2_3 
REMARK    2  A    between atoms: C4_5  and  N1_6 
REMARK    3  A    between atoms: N1_6  and  C5_7 
ROOT
HETATM    1  C2  UNL     1      23.176   4.181  48.654  1.00  0.00     0.072 C 
HETATM    2  C3  UNL     1      23.962   3.260  49.248  1.00  0.00     0.037 C 
HETATM    3  C4  UNL     1      24.797   3.720  50.421  1.00  0.00     0.134 C 
HETATM    4  C11 UNL     1      25.549   4.916  50.033  1.00  0.00     0.129 C 
HETATM    5  C12 UNL     1      26.738   4.723  49.258  1.00  0.00     0.076 C 
HETATM    6  N2  UNL     1      27.699   4.581  48.650  1.00  0.00    -0.196 NA
HETATM    7  C13 UNL     1      24.811   5.882  50.493  1.00  0.00     0.263 C 
HETATM    8  N3  UNL     1      24.451   7.246  50.752  1.00  0.00     0.032 NA
HETATM    9  C14 UNL     1      23.435   7.764  50.080  1.00  0.00     0.687 C 
HETATM   10  C15 UNL     1      22.987   6.673  49.248  1.00  0.00     0.022 C 
HETATM   11  C16 UNL     1      22.740   5.550  48.620  1.00  0.00    -0.030 C 
HETATM   12  C17 UNL     1      21.695   5.938  47.611  1.00  0.00     0.050 C 
ENDROOT
BRANCH   3  13
HETATM   13  N1  UNL     1      25.801   2.647  50.637  1.00  0.00    -0.380 N 
HETATM   14  H6  UNL     1      26.639   2.555  49.983  1.00  0.00     0.160 HD
BRANCH  13  15
HETATM   15  C5  UNL     1      25.793   1.656  51.675  1.00  0.00     0.029 A 
HETATM   16  C6  UNL     1      24.620   1.153  52.235  1.00  0.00     0.029 A 
HETATM   17  C7  UNL     1      24.703   0.202  53.226  1.00  0.00     0.004 A 
HETATM   18  C8  UNL     1      25.902  -0.292  53.709  1.00  0.00     0.019 A 
HETATM   19  C9  UNL     1      27.087   0.208  53.151  1.00  0.00     0.013 A 
HETATM   20 BR1  UNL     1      28.741  -0.473  53.813  1.00  0.00    -0.051 Br
HETATM   21  C10 UNL     1      26.988   1.160  52.159  1.00  0.00     0.048 A 
ENDBRANCH  13  15
ENDBRANCH   3  13
BRANCH   1  22
HETATM   22  O1  UNL     1      22.577   3.405  47.663  1.00  0.00    -0.356 OA
HETATM   23  C1  UNL     1      22.300   2.053  47.968  1.00  0.00     0.210 C 
ENDBRANCH   1  22
TORSDOF 3
ENDMDL
MODEL 4
REMARK VINA RESULT:      -7.1      2.142      3.458
REMARK  3 active torsions:
REMARK  status: ('A' for Active; 'I' for Inactive)
REMARK    1  A    between atoms: O1_2  and  C2_3 
REMARK    2  A    between atoms: C4_5  and  N1_6 
REMARK    3  A    between atoms: N1_6  and  C5_7 
ROOT
HETATM    1  C2  UNL     1      24.286   1.070  52.376  1.00  0.00     0.072 C 
HETATM    2  C3  UNL     1      24.459   2.103  51.525  1.00  0.00     0.037 C 
HETATM    3  C4  UNL     1      23.272   3.009  51.291  1.00  0.00     0.134 C 
HETATM    4  C11 UNL     1      22.109   2.193  50.936  1.00  0.00     0.129 C 
HETATM    5  C12 UNL     1      22.022   1.725  49.584  1.00  0.00     0.076 C 
HETATM    6  N2  UNL     1      21.934   1.356  48.503  1.00  0.00    -0.196 NA
HETATM    7  C13 UNL     1      21.485   2.073  52.069  1.00  0.00     0.263 C 
HETATM    8  N3  UNL     1      20.442   1.631  52.949  1.00  0.00     0.032 NA
HETATM    9  C14 UNL     1      20.728   0.693  53.839  1.00  0.00     0.687 C 
HETATM   10  C15 UNL     1      22.127   0.420  53.605  1.00  0.00     0.022 C 
HETATM   11  C16 UNL     1      23.383   0.361  53.241  1.00  0.00    -0.030 C 
HETATM   12  C17 UNL     1      23.914  -0.816  54.010  1.00  0.00     0.050 C 
ENDROOT
BRANCH   3  13
HETATM   13  N1  UNL     1      23.612   3.801  50.081  1.00  0.00    -0.380 N 
HETATM   14  H6  UNL     1      23.266   3.492  49.121  1.00  0.00     0.160 HD
BRANCH  13  15
HETATM   15  C5  UNL     1      24.393   5.005  50.031  1.00  0.00     0.029 A 
HETATM   16  C6  UNL     1      24.010   6.184  50.668  1.00  0.00     0.029 A 
HETATM   17  C7  UNL     1      24.820   7.293  50.570  1.00  0.00     0.004 A 
HETATM   18  C8  UNL     1      26.010   7.306  49.864  1.00  0.00     0.019 A 
HETATM   19  C9  UNL     1      26.402   6.125  49.220  1.00  0.00     0.013 A 
HETATM   20 BR1  UNL     1      28.043   6.141  48.249  1.00  0.00    -0.051 Br
HETATM   21  C10 UNL     1      25.581   5.022  49.328  1.00  0.00     0.048 A 
ENDBRANCH  13  15
ENDBRANCH   3  13
BRANCH   1  22
HETATM   22  O1  UNL     1      25.555   0.496  52.342  1.00  0.00    -0.356 OA
HETATM   23  C1  UNL     1      26.649   1.337  52.035  1.00  0.00     0.210 C 
ENDBRANCH   1  22
TORSDOF 3
ENDMDL
MODEL 5
REMARK VINA RESULT:      -6.9      1.989      2.692
REMARK  3 active torsions:
REMARK  status: ('A' for Active; 'I' for Inactive)
REMARK    1  A    between atoms: O1_2  and  C2_3 
REMARK    2  A    between atoms: C4_5  and  N1_6 
REMARK    3  A    between atoms: N1_6  and  C5_7 
ROOT
HETATM    1  C2  UNL     1      22.834   2.433  49.674  1.00  0.00     0.072 C 
HETATM    2  C3  UNL     1      23.533   3.389  49.028  1.00  0.00     0.037 C 
HETATM    3  C4  UNL     1      24.797   3.884  49.691  1.00  0.00     0.134 C 
HETATM    4  C11 UNL     1      24.496   4.263  51.073  1.00  0.00     0.129 C 
HETATM    5  C12 UNL     1      23.881   5.540  51.286  1.00  0.00     0.076 C 
HETATM    6  N2  UNL     1      23.401   6.564  51.471  1.00  0.00    -0.196 NA
HETATM    7  C13 UNL     1      24.848   3.208  51.744  1.00  0.00     0.263 C 
HETATM    8  N3  UNL     1      25.045   2.408  52.919  1.00  0.00     0.032 NA
HETATM    9  C14 UNL     1      24.244   1.372  53.113  1.00  0.00     0.687 C 
HETATM   10  C15 UNL     1      23.373   1.397  51.961  1.00  0.00     0.022 C 
HETATM   11  C16 UNL     1      22.731   1.596  50.837  1.00  0.00    -0.030 C 
HETATM   12  C17 UNL     1      21.593   0.616  50.908  1.00  0.00     0.050 C 
ENDROOT
BRANCH   3  13
HETATM   13  N1  UNL     1      25.150   5.140  48.980  1.00  0.00    -0.380 N 
HETATM   14  H6  UNL     1      24.386   5.817  48.673  1.00  0.00     0.160 HD
BRANCH  13  15
HETATM   15  C5  UNL     1      26.468   5.592  48.633  1.00  0.00     0.029 A 
HETATM   16  C6  UNL     1      27.592   4.772  48.696  1.00  0.00     0.029 A 
HETATM   17  C7  UNL     1      28.819   5.287  48.342  1.00  0.00     0.004 A 
HETATM   18  C8  UNL     1      29.005   6.592  47.924  1.00  0.00     0.019 A 
HETATM   19  C9  UNL     1      27.879   7.424  47.858  1.00  0.00     0.013 A 
HETATM   20 BR1  UNL     1      28.132   9.223  47.277  1.00  0.00    -0.051 Br
HETATM   21  C10 UNL     1      26.657   6.894  48.214  1.00  0.00     0.048 A 
ENDBRANCH  13  15
ENDBRANCH   3  13
BRANCH   1  22
HETATM   22  O1  UNL     1      21.783   2.236  48.779  1.00  0.00    -0.356 OA
HETATM   23  C1  UNL     1      22.105   2.100  47.409  1.00  0.00     0.210 C 
ENDBRANCH   1  22
TORSDOF 3
ENDMDL
MODEL 6
REMARK VINA RESULT:      -6.7      2.355      2.883
REMARK  3 active torsions:
REMARK  status: ('A' for Active; 'I' for Inactive)
REMARK    1  A    between atoms: O1_2  and  C2_3 
REMARK    2  A    between atoms: C4_5  and  N1_6 
REMARK    3  A    between atoms: N1_6  and  C5_7 
ROOT
HETATM    1  C2  UNL     1      23.091   0.044  53.514  1.00  0.00     0.072 C 
HETATM    2  C3  UNL     1      22.384   0.734  52.595  1.00  0.00     0.037 C 
HETATM    3  C4  UNL     1      23.160   1.378  51.470  1.00  0.00     0.134 C 
HETATM    4  C11 UNL     1      24.250   2.177  52.037  1.00  0.00     0.129 C 
HETATM    5  C12 UNL     1      23.917   3.471  52.553  1.00  0.00     0.076 C 
HETATM    6  N2  UNL     1      23.666   4.513  52.957  1.00  0.00    -0.196 NA
HETATM    7  C13 UNL     1      25.268   1.374  51.953  1.00  0.00     0.263 C 
HETATM    8  N3  UNL     1      26.638   0.975  52.108  1.00  0.00     0.032 NA
HETATM    9  C14 UNL     1      26.926   0.072  53.032  1.00  0.00     0.687 C 
HETATM   10  C15 UNL     1      25.641  -0.241  53.612  1.00  0.00     0.022 C 
HETATM   11  C16 UNL     1      24.387  -0.386  53.961  1.00  0.00    -0.030 C 
HETATM   12  C17 UNL     1      24.463  -1.266  55.177  1.00  0.00     0.050 C 
ENDROOT
BRANCH   3  13
HETATM   13  N1  UNL     1      22.220   2.341  50.842  1.00  0.00    -0.380 N 
HETATM   14  H6  UNL     1      21.431   2.774  51.414  1.00  0.00     0.160 HD
BRANCH  13  15
HETATM   15  C5  UNL     1      22.234   2.795  49.479  1.00  0.00     0.029 A 
HETATM   16  C6  UNL     1      21.945   1.964  48.400  1.00  0.00     0.029 A 
HETATM   17  C7  UNL     1      21.980   2.483  47.125  1.00  0.00     0.004 A 
HETATM   18  C8  UNL     1      22.292   3.801  46.849  1.00  0.00     0.019 A 
HETATM   19  C9  UNL     1      22.584   4.645  47.929  1.00  0.00     0.013 A 
HETATM   20 BR1  UNL     1      23.011   6.465  47.550  1.00  0.00    -0.051 Br
HETATM   21  C10 UNL     1      22.544   4.112  49.200  1.00  0.00     0.048 A 
ENDBRANCH  13  15
ENDBRANCH   3  13
BRANCH   1  22
HETATM   22  O1  UNL     1      22.065  -0.394  54.349  1.00  0.00    -0.356 OA
HETATM   23  C1  UNL     1      20.805   0.234  54.226  1.00  0.00     0.210 C 
ENDBRANCH   1  22
TORSDOF 3
ENDMDL
MODEL 7
REMARK VINA RESULT:      -6.7      2.342      3.742
REMARK  3 active torsions:
REMARK  status: ('A' for Active; 'I' for Inactive)
REMARK    1  A    between atoms: O1_2  and  C2_3 
REMARK    2  A    between atoms: C4_5  and  N1_6 
REMARK    3  A    between atoms: N1_6  and  C5_7 
ROOT
HETATM    1  C2  UNL     1      25.568   2.154  51.428  1.00  0.00     0.072 C 
HETATM    2  C3  UNL     1      24.792   3.168  50.994  1.00  0.00     0.037 C 
HETATM    3  C4  UNL     1      23.365   3.205  51.491  1.00  0.00     0.134 C 
HETATM    4  C11 UNL     1      22.743   1.899  51.258  1.00  0.00     0.129 C 
HETATM    5  C12 UNL     1      22.278   1.619  49.932  1.00  0.00     0.076 C 
HETATM    6  N2  UNL     1      21.889   1.389  48.880  1.00  0.00    -0.196 NA
HETATM    7  C13 UNL     1      22.871   1.310  52.409  1.00  0.00     0.263 C 
HETATM    8  N3  UNL     1      22.731   0.242  53.357  1.00  0.00     0.032 NA
HETATM    9  C14 UNL     1      23.817  -0.427  53.711  1.00  0.00     0.687 C 
HETATM   10  C15 UNL     1      24.871   0.216  52.962  1.00  0.00     0.022 C 
HETATM   11  C16 UNL     1      25.655   0.959  52.222  1.00  0.00    -0.030 C 
HETATM   12  C17 UNL     1      26.982   0.258  52.307  1.00  0.00     0.050 C 
ENDROOT
BRANCH   3  13
HETATM   13  N1  UNL     1      22.662   4.167  50.604  1.00  0.00    -0.380 N 
HETATM   14  H6  UNL     1      21.745   3.893  50.134  1.00  0.00     0.160 HD
BRANCH  13  15
HETATM   15  C5  UNL     1      23.080   5.501  50.276  1.00  0.00     0.029 A 
HETATM   16  C6  UNL     1      23.381   6.460  51.241  1.00  0.00     0.029 A 
HETATM   17  C7  UNL     1      23.776   7.716  50.839  1.00  0.00     0.004 A 
HETATM   18  C8  UNL     1      23.893   8.088  49.512  1.00  0.00     0.019 A 
HETATM   19  C9  UNL     1      23.593   7.129  48.534  1.00  0.00     0.013 A 
HETATM   20 BR1  UNL     1      23.757   7.639  46.704  1.00  0.00    -0.051 Br
HETATM   21  C10 UNL     1      23.199   5.875  48.953  1.00  0.00     0.048 A 
ENDBRANCH  13  15
ENDBRANCH   3  13
BRANCH   1  22
HETATM   22  O1  UNL     1      26.768   2.459  50.788  1.00  0.00    -0.356 OA
HETATM   23  C1  UNL     1      26.722   3.366  49.705  1.00  0.00     0.210 C 
ENDBRANCH   1  22
TORSDOF 3
ENDMDL
MODEL 8
REMARK VINA RESULT:      -6.6      3.438      5.237
REMARK  3 active torsions:
REMARK  status: ('A' for Active; 'I' for Inactive)
REMARK    1  A    between atoms: O1_2  and  C2_3 
REMARK    2  A    between atoms: C4_5  and  N1_6 
REMARK    3  A    between atoms: N1_6  and  C5_7 
ROOT
HETATM    1  C2  UNL     1      23.147  -0.088  53.823  1.00  0.00     0.072 C 
HETATM    2  C3  UNL     1      22.270   0.513  52.993  1.00  0.00     0.037 C 
HETATM    3  C4  UNL     1      22.823   1.100  51.715  1.00  0.00     0.134 C 
HETATM    4  C11 UNL     1      23.957   1.969  52.039  1.00  0.00     0.129 C 
HETATM    5  C12 UNL     1      23.660   3.286  52.520  1.00  0.00     0.076 C 
HETATM    6  N2  UNL     1      23.437   4.346  52.892  1.00  0.00    -0.196 NA
HETATM    7  C13 UNL     1      24.980   1.194  51.838  1.00  0.00     0.263 C 
HETATM    8  N3  UNL     1      26.372   0.848  51.788  1.00  0.00     0.032 NA
HETATM    9  C14 UNL     1      26.845   0.021  52.707  1.00  0.00     0.687 C 
HETATM   10  C15 UNL     1      25.688  -0.289  53.513  1.00  0.00     0.022 C 
HETATM   11  C16 UNL     1      24.516  -0.447  54.074  1.00  0.00    -0.030 C 
HETATM   12  C17 UNL     1      24.827  -1.236  55.315  1.00  0.00     0.050 C 
ENDROOT
BRANCH   3  13
HETATM   13  N1  UNL     1      21.753   1.988  51.192  1.00  0.00    -0.380 N 
HETATM   14  H6  UNL     1      21.997   2.946  50.792  1.00  0.00     0.160 HD
BRANCH  13  15
HETATM   15  C5  UNL     1      20.345   1.707  51.150  1.00  0.00     0.029 A 
HETATM   16  C6  UNL     1      19.833   0.435  50.909  1.00  0.00     0.029 A 
HETATM   17  C7  UNL     1      18.468   0.254  50.888  1.00  0.00     0.004 A 
HETATM   18  C8  UNL     1      17.561   1.279  51.092  1.00  0.00     0.019 A 
HETATM   19  C9  UNL     1      18.069   2.562  51.335  1.00  0.00     0.013 A 
HETATM   20 BR1  UNL     1      16.821   3.976  51.621  1.00  0.00    -0.051 Br
HETATM   21  C10 UNL     1      19.438   2.728  51.354  1.00  0.00     0.048 A 
ENDBRANCH  13  15
ENDBRANCH   3  13
BRANCH   1  22
HETATM   22  O1  UNL     1      22.291  -0.498  54.844  1.00  0.00    -0.356 OA
HETATM   23  C1  UNL     1      21.150  -1.250  54.482  1.00  0.00     0.210 C 
ENDBRANCH   1  22
TORSDOF 3
ENDMDL
MODEL 9
REMARK VINA RESULT:      -6.6      6.554     10.228
REMARK  3 active torsions:
REMARK  status: ('A' for Active; 'I' for Inactive)
REMARK    1  A    between atoms: O1_2  and  C2_3 
REMARK    2  A    between atoms: C4_5  and  N1_6 
REMARK    3  A    between atoms: N1_6  and  C5_7 
ROOT
HETATM    1  C2  UNL     1      33.187   4.116  46.787  1.00  0.00     0.072 C 
HETATM    2  C3  UNL     1      32.083   4.292  47.543  1.00  0.00     0.037 C 
HETATM    3  C4  UNL     1      31.158   5.423  47.157  1.00  0.00     0.134 C 
HETATM    4  C11 UNL     1      31.938   6.656  47.028  1.00  0.00     0.129 C 
HETATM    5  C12 UNL     1      32.283   7.346  48.235  1.00  0.00     0.076 C 
HETATM    6  N2  UNL     1      32.554   7.914  49.193  1.00  0.00    -0.196 NA
HETATM    7  C13 UNL     1      32.157   6.725  45.749  1.00  0.00     0.263 C 
HETATM    8  N3  UNL     1      32.675   7.294  44.538  1.00  0.00     0.032 NA
HETATM    9  C14 UNL     1      33.688   6.685  43.943  1.00  0.00     0.687 C 
HETATM   10  C15 UNL     1      33.942   5.543  44.790  1.00  0.00     0.022 C 
HETATM   11  C16 UNL     1      33.969   4.576  45.673  1.00  0.00    -0.030 C 
HETATM   12  C17 UNL     1      35.211   3.810  45.312  1.00  0.00     0.050 C 
ENDROOT
BRANCH   3  13
HETATM   13  N1  UNL     1      30.262   5.616  48.326  1.00  0.00    -0.380 N 
HETATM   14  H6  UNL     1      30.641   5.515  49.317  1.00  0.00     0.160 HD
BRANCH  13  15
HETATM   15  C5  UNL     1      28.863   5.942  48.294  1.00  0.00     0.029 A 
HETATM   16  C6  UNL     1      27.872   5.074  48.746  1.00  0.00     0.029 A 
HETATM   17  C7  UNL     1      26.554   5.468  48.681  1.00  0.00     0.004 A 
HETATM   18  C8  UNL     1      26.151   6.694  48.185  1.00  0.00     0.019 A 
HETATM   19  C9  UNL     1      27.142   7.574  47.728  1.00  0.00     0.013 A 
HETATM   20 BR1  UNL     1      26.587   9.267  47.046  1.00  0.00    -0.051 Br
HETATM   21  C10 UNL     1      28.457   7.166  47.800  1.00  0.00     0.048 A 
ENDBRANCH  13  15
ENDBRANCH   3  13
BRANCH   1  22
HETATM   22  O1  UNL     1      33.758   3.015  47.422  1.00  0.00    -0.356 OA
HETATM   23  C1  UNL     1      32.928   1.899  47.676  1.00  0.00     0.210 C 
ENDBRANCH   1  22
TORSDOF 3
ENDMDL
