MODEL 1
REMARK VINA RESULT:      -8.5      0.000      0.000
REMARK  2 active torsions:
REMARK  status: ('A' for Active; 'I' for Inactive)
REMARK    1  A    between atoms: C8_10  and  N3_11 
REMARK    2  A    between atoms: N3_11  and  C9_12 
ROOT
HETATM    1  C1  UNL     1      26.727  -1.488  52.334  1.00  0.00     0.042 C 
HETATM    2  C2  UNL     1      27.137  -1.010  53.688  1.00  0.00     0.215 A 
HETATM    3  C3  UNL     1      28.687  -0.729  53.519  1.00  0.00     0.043 C 
HETATM    4  C4  UNL     1      28.606   0.342  54.724  1.00  0.00     0.036 C 
HETATM    5  C5  UNL     1      29.034   1.592  54.099  1.00  0.00     0.038 C 
HETATM    6  C6  UNL     1      28.319   2.617  53.400  1.00  0.00     0.269 C 
HETATM    7  N1  UNL     1      27.543   2.625  52.182  1.00  0.00     0.073 N 
HETATM    8  C7  UNL     1      26.153   2.612  51.640  1.00  0.00     0.426 A 
HETATM    9  N2  UNL     1      24.886   2.258  51.576  1.00  0.00    -0.203 NA
HETATM   10  C8  UNL     1      24.121   1.380  52.216  1.00  0.00     0.144 A 
HETATM   11  C15 UNL     1      24.667   0.446  53.352  1.00  0.00     0.099 A 
HETATM   12  C16 UNL     1      25.850   1.006  53.170  1.00  0.00     0.257 A 
HETATM   13  N4  UNL     1      26.581   1.830  52.575  1.00  0.00    -0.115 N 
HETATM   14  N5  UNL     1      26.551   0.407  54.001  1.00  0.00     0.024 N 
HETATM   15  C17 UNL     1      27.215  -0.169  54.797  1.00  0.00     0.224 A 
HETATM   16  P1  UNL     1      25.328  -0.693  54.736  1.00  0.00     0.190 P 
HETATM   17  H12 UNL     1      27.652   2.683  51.093  1.00  0.00     0.315 HD
ENDROOT
BRANCH  10  18
HETATM   18  N3  UNL     1      22.821   0.858  52.286  1.00  0.00    -0.340 N 
HETATM   19  H13 UNL     1      22.326   0.300  53.014  1.00  0.00     0.167 HD
BRANCH  18  20
HETATM   20  C9  UNL     1      22.003   1.108  51.166  1.00  0.00     0.035 A 
HETATM   21  C10 UNL     1      20.638   0.934  51.244  1.00  0.00     0.029 A 
HETATM   22  C11 UNL     1      19.737   1.148  50.233  1.00  0.00     0.004 A 
HETATM   23  C12 UNL     1      20.216   1.590  48.979  1.00  0.00     0.024 A 
HETATM   24  C13 UNL     1      21.605   1.784  48.838  1.00  0.00     0.036 A 
HETATM   25 CL1  UNL     1      22.447   2.326  47.414  1.00  0.00    -0.084 Cl
HETATM   26  C14 UNL     1      22.398   1.532  49.934  1.00  0.00     0.053 A 
ENDBRANCH  18  20
ENDBRANCH  10  18
TORSDOF 2
ENDMDL
MODEL 2
REMARK VINA RESULT:      -8.4      2.388      6.652
REMARK  2 active torsions:
REMARK  status: ('A' for Active; 'I' for Inactive)
REMARK    1  A    between atoms: C8_10  and  N3_11 
REMARK    2  A    between atoms: N3_11  and  C9_12 
ROOT
HETATM    1  C1  UNL     1      21.203   3.302  52.299  1.00  0.00     0.042 C 
HETATM    2  C2  UNL     1      20.988   1.982  51.635  1.00  0.00     0.215 A 
HETATM    3  C3  UNL     1      20.080   2.346  50.390  1.00  0.00     0.043 C 
HETATM    4  C4  UNL     1      20.642   1.042  49.622  1.00  0.00     0.036 C 
HETATM    5  C5  UNL     1      21.273   1.595  48.425  1.00  0.00     0.038 C 
HETATM    6  C6  UNL     1      22.596   2.078  48.167  1.00  0.00     0.269 C 
HETATM    7  N1  UNL     1      23.376   3.163  48.713  1.00  0.00     0.073 N 
HETATM    8  C7  UNL     1      24.470   3.496  49.672  1.00  0.00     0.426 A 
HETATM    9  N2  UNL     1      25.165   3.409  50.788  1.00  0.00    -0.203 NA
HETATM   10  C8  UNL     1      25.023   2.754  51.936  1.00  0.00     0.144 A 
HETATM   11  C15 UNL     1      23.807   1.808  52.230  1.00  0.00     0.099 A 
HETATM   12  C16 UNL     1      23.354   2.104  51.024  1.00  0.00     0.257 A 
HETATM   13  N4  UNL     1      23.476   2.715  49.938  1.00  0.00    -0.115 N 
HETATM   14  N5  UNL     1      22.302   1.448  50.975  1.00  0.00     0.024 N 
HETATM   15  C17 UNL     1      21.297   0.818  50.934  1.00  0.00     0.224 A 
HETATM   16  P1  UNL     1      22.327   0.655  52.592  1.00  0.00     0.190 P 
HETATM   17  H12 UNL     1      23.526   4.246  48.624  1.00  0.00     0.315 HD
ENDROOT
BRANCH  10  18
HETATM   18  N3  UNL     1      25.606   2.548  53.195  1.00  0.00    -0.340 N 
HETATM   19  H13 UNL     1      25.417   2.962  54.132  1.00  0.00     0.167 HD
BRANCH  18  20
HETATM   20  C9  UNL     1      26.663   1.617  53.232  1.00  0.00     0.035 A 
HETATM   21  C10 UNL     1      27.934   2.015  53.587  1.00  0.00     0.029 A 
HETATM   22  C11 UNL     1      29.040   1.209  53.667  1.00  0.00     0.004 A 
HETATM   23  C12 UNL     1      28.903  -0.165  53.365  1.00  0.00     0.024 A 
HETATM   24  C13 UNL     1      27.625  -0.630  52.993  1.00  0.00     0.036 A 
HETATM   25 CL1  UNL     1      27.186  -2.264  52.581  1.00  0.00    -0.084 Cl
HETATM   26  C14 UNL     1      26.599   0.286  52.953  1.00  0.00     0.053 A 
ENDBRANCH  18  20
ENDBRANCH  10  18
TORSDOF 2
ENDMDL
MODEL 3
REMARK VINA RESULT:      -8.4      2.930      7.060
REMARK  2 active torsions:
REMARK  status: ('A' for Active; 'I' for Inactive)
REMARK    1  A    between atoms: C8_10  and  N3_11 
REMARK    2  A    between atoms: N3_11  and  C9_12 
ROOT
HETATM    1  C1  UNL     1      23.222   2.885  49.231  1.00  0.00     0.042 C 
HETATM    2  C2  UNL     1      22.443   3.999  49.849  1.00  0.00     0.215 A 
HETATM    3  C3  UNL     1      20.940   3.601  49.548  1.00  0.00     0.043 C 
HETATM    4  C4  UNL     1      20.475   4.456  50.837  1.00  0.00     0.036 C 
HETATM    5  C5  UNL     1      19.823   3.462  51.688  1.00  0.00     0.038 C 
HETATM    6  C6  UNL     1      20.322   2.577  52.697  1.00  0.00     0.269 C 
HETATM    7  N1  UNL     1      21.274   1.492  52.676  1.00  0.00     0.073 N 
HETATM    8  C7  UNL     1      22.682   1.119  53.000  1.00  0.00     0.426 A 
HETATM    9  N2  UNL     1      23.986   1.287  53.085  1.00  0.00    -0.203 NA
HETATM   10  C8  UNL     1      24.842   2.224  52.690  1.00  0.00     0.144 A 
HETATM   11  C15 UNL     1      24.393   3.517  51.923  1.00  0.00     0.099 A 
HETATM   12  C16 UNL     1      23.153   3.064  51.997  1.00  0.00     0.257 A 
HETATM   13  N4  UNL     1      22.337   2.190  52.364  1.00  0.00    -0.115 N 
HETATM   14  N5  UNL     1      22.517   3.955  51.411  1.00  0.00     0.024 N 
HETATM   15  C17 UNL     1      21.916   4.811  50.852  1.00  0.00     0.224 A 
HETATM   16  P1  UNL     1      23.849   5.092  50.989  1.00  0.00     0.190 P 
HETATM   17  H12 UNL     1      21.358   0.425  52.436  1.00  0.00     0.315 HD
ENDROOT
BRANCH  10  18
HETATM   18  N3  UNL     1      26.201   2.570  52.663  1.00  0.00    -0.340 N 
HETATM   19  H13 UNL     1      26.695   3.459  52.440  1.00  0.00     0.167 HD
BRANCH  18  20
HETATM   20  C9  UNL     1      27.100   1.534  52.986  1.00  0.00     0.035 A 
HETATM   21  C10 UNL     1      28.275   1.809  53.653  1.00  0.00     0.029 A 
HETATM   22  C11 UNL     1      29.224   0.894  54.027  1.00  0.00     0.004 A 
HETATM   23  C12 UNL     1      29.014  -0.469  53.720  1.00  0.00     0.024 A 
HETATM   24  C13 UNL     1      27.829  -0.812  53.037  1.00  0.00     0.036 A 
HETATM   25 CL1  UNL     1      27.327  -2.406  52.547  1.00  0.00    -0.084 Cl
HETATM   26  C14 UNL     1      26.959   0.206  52.719  1.00  0.00     0.053 A 
ENDBRANCH  18  20
ENDBRANCH  10  18
TORSDOF 2
ENDMDL
MODEL 4
REMARK VINA RESULT:      -8.2      2.954      4.279
REMARK  2 active torsions:
REMARK  status: ('A' for Active; 'I' for Inactive)
REMARK    1  A    between atoms: C8_10  and  N3_11 
REMARK    2  A    between atoms: N3_11  and  C9_12 
ROOT
HETATM    1  C1  UNL     1      24.897   3.093  53.769  1.00  0.00     0.042 C 
HETATM    2  C2  UNL     1      25.474   2.533  52.510  1.00  0.00     0.215 A 
HETATM    3  C3  UNL     1      26.907   2.031  52.960  1.00  0.00     0.043 C 
HETATM    4  C4  UNL     1      26.891   0.960  51.751  1.00  0.00     0.036 C 
HETATM    5  C5  UNL     1      27.006  -0.328  52.434  1.00  0.00     0.038 C 
HETATM    6  C6  UNL     1      26.030  -1.222  52.981  1.00  0.00     0.269 C 
HETATM    7  N1  UNL     1      25.052  -1.091  54.034  1.00  0.00     0.073 N 
HETATM    8  C7  UNL     1      23.603  -0.863  54.311  1.00  0.00     0.426 A 
HETATM    9  N2  UNL     1      22.413  -0.325  54.142  1.00  0.00    -0.203 NA
HETATM   10  C8  UNL     1      21.917   0.644  53.379  1.00  0.00     0.144 A 
HETATM   11  C15 UNL     1      22.795   1.465  52.372  1.00  0.00     0.099 A 
HETATM   12  C16 UNL     1      23.828   0.740  52.764  1.00  0.00     0.257 A 
HETATM   13  N4  UNL     1      24.307  -0.171  53.477  1.00  0.00    -0.115 N 
HETATM   14  N5  UNL     1      24.751   1.213  52.083  1.00  0.00     0.024 N 
HETATM   15  C17 UNL     1      25.628   1.669  51.427  1.00  0.00     0.224 A 
HETATM   16  P1  UNL     1      23.862   2.467  51.143  1.00  0.00     0.190 P 
HETATM   17  H12 UNL     1      24.949  -1.144  55.125  1.00  0.00     0.315 HD
ENDROOT
BRANCH  10  18
HETATM   18  N3  UNL     1      20.744   1.351  53.076  1.00  0.00    -0.340 N 
HETATM   19  H13 UNL     1      20.513   2.366  53.089  1.00  0.00     0.167 HD
BRANCH  18  20
HETATM   20  C9  UNL     1      19.643   0.564  52.684  1.00  0.00     0.035 A 
HETATM   21  C10 UNL     1      18.889   0.915  51.584  1.00  0.00     0.029 A 
HETATM   22  C11 UNL     1      17.803   0.233  51.099  1.00  0.00     0.004 A 
HETATM   23  C12 UNL     1      17.388  -0.945  51.761  1.00  0.00     0.024 A 
HETATM   24  C13 UNL     1      18.121  -1.352  52.894  1.00  0.00     0.036 A 
HETATM   25 CL1  UNL     1      17.827  -2.758  53.880  1.00  0.00    -0.084 Cl
HETATM   26  C14 UNL     1      19.191  -0.576  53.275  1.00  0.00     0.053 A 
ENDBRANCH  18  20
ENDBRANCH  10  18
TORSDOF 2
ENDMDL
MODEL 5
REMARK VINA RESULT:      -8.2      3.729      5.830
REMARK  2 active torsions:
REMARK  status: ('A' for Active; 'I' for Inactive)
REMARK    1  A    between atoms: C8_10  and  N3_11 
REMARK    2  A    between atoms: N3_11  and  C9_12 
ROOT
HETATM    1  C1  UNL     1      23.065   5.544  51.414  1.00  0.00     0.042 C 
HETATM    2  C2  UNL     1      23.401   5.674  49.965  1.00  0.00     0.215 A 
HETATM    3  C3  UNL     1      24.610   6.697  49.964  1.00  0.00     0.043 C 
HETATM    4  C4  UNL     1      25.121   6.065  48.568  1.00  0.00     0.036 C 
HETATM    5  C5  UNL     1      26.460   5.575  48.885  1.00  0.00     0.038 C 
HETATM    6  C6  UNL     1      26.936   4.327  49.402  1.00  0.00     0.269 C 
HETATM    7  N1  UNL     1      26.713   3.621  50.641  1.00  0.00     0.073 N 
HETATM    8  C7  UNL     1      25.952   2.501  51.269  1.00  0.00     0.426 A 
HETATM    9  N2  UNL     1      24.911   1.726  51.493  1.00  0.00    -0.203 NA
HETATM   10  C8  UNL     1      23.639   1.722  51.106  1.00  0.00     0.144 A 
HETATM   11  C15 UNL     1      23.037   2.817  50.157  1.00  0.00     0.099 A 
HETATM   12  C16 UNL     1      24.233   3.379  50.135  1.00  0.00     0.257 A 
HETATM   13  N4  UNL     1      25.433   3.393  50.491  1.00  0.00    -0.115 N 
HETATM   14  N5  UNL     1      24.043   4.363  49.403  1.00  0.00     0.024 N 
HETATM   15  C17 UNL     1      23.855   5.301  48.701  1.00  0.00     0.224 A 
HETATM   16  P1  UNL     1      22.300   4.147  49.001  1.00  0.00     0.190 P 
HETATM   17  H12 UNL     1      27.050   3.585  51.684  1.00  0.00     0.315 HD
ENDROOT
BRANCH  10  18
HETATM   18  N3  UNL     1      22.423   1.036  51.238  1.00  0.00    -0.340 N 
HETATM   19  H13 UNL     1      21.588   0.963  50.620  1.00  0.00     0.167 HD
BRANCH  18  20
HETATM   20  C9  UNL     1      22.263   0.303  52.430  1.00  0.00     0.035 A 
HETATM   21  C10 UNL     1      21.008  -0.078  52.854  1.00  0.00     0.029 A 
HETATM   22  C11 UNL     1      20.722  -0.795  53.987  1.00  0.00     0.004 A 
HETATM   23  C12 UNL     1      21.787  -1.200  54.823  1.00  0.00     0.024 A 
HETATM   24  C13 UNL     1      23.094  -0.838  54.441  1.00  0.00     0.036 A 
HETATM   25 CL1  UNL     1      24.572  -1.214  55.282  1.00  0.00    -0.084 Cl
HETATM   26  C14 UNL     1      23.243  -0.116  53.278  1.00  0.00     0.053 A 
ENDBRANCH  18  20
ENDBRANCH  10  18
TORSDOF 2
ENDMDL
MODEL 6
REMARK VINA RESULT:      -8.0      3.283      5.899
REMARK  2 active torsions:
REMARK  status: ('A' for Active; 'I' for Inactive)
REMARK    1  A    between atoms: C8_10  and  N3_11 
REMARK    2  A    between atoms: N3_11  and  C9_12 
ROOT
HETATM    1  C1  UNL     1      21.821   1.273  50.082  1.00  0.00     0.042 C 
HETATM    2  C2  UNL     1      21.329   1.250  51.492  1.00  0.00     0.215 A 
HETATM    3  C3  UNL     1      21.294  -0.295  51.838  1.00  0.00     0.043 C 
HETATM    4  C4  UNL     1      21.465   0.071  53.402  1.00  0.00     0.036 C 
HETATM    5  C5  UNL     1      22.710  -0.597  53.775  1.00  0.00     0.038 C 
HETATM    6  C6  UNL     1      24.080  -0.184  53.728  1.00  0.00     0.269 C 
HETATM    7  N1  UNL     1      24.961   0.197  52.649  1.00  0.00     0.073 N 
HETATM    8  C7  UNL     1      25.577   1.365  51.954  1.00  0.00     0.426 A 
HETATM    9  N2  UNL     1      25.623   2.577  51.439  1.00  0.00    -0.203 NA
HETATM   10  C8  UNL     1      24.739   3.549  51.240  1.00  0.00     0.144 A 
HETATM   11  C15 UNL     1      23.228   3.419  51.643  1.00  0.00     0.099 A 
HETATM   12  C16 UNL     1      23.505   2.202  52.080  1.00  0.00     0.257 A 
HETATM   13  N4  UNL     1      24.328   1.280  52.273  1.00  0.00    -0.115 N 
HETATM   14  N5  UNL     1      22.398   1.815  52.485  1.00  0.00     0.024 N 
HETATM   15  C17 UNL     1      21.337   1.451  52.871  1.00  0.00     0.224 A 
HETATM   16  P1  UNL     1      21.388   3.265  52.133  1.00  0.00     0.190 P 
HETATM   17  H12 UNL     1      25.606  -0.231  51.873  1.00  0.00     0.315 HD
ENDROOT
BRANCH  10  18
HETATM   18  N3  UNL     1      24.583   4.841  50.717  1.00  0.00    -0.340 N 
HETATM   19  H13 UNL     1      23.809   5.535  50.781  1.00  0.00     0.167 HD
BRANCH  18  20
HETATM   20  C9  UNL     1      25.659   5.319  49.943  1.00  0.00     0.035 A 
HETATM   21  C10 UNL     1      26.553   4.440  49.369  1.00  0.00     0.029 A 
HETATM   22  C11 UNL     1      27.631   4.777  48.593  1.00  0.00     0.004 A 
HETATM   23  C12 UNL     1      27.882   6.143  48.334  1.00  0.00     0.024 A 
HETATM   24  C13 UNL     1      27.002   7.090  48.897  1.00  0.00     0.036 A 
HETATM   25 CL1  UNL     1      27.081   8.821  48.730  1.00  0.00    -0.084 Cl
HETATM   26  C14 UNL     1      25.958   6.616  49.658  1.00  0.00     0.053 A 
ENDBRANCH  18  20
ENDBRANCH  10  18
TORSDOF 2
ENDMDL
MODEL 7
REMARK VINA RESULT:      -8.0      3.844      6.302
REMARK  2 active torsions:
REMARK  status: ('A' for Active; 'I' for Inactive)
REMARK    1  A    between atoms: C8_10  and  N3_11 
REMARK    2  A    between atoms: N3_11  and  C9_12 
ROOT
HETATM    1  C1  UNL     1      20.692   3.950  50.344  1.00  0.00     0.042 C 
HETATM    2  C2  UNL     1      21.629   4.559  49.353  1.00  0.00     0.215 A 
HETATM    3  C3  UNL     1      21.337   6.110  49.484  1.00  0.00     0.043 C 
HETATM    4  C4  UNL     1      22.831   6.418  48.955  1.00  0.00     0.036 C 
HETATM    5  C5  UNL     1      23.438   7.160  50.059  1.00  0.00     0.038 C 
HETATM    6  C6  UNL     1      24.147   6.742  51.230  1.00  0.00     0.269 C 
HETATM    7  N1  UNL     1      23.782   5.937  52.371  1.00  0.00     0.073 N 
HETATM    8  C7  UNL     1      23.903   4.577  52.973  1.00  0.00     0.426 A 
HETATM    9  N2  UNL     1      23.941   3.260  52.982  1.00  0.00    -0.203 NA
HETATM   10  C8  UNL     1      23.745   2.306  52.078  1.00  0.00     0.144 A 
HETATM   11  C15 UNL     1      23.371   2.615  50.586  1.00  0.00     0.099 A 
HETATM   12  C16 UNL     1      23.408   3.899  50.898  1.00  0.00     0.257 A 
HETATM   13  N4  UNL     1      23.591   4.806  51.741  1.00  0.00    -0.115 N 
HETATM   14  N5  UNL     1      23.118   4.436  49.818  1.00  0.00     0.024 N 
HETATM   15  C17 UNL     1      22.840   4.944  48.782  1.00  0.00     0.224 A 
HETATM   16  P1  UNL     1      22.916   2.987  48.768  1.00  0.00     0.190 P 
HETATM   17  H12 UNL     1      23.268   5.997  53.338  1.00  0.00     0.315 HD
ENDROOT
BRANCH  10  18
HETATM   18  N3  UNL     1      23.718   0.916  51.893  1.00  0.00    -0.340 N 
HETATM   19  H13 UNL     1      24.201   0.289  51.217  1.00  0.00     0.167 HD
BRANCH  18  20
HETATM   20  C9  UNL     1      22.877   0.202  52.769  1.00  0.00     0.035 A 
HETATM   21  C10 UNL     1      23.398  -0.436  53.875  1.00  0.00     0.029 A 
HETATM   22  C11 UNL     1      22.688  -1.154  54.802  1.00  0.00     0.004 A 
HETATM   23  C12 UNL     1      21.289  -1.275  54.643  1.00  0.00     0.024 A 
HETATM   24  C13 UNL     1      20.699  -0.645  53.528  1.00  0.00     0.036 A 
HETATM   25 CL1  UNL     1      19.010  -0.633  53.105  1.00  0.00    -0.084 Cl
HETATM   26  C14 UNL     1      21.528   0.046  52.673  1.00  0.00     0.053 A 
ENDBRANCH  18  20
ENDBRANCH  10  18
TORSDOF 2
ENDMDL
MODEL 8
REMARK VINA RESULT:      -7.9      3.567      6.220
REMARK  2 active torsions:
REMARK  status: ('A' for Active; 'I' for Inactive)
REMARK    1  A    between atoms: C8_10  and  N3_11 
REMARK    2  A    between atoms: N3_11  and  C9_12 
ROOT
HETATM    1  C1  UNL     1      22.506   2.586  49.418  1.00  0.00     0.042 C 
HETATM    2  C2  UNL     1      21.277   2.187  50.166  1.00  0.00     0.215 A 
HETATM    3  C3  UNL     1      21.307   0.605  50.094  1.00  0.00     0.043 C 
HETATM    4  C4  UNL     1      20.435   0.545  51.452  1.00  0.00     0.036 C 
HETATM    5  C5  UNL     1      21.295  -0.188  52.378  1.00  0.00     0.038 C 
HETATM    6  C6  UNL     1      22.320   0.235  53.285  1.00  0.00     0.269 C 
HETATM    7  N1  UNL     1      23.590   0.895  53.101  1.00  0.00     0.073 N 
HETATM    8  C7  UNL     1      24.289   2.210  53.199  1.00  0.00     0.426 A 
HETATM    9  N2  UNL     1      24.426   3.515  53.084  1.00  0.00    -0.203 NA
HETATM   10  C8  UNL     1      23.690   4.498  52.576  1.00  0.00     0.144 A 
HETATM   11  C15 UNL     1      22.292   4.253  51.906  1.00  0.00     0.099 A 
HETATM   12  C16 UNL     1      22.454   2.967  52.164  1.00  0.00     0.257 A 
HETATM   13  N4  UNL     1      23.138   2.033  52.640  1.00  0.00    -0.115 N 
HETATM   14  N5  UNL     1      21.414   2.477  51.697  1.00  0.00     0.024 N 
HETATM   15  C17 UNL     1      20.417   2.015  51.249  1.00  0.00     0.224 A 
HETATM   16  P1  UNL     1      20.590   3.960  51.091  1.00  0.00     0.190 P 
HETATM   17  H12 UNL     1      24.635   0.693  52.836  1.00  0.00     0.315 HD
ENDROOT
BRANCH  10  18
HETATM   18  N3  UNL     1      23.661   5.881  52.345  1.00  0.00    -0.340 N 
HETATM   19  H13 UNL     1      23.298   6.679  52.908  1.00  0.00     0.167 HD
BRANCH  18  20
HETATM   20  C9  UNL     1      24.212   6.306  51.121  1.00  0.00     0.035 A 
HETATM   21  C10 UNL     1      23.729   7.433  50.490  1.00  0.00     0.029 A 
HETATM   22  C11 UNL     1      24.181   7.951  49.304  1.00  0.00     0.004 A 
HETATM   23  C12 UNL     1      25.242   7.297  48.637  1.00  0.00     0.024 A 
HETATM   24  C13 UNL     1      25.776   6.138  49.234  1.00  0.00     0.036 A 
HETATM   25 CL1  UNL     1      27.080   5.154  48.629  1.00  0.00    -0.084 Cl
HETATM   26  C14 UNL     1      25.229   5.724  50.427  1.00  0.00     0.053 A 
ENDBRANCH  18  20
ENDBRANCH  10  18
TORSDOF 2
ENDMDL
MODEL 9
REMARK VINA RESULT:      -7.9      4.093      6.732
REMARK  2 active torsions:
REMARK  status: ('A' for Active; 'I' for Inactive)
REMARK    1  A    between atoms: C8_10  and  N3_11 
REMARK    2  A    between atoms: N3_11  and  C9_12 
ROOT
HETATM    1  C1  UNL     1      22.792   2.210  49.145  1.00  0.00     0.042 C 
HETATM    2  C2  UNL     1      22.348   2.614  50.512  1.00  0.00     0.215 A 
HETATM    3  C3  UNL     1      22.128   1.228  51.247  1.00  0.00     0.043 C 
HETATM    4  C4  UNL     1      22.396   1.957  52.663  1.00  0.00     0.036 C 
HETATM    5  C5  UNL     1      23.558   1.250  53.197  1.00  0.00     0.038 C 
HETATM    6  C6  UNL     1      24.968   1.453  53.045  1.00  0.00     0.269 C 
HETATM    7  N1  UNL     1      25.853   1.426  51.905  1.00  0.00     0.073 N 
HETATM    8  C7  UNL     1      26.589   2.284  50.931  1.00  0.00     0.426 A 
HETATM    9  N2  UNL     1      26.771   3.306  50.121  1.00  0.00    -0.203 NA
HETATM   10  C8  UNL     1      26.012   4.302  49.676  1.00  0.00     0.144 A 
HETATM   11  C15 UNL     1      24.511   4.480  50.098  1.00  0.00     0.099 A 
HETATM   12  C16 UNL     1      24.646   3.391  50.835  1.00  0.00     0.257 A 
HETATM   13  N4  UNL     1      25.351   2.449  51.262  1.00  0.00    -0.115 N 
HETATM   14  N5  UNL     1      23.512   3.269  51.326  1.00  0.00     0.024 N 
HETATM   15  C17 UNL     1      22.427   3.159  51.792  1.00  0.00     0.224 A 
HETATM   16  P1  UNL     1      22.684   4.700  50.610  1.00  0.00     0.190 P 
HETATM   17  H12 UNL     1      26.412   0.732  51.266  1.00  0.00     0.315 HD
ENDROOT
BRANCH  10  18
HETATM   18  N3  UNL     1      26.005   5.426  48.837  1.00  0.00    -0.340 N 
HETATM   19  H13 UNL     1      25.247   5.893  48.297  1.00  0.00     0.167 HD
BRANCH  18  20
HETATM   20  C9  UNL     1      27.249   6.062  48.660  1.00  0.00     0.035 A 
HETATM   21  C10 UNL     1      27.372   7.422  48.847  1.00  0.00     0.029 A 
HETATM   22  C11 UNL     1      28.523   8.155  48.712  1.00  0.00     0.004 A 
HETATM   23  C12 UNL     1      29.715   7.488  48.350  1.00  0.00     0.024 A 
HETATM   24  C13 UNL     1      29.651   6.095  48.144  1.00  0.00     0.036 A 
HETATM   25 CL1  UNL     1      30.964   5.041  47.701  1.00  0.00    -0.084 Cl
HETATM   26  C14 UNL     1      28.431   5.481  48.312  1.00  0.00     0.053 A 
ENDBRANCH  18  20
ENDBRANCH  10  18
TORSDOF 2
ENDMDL
