MODEL 1
REMARK VINA RESULT:      -8.0      0.000      0.000
REMARK  8 active torsions:
REMARK  status: ('A' for Active; 'I' for Inactive)
REMARK    1  A    between atoms: C2_2  and  N1_3 
REMARK    2  A    between atoms: C2_2  and  C3_4 
REMARK    3  A    between atoms: C3_4  and  C4_5 
REMARK    4  A    between atoms: C4_5  and  N2_6 
REMARK    5  A    between atoms: N2_6  and  C5_7 
REMARK    6  A    between atoms: C5_7  and  C6_8 
REMARK    7  A    between atoms: C10_15  and  N6_16 
REMARK    8  A    between atoms: N6_16  and  C11_17 
ROOT
HETATM    1  C6  UNL     1      22.068   0.586  52.063  1.00  0.00    -0.007 A 
HETATM    2  C7  UNL     1      20.698   0.448  52.273  1.00  0.00     0.030 A 
HETATM    3  C8  UNL     1      20.466  -0.246  53.443  1.00  0.00     0.119 A 
HETATM    4  N3  UNL     1      21.689  -0.520  53.924  1.00  0.00    -0.240 N 
HETATM    5  N4  UNL     1      22.006  -1.169  55.032  1.00  0.00    -0.161 NA
HETATM    6  C9  UNL     1      23.281  -1.374  55.402  1.00  0.00     0.258 A 
HETATM    7  N5  UNL     1      24.241  -0.892  54.601  1.00  0.00    -0.220 NA
HETATM    8  C10 UNL     1      23.965  -0.229  53.473  1.00  0.00     0.159 A 
HETATM    9  C17 UNL     1      22.653  -0.038  53.124  1.00  0.00     0.112 A 
ENDROOT
BRANCH   1  10
HETATM   10  C5  UNL     1      22.670   1.288  50.897  1.00  0.00     0.155 C 
BRANCH  10  11
HETATM   11  N2  UNL     1      22.766   2.686  51.241  1.00  0.00    -0.417 N 
HETATM   12  H11 UNL     1      22.015   3.268  50.880  1.00  0.00     0.153 HD
BRANCH  11  13
HETATM   13  C4  UNL     1      24.069   3.246  51.171  1.00  0.00     0.116 C 
BRANCH  13  14
HETATM   14  C3  UNL     1      24.686   3.328  49.816  1.00  0.00     0.054 C 
BRANCH  14  15
HETATM   15  C2  UNL     1      26.174   3.285  49.772  1.00  0.00     0.215 C 
HETATM   16  C1  UNL     1      26.843   4.424  49.087  1.00  0.00     0.042 C 
BRANCH  15  17
HETATM   17  N1  UNL     1      26.639   3.311  51.169  1.00  0.00     0.082 N 
HETATM   18  H5  UNL     1      25.832   3.222  51.815  1.00  0.00     0.313 HD
HETATM   19  H6  UNL     1      27.154   4.218  51.326  1.00  0.00     0.313 HD
ENDBRANCH  15  17
ENDBRANCH  14  15
ENDBRANCH  13  14
ENDBRANCH  11  13
ENDBRANCH  10  11
ENDBRANCH   1  10
BRANCH   8  20
HETATM   20  N6  UNL     1      25.048   0.240  52.689  1.00  0.00    -0.339 N 
HETATM   21  H17 UNL     1      25.197   0.812  51.860  1.00  0.00     0.167 HD
BRANCH  20  22
HETATM   22  C11 UNL     1      26.393  -0.101  53.016  1.00  0.00     0.035 A 
HETATM   23  C12 UNL     1      27.053  -1.317  52.799  1.00  0.00     0.032 A 
HETATM   24  C13 UNL     1      28.360  -1.574  53.121  1.00  0.00     0.046 A 
HETATM   25  C14 UNL     1      29.113  -0.582  53.705  1.00  0.00     0.138 A 
HETATM   26  F1  UNL     1      30.394  -0.900  53.996  1.00  0.00    -0.204 F 
HETATM   27  C15 UNL     1      28.505   0.633  53.937  1.00  0.00     0.074 A 
HETATM   28 CL1  UNL     1      29.587   1.814  54.690  1.00  0.00    -0.081 Cl
HETATM   29  C16 UNL     1      27.189   0.861  53.602  1.00  0.00     0.056 A 
ENDBRANCH  20  22
ENDBRANCH   8  20
TORSDOF 8
ENDMDL
MODEL 2
REMARK VINA RESULT:      -7.8      1.531      1.662
REMARK  8 active torsions:
REMARK  status: ('A' for Active; 'I' for Inactive)
REMARK    1  A    between atoms: C2_2  and  N1_3 
REMARK    2  A    between atoms: C2_2  and  C3_4 
REMARK    3  A    between atoms: C3_4  and  C4_5 
REMARK    4  A    between atoms: C4_5  and  N2_6 
REMARK    5  A    between atoms: N2_6  and  C5_7 
REMARK    6  A    between atoms: C5_7  and  C6_8 
REMARK    7  A    between atoms: C10_15  and  N6_16 
REMARK    8  A    between atoms: N6_16  and  C11_17 
ROOT
HETATM    1  C6  UNL     1      21.880   0.509  52.243  1.00  0.00    -0.007 A 
HETATM    2  C7  UNL     1      20.525   0.292  52.485  1.00  0.00     0.030 A 
HETATM    3  C8  UNL     1      20.363  -0.449  53.637  1.00  0.00     0.119 A 
HETATM    4  N3  UNL     1      21.611  -0.672  54.077  1.00  0.00    -0.240 N 
HETATM    5  N4  UNL     1      21.994  -1.338  55.154  1.00  0.00    -0.161 NA
HETATM    6  C9  UNL     1      23.287  -1.487  55.483  1.00  0.00     0.258 A 
HETATM    7  N5  UNL     1      24.198  -0.929  54.673  1.00  0.00    -0.220 NA
HETATM    8  C10 UNL     1      23.856  -0.248  53.575  1.00  0.00     0.159 A 
HETATM    9  C17 UNL     1      22.527  -0.115  53.268  1.00  0.00     0.112 A 
ENDROOT
BRANCH   1  10
HETATM   10  C5  UNL     1      22.411   1.278  51.085  1.00  0.00     0.155 C 
BRANCH  10  11
HETATM   11  N2  UNL     1      22.163   2.675  51.347  1.00  0.00    -0.417 N 
HETATM   12  H11 UNL     1      21.935   3.230  50.526  1.00  0.00     0.153 HD
BRANCH  11  13
HETATM   13  C4  UNL     1      23.035   3.288  52.284  1.00  0.00     0.116 C 
BRANCH  13  14
HETATM   14  C3  UNL     1      22.918   4.767  52.433  1.00  0.00     0.054 C 
BRANCH  14  15
HETATM   15  C2  UNL     1      23.642   5.585  51.422  1.00  0.00     0.215 C 
HETATM   16  C1  UNL     1      22.800   6.251  50.393  1.00  0.00     0.042 C 
BRANCH  15  17
HETATM   17  N1  UNL     1      24.323   6.663  52.160  1.00  0.00     0.082 N 
HETATM   18  H5  UNL     1      23.753   6.948  52.980  1.00  0.00     0.313 HD
HETATM   19  H6  UNL     1      24.470   7.472  51.499  1.00  0.00     0.313 HD
ENDBRANCH  15  17
ENDBRANCH  14  15
ENDBRANCH  13  14
ENDBRANCH  11  13
ENDBRANCH  10  11
ENDBRANCH   1  10
BRANCH   8  20
HETATM   20  N6  UNL     1      24.891   0.302  52.778  1.00  0.00    -0.339 N 
HETATM   21  H17 UNL     1      24.987   0.922  51.976  1.00  0.00     0.167 HD
BRANCH  20  22
HETATM   22  C11 UNL     1      26.258  -0.003  53.038  1.00  0.00     0.035 A 
HETATM   23  C12 UNL     1      26.937  -1.204  52.794  1.00  0.00     0.032 A 
HETATM   24  C13 UNL     1      28.265  -1.426  53.050  1.00  0.00     0.046 A 
HETATM   25  C14 UNL     1      29.022  -0.411  53.590  1.00  0.00     0.138 A 
HETATM   26  F1  UNL     1      30.322  -0.695  53.817  1.00  0.00    -0.204 F 
HETATM   27  C15 UNL     1      28.396   0.790  53.847  1.00  0.00     0.074 A 
HETATM   28 CL1  UNL     1      29.484   2.002  54.537  1.00  0.00    -0.081 Cl
HETATM   29  C16 UNL     1      27.059   0.983  53.578  1.00  0.00     0.056 A 
ENDBRANCH  20  22
ENDBRANCH   8  20
TORSDOF 8
ENDMDL
MODEL 3
REMARK VINA RESULT:      -7.7      3.073      5.486
REMARK  8 active torsions:
REMARK  status: ('A' for Active; 'I' for Inactive)
REMARK    1  A    between atoms: C2_2  and  N1_3 
REMARK    2  A    between atoms: C2_2  and  C3_4 
REMARK    3  A    between atoms: C3_4  and  C4_5 
REMARK    4  A    between atoms: C4_5  and  N2_6 
REMARK    5  A    between atoms: N2_6  and  C5_7 
REMARK    6  A    between atoms: C5_7  and  C6_8 
REMARK    7  A    between atoms: C10_15  and  N6_16 
REMARK    8  A    between atoms: N6_16  and  C11_17 
ROOT
HETATM    1  C6  UNL     1      23.294  -0.396  53.692  1.00  0.00    -0.007 A 
HETATM    2  C7  UNL     1      22.827  -1.148  54.767  1.00  0.00     0.030 A 
HETATM    3  C8  UNL     1      21.453  -1.265  54.703  1.00  0.00     0.119 A 
HETATM    4  N3  UNL     1      21.106  -0.587  53.598  1.00  0.00    -0.240 N 
HETATM    5  N4  UNL     1      19.896  -0.404  53.096  1.00  0.00    -0.161 NA
HETATM    6  C9  UNL     1      19.685   0.300  51.972  1.00  0.00     0.258 A 
HETATM    7  N5  UNL     1      20.758   0.822  51.361  1.00  0.00    -0.220 NA
HETATM    8  C10 UNL     1      21.999   0.661  51.833  1.00  0.00     0.159 A 
HETATM    9  C17 UNL     1      22.178  -0.063  52.983  1.00  0.00     0.112 A 
ENDROOT
BRANCH   1  10
HETATM   10  C5  UNL     1      24.727  -0.080  53.451  1.00  0.00     0.155 C 
BRANCH  10  11
HETATM   11  N2  UNL     1      25.489  -0.709  54.503  1.00  0.00    -0.417 N 
HETATM   12  H11 UNL     1      24.941  -1.271  55.150  1.00  0.00     0.153 HD
BRANCH  11  13
HETATM   13  C4  UNL     1      26.503   0.093  55.089  1.00  0.00     0.116 C 
BRANCH  13  14
HETATM   14  C3  UNL     1      27.468   0.735  54.151  1.00  0.00     0.054 C 
BRANCH  14  15
HETATM   15  C2  UNL     1      28.906   0.646  54.528  1.00  0.00     0.215 C 
HETATM   16  C1  UNL     1      29.774  -0.147  53.617  1.00  0.00     0.042 C 
BRANCH  15  17
HETATM   17  N1  UNL     1      29.433   2.020  54.511  1.00  0.00     0.082 N 
HETATM   18  H5  UNL     1      29.441   2.411  55.473  1.00  0.00     0.313 HD
HETATM   19  H6  UNL     1      28.826   2.597  53.871  1.00  0.00     0.313 HD
ENDBRANCH  15  17
ENDBRANCH  14  15
ENDBRANCH  13  14
ENDBRANCH  11  13
ENDBRANCH  10  11
ENDBRANCH   1  10
BRANCH   8  20
HETATM   20  N6  UNL     1      23.070   1.254  51.119  1.00  0.00    -0.339 N 
HETATM   21  H17 UNL     1      23.800   0.972  50.469  1.00  0.00     0.167 HD
BRANCH  20  22
HETATM   22  C11 UNL     1      23.347   2.647  51.236  1.00  0.00     0.035 A 
HETATM   23  C12 UNL     1      23.108   3.487  52.332  1.00  0.00     0.032 A 
HETATM   24  C13 UNL     1      23.419   4.821  52.387  1.00  0.00     0.046 A 
HETATM   25  C14 UNL     1      24.015   5.415  51.298  1.00  0.00     0.138 A 
HETATM   26  F1  UNL     1      24.295   6.730  51.419  1.00  0.00    -0.204 F 
HETATM   27  C15 UNL     1      24.270   4.627  50.197  1.00  0.00     0.074 A 
HETATM   28 CL1  UNL     1      25.037   5.517  48.874  1.00  0.00    -0.081 Cl
HETATM   29  C16 UNL     1      23.946   3.289  50.171  1.00  0.00     0.056 A 
ENDBRANCH  20  22
ENDBRANCH   8  20
TORSDOF 8
ENDMDL
MODEL 4
REMARK VINA RESULT:      -7.4      3.144      5.647
REMARK  8 active torsions:
REMARK  status: ('A' for Active; 'I' for Inactive)
REMARK    1  A    between atoms: C2_2  and  N1_3 
REMARK    2  A    between atoms: C2_2  and  C3_4 
REMARK    3  A    between atoms: C3_4  and  C4_5 
REMARK    4  A    between atoms: C4_5  and  N2_6 
REMARK    5  A    between atoms: N2_6  and  C5_7 
REMARK    6  A    between atoms: C5_7  and  C6_8 
REMARK    7  A    between atoms: C10_15  and  N6_16 
REMARK    8  A    between atoms: N6_16  and  C11_17 
ROOT
HETATM    1  C6  UNL     1      23.574  -0.369  53.732  1.00  0.00    -0.007 A 
HETATM    2  C7  UNL     1      22.913  -1.132  54.691  1.00  0.00     0.030 A 
HETATM    3  C8  UNL     1      21.600  -0.723  54.802  1.00  0.00     0.119 A 
HETATM    4  N3  UNL     1      21.481   0.278  53.914  1.00  0.00    -0.240 N 
HETATM    5  N4  UNL     1      20.409   1.003  53.636  1.00  0.00    -0.161 NA
HETATM    6  C9  UNL     1      20.425   1.981  52.717  1.00  0.00     0.258 A 
HETATM    7  N5  UNL     1      21.580   2.206  52.076  1.00  0.00    -0.220 NA
HETATM    8  C10 UNL     1      22.687   1.498  52.324  1.00  0.00     0.159 A 
HETATM    9  C17 UNL     1      22.636   0.506  53.269  1.00  0.00     0.112 A 
ENDROOT
BRANCH   1  10
HETATM   10  C5  UNL     1      25.002  -0.548  53.357  1.00  0.00     0.155 C 
BRANCH  10  11
HETATM   11  N2  UNL     1      25.715  -0.929  54.552  1.00  0.00    -0.417 N 
HETATM   12  H11 UNL     1      25.178  -1.486  55.211  1.00  0.00     0.153 HD
BRANCH  11  13
HETATM   13  C4  UNL     1      26.539   0.077  55.121  1.00  0.00     0.116 C 
BRANCH  13  14
HETATM   14  C3  UNL     1      27.460   0.790  54.190  1.00  0.00     0.054 C 
BRANCH  14  15
HETATM   15  C2  UNL     1      28.908   0.727  54.527  1.00  0.00     0.215 C 
HETATM   16  C1  UNL     1      29.749  -0.130  53.648  1.00  0.00     0.042 C 
BRANCH  15  17
HETATM   17  N1  UNL     1      29.433   2.096  54.393  1.00  0.00     0.082 N 
HETATM   18  H5  UNL     1      29.779   2.253  53.427  1.00  0.00     0.313 HD
HETATM   19  H6  UNL     1      30.206   2.222  55.099  1.00  0.00     0.313 HD
ENDBRANCH  15  17
ENDBRANCH  14  15
ENDBRANCH  13  14
ENDBRANCH  11  13
ENDBRANCH  10  11
ENDBRANCH   1  10
BRANCH   8  20
HETATM   20  N6  UNL     1      23.862   1.812  51.598  1.00  0.00    -0.339 N 
HETATM   21  H17 UNL     1      24.829   1.500  51.542  1.00  0.00     0.167 HD
BRANCH  20  22
HETATM   22  C11 UNL     1      23.864   2.848  50.619  1.00  0.00     0.035 A 
HETATM   23  C12 UNL     1      23.206   2.871  49.383  1.00  0.00     0.032 A 
HETATM   24  C13 UNL     1      23.234   3.912  48.493  1.00  0.00     0.046 A 
HETATM   25  C14 UNL     1      23.954   5.042  48.806  1.00  0.00     0.138 A 
HETATM   26  F1  UNL     1      23.939   6.031  47.887  1.00  0.00    -0.204 F 
HETATM   27  C15 UNL     1      24.618   5.065  50.014  1.00  0.00     0.074 A 
HETATM   28 CL1  UNL     1      25.502   6.574  50.287  1.00  0.00    -0.081 Cl
HETATM   29  C16 UNL     1      24.572   4.002  50.888  1.00  0.00     0.056 A 
ENDBRANCH  20  22
ENDBRANCH   8  20
TORSDOF 8
ENDMDL
MODEL 5
REMARK VINA RESULT:      -7.2      3.242      5.578
REMARK  8 active torsions:
REMARK  status: ('A' for Active; 'I' for Inactive)
REMARK    1  A    between atoms: C2_2  and  N1_3 
REMARK    2  A    between atoms: C2_2  and  C3_4 
REMARK    3  A    between atoms: C3_4  and  C4_5 
REMARK    4  A    between atoms: C4_5  and  N2_6 
REMARK    5  A    between atoms: N2_6  and  C5_7 
REMARK    6  A    between atoms: C5_7  and  C6_8 
REMARK    7  A    between atoms: C10_15  and  N6_16 
REMARK    8  A    between atoms: N6_16  and  C11_17 
ROOT
HETATM    1  C6  UNL     1      27.599   1.850  53.200  1.00  0.00    -0.007 A 
HETATM    2  C7  UNL     1      28.738   2.404  53.778  1.00  0.00     0.030 A 
HETATM    3  C8  UNL     1      29.633   1.408  54.110  1.00  0.00     0.119 A 
HETATM    4  N3  UNL     1      29.030   0.269  53.732  1.00  0.00    -0.240 N 
HETATM    5  N4  UNL     1      29.482  -0.970  53.834  1.00  0.00    -0.161 NA
HETATM    6  C9  UNL     1      28.772  -2.028  53.412  1.00  0.00     0.258 A 
HETATM    7  N5  UNL     1      27.568  -1.788  52.872  1.00  0.00    -0.220 NA
HETATM    8  C10 UNL     1      27.073  -0.552  52.749  1.00  0.00     0.159 A 
HETATM    9  C17 UNL     1      27.824   0.506  53.191  1.00  0.00     0.112 A 
ENDROOT
BRANCH   1  10
HETATM   10  C5  UNL     1      26.434   2.642  52.719  1.00  0.00     0.155 C 
BRANCH  10  11
HETATM   11  N2  UNL     1      26.748   3.100  51.387  1.00  0.00    -0.417 N 
HETATM   12  H11 UNL     1      27.354   3.916  51.348  1.00  0.00     0.153 HD
BRANCH  11  13
HETATM   13  C4  UNL     1      25.669   3.088  50.465  1.00  0.00     0.116 C 
BRANCH  13  14
HETATM   14  C3  UNL     1      25.291   4.399  49.865  1.00  0.00     0.054 C 
BRANCH  14  15
HETATM   15  C2  UNL     1      24.138   5.099  50.496  1.00  0.00     0.215 C 
HETATM   16  C1  UNL     1      23.333   4.300  51.460  1.00  0.00     0.042 C 
BRANCH  15  17
HETATM   17  N1  UNL     1      24.695   6.228  51.259  1.00  0.00     0.082 N 
HETATM   18  H5  UNL     1      25.693   6.369  51.010  1.00  0.00     0.313 HD
HETATM   19  H6  UNL     1      24.586   6.016  52.287  1.00  0.00     0.313 HD
ENDBRANCH  15  17
ENDBRANCH  14  15
ENDBRANCH  13  14
ENDBRANCH  11  13
ENDBRANCH  10  11
ENDBRANCH   1  10
BRANCH   8  20
HETATM   20  N6  UNL     1      25.789  -0.399  52.169  1.00  0.00    -0.339 N 
HETATM   21  H17 UNL     1      25.380  -0.290  51.244  1.00  0.00     0.167 HD
BRANCH  20  22
HETATM   22  C11 UNL     1      24.618  -0.362  52.980  1.00  0.00     0.035 A 
HETATM   23  C12 UNL     1      24.382  -1.031  54.188  1.00  0.00     0.032 A 
HETATM   24  C13 UNL     1      23.235  -0.936  54.932  1.00  0.00     0.046 A 
HETATM   25  C14 UNL     1      22.213  -0.129  54.487  1.00  0.00     0.138 A 
HETATM   26  F1  UNL     1      21.112  -0.079  55.267  1.00  0.00    -0.204 F 
HETATM   27  C15 UNL     1      22.401   0.550  53.303  1.00  0.00     0.074 A 
HETATM   28 CL1  UNL     1      21.011   1.549  52.851  1.00  0.00    -0.081 Cl
HETATM   29  C16 UNL     1      23.566   0.435  52.577  1.00  0.00     0.056 A 
ENDBRANCH  20  22
ENDBRANCH   8  20
TORSDOF 8
ENDMDL
MODEL 6
REMARK VINA RESULT:      -7.1      1.726      5.194
REMARK  8 active torsions:
REMARK  status: ('A' for Active; 'I' for Inactive)
REMARK    1  A    between atoms: C2_2  and  N1_3 
REMARK    2  A    between atoms: C2_2  and  C3_4 
REMARK    3  A    between atoms: C3_4  and  C4_5 
REMARK    4  A    between atoms: C4_5  and  N2_6 
REMARK    5  A    between atoms: N2_6  and  C5_7 
REMARK    6  A    between atoms: C5_7  and  C6_8 
REMARK    7  A    between atoms: C10_15  and  N6_16 
REMARK    8  A    between atoms: N6_16  and  C11_17 
ROOT
HETATM    1  C6  UNL     1      23.466   4.013  51.402  1.00  0.00    -0.007 A 
HETATM    2  C7  UNL     1      22.991   5.258  50.999  1.00  0.00     0.030 A 
HETATM    3  C8  UNL     1      23.896   5.857  50.146  1.00  0.00     0.119 A 
HETATM    4  N3  UNL     1      24.902   4.975  50.044  1.00  0.00    -0.240 N 
HETATM    5  N4  UNL     1      26.016   5.079  49.337  1.00  0.00    -0.161 NA
HETATM    6  C9  UNL     1      26.948   4.114  49.320  1.00  0.00     0.258 A 
HETATM    7  N5  UNL     1      26.714   3.018  50.055  1.00  0.00    -0.220 NA
HETATM    8  C10 UNL     1      25.603   2.869  50.784  1.00  0.00     0.159 A 
HETATM    9  C17 UNL     1      24.671   3.875  50.779  1.00  0.00     0.112 A 
ENDROOT
BRANCH   1  10
HETATM   10  C5  UNL     1      22.738   3.095  52.319  1.00  0.00     0.155 C 
BRANCH  10  11
HETATM   11  N2  UNL     1      21.997   2.168  51.499  1.00  0.00    -0.417 N 
HETATM   12  H11 UNL     1      21.153   2.548  51.079  1.00  0.00     0.153 HD
BRANCH  11  13
HETATM   13  C4  UNL     1      21.892   0.847  52.009  1.00  0.00     0.116 C 
BRANCH  13  14
HETATM   14  C3  UNL     1      22.472   0.608  53.361  1.00  0.00     0.054 C 
BRANCH  14  15
HETATM   15  C2  UNL     1      23.042  -0.748  53.598  1.00  0.00     0.215 C 
HETATM   16  C1  UNL     1      24.149  -0.829  54.588  1.00  0.00     0.042 C 
BRANCH  15  17
HETATM   17  N1  UNL     1      21.948  -1.577  54.131  1.00  0.00     0.082 N 
HETATM   18  H5  UNL     1      22.125  -1.803  55.129  1.00  0.00     0.313 HD
HETATM   19  H6  UNL     1      21.887  -2.454  53.548  1.00  0.00     0.313 HD
ENDBRANCH  15  17
ENDBRANCH  14  15
ENDBRANCH  13  14
ENDBRANCH  11  13
ENDBRANCH  10  11
ENDBRANCH   1  10
BRANCH   8  20
HETATM   20  N6  UNL     1      25.446   1.676  51.533  1.00  0.00    -0.339 N 
HETATM   21  H17 UNL     1      24.713   1.003  51.748  1.00  0.00     0.167 HD
BRANCH  20  22
HETATM   22  C11 UNL     1      26.536   1.119  52.262  1.00  0.00     0.035 A 
HETATM   23  C12 UNL     1      27.446   1.781  53.097  1.00  0.00     0.032 A 
HETATM   24  C13 UNL     1      28.465   1.179  53.788  1.00  0.00     0.046 A 
HETATM   25  C14 UNL     1      28.636  -0.182  53.678  1.00  0.00     0.138 A 
HETATM   26  F1  UNL     1      29.658  -0.711  54.386  1.00  0.00    -0.204 F 
HETATM   27  C15 UNL     1      27.764  -0.875  52.868  1.00  0.00     0.074 A 
HETATM   28 CL1  UNL     1      28.099  -2.612  52.819  1.00  0.00    -0.081 Cl
HETATM   29  C16 UNL     1      26.749  -0.243  52.185  1.00  0.00     0.056 A 
ENDBRANCH  20  22
ENDBRANCH   8  20
TORSDOF 8
ENDMDL
MODEL 7
REMARK VINA RESULT:      -7.0      3.225      5.250
REMARK  8 active torsions:
REMARK  status: ('A' for Active; 'I' for Inactive)
REMARK    1  A    between atoms: C2_2  and  N1_3 
REMARK    2  A    between atoms: C2_2  and  C3_4 
REMARK    3  A    between atoms: C3_4  and  C4_5 
REMARK    4  A    between atoms: C4_5  and  N2_6 
REMARK    5  A    between atoms: N2_6  and  C5_7 
REMARK    6  A    between atoms: C5_7  and  C6_8 
REMARK    7  A    between atoms: C10_15  and  N6_16 
REMARK    8  A    between atoms: N6_16  and  C11_17 
ROOT
HETATM    1  C6  UNL     1      22.781  -0.561  53.599  1.00  0.00    -0.007 A 
HETATM    2  C7  UNL     1      22.395  -1.313  54.706  1.00  0.00     0.030 A 
HETATM    3  C8  UNL     1      23.462  -1.476  55.564  1.00  0.00     0.119 A 
HETATM    4  N3  UNL     1      24.477  -0.827  54.972  1.00  0.00    -0.240 N 
HETATM    5  N4  UNL     1      25.721  -0.686  55.401  1.00  0.00    -0.161 NA
HETATM    6  C9  UNL     1      26.645  -0.003  54.706  1.00  0.00     0.258 A 
HETATM    7  N5  UNL     1      26.263   0.544  53.544  1.00  0.00    -0.220 NA
HETATM    8  C10 UNL     1      25.017   0.427  53.073  1.00  0.00     0.159 A 
HETATM    9  C17 UNL     1      24.098  -0.277  53.808  1.00  0.00     0.112 A 
ENDROOT
BRANCH   1  10
HETATM   10  C5  UNL     1      21.875  -0.192  52.479  1.00  0.00     0.155 C 
BRANCH  10  11
HETATM   11  N2  UNL     1      21.021   0.872  52.950  1.00  0.00    -0.417 N 
HETATM   12  H11 UNL     1      20.457   0.639  53.763  1.00  0.00     0.153 HD
BRANCH  11  13
HETATM   13  C4  UNL     1      20.368   1.626  51.940  1.00  0.00     0.116 C 
BRANCH  13  14
HETATM   14  C3  UNL     1      21.056   1.709  50.620  1.00  0.00     0.054 C 
BRANCH  14  15
HETATM   15  C2  UNL     1      20.224   2.170  49.476  1.00  0.00     0.215 C 
HETATM   16  C1  UNL     1      20.885   2.174  48.143  1.00  0.00     0.042 C 
BRANCH  15  17
HETATM   17  N1  UNL     1      19.091   1.235  49.373  1.00  0.00     0.082 N 
HETATM   18  H5  UNL     1      19.114   0.747  48.457  1.00  0.00     0.313 HD
HETATM   19  H6  UNL     1      18.199   1.785  49.489  1.00  0.00     0.313 HD
ENDBRANCH  15  17
ENDBRANCH  14  15
ENDBRANCH  13  14
ENDBRANCH  11  13
ENDBRANCH  10  11
ENDBRANCH   1  10
BRANCH   8  20
HETATM   20  N6  UNL     1      24.709   1.037  51.832  1.00  0.00    -0.339 N 
HETATM   21  H17 UNL     1      24.646   0.777  50.850  1.00  0.00     0.167 HD
BRANCH  20  22
HETATM   22  C11 UNL     1      24.368   2.420  51.758  1.00  0.00     0.035 A 
HETATM   23  C12 UNL     1      23.859   3.239  52.773  1.00  0.00     0.032 A 
HETATM   24  C13 UNL     1      23.570   4.573  52.641  1.00  0.00     0.046 A 
HETATM   25  C14 UNL     1      23.786   5.187  51.429  1.00  0.00     0.138 A 
HETATM   26  F1  UNL     1      23.482   6.502  51.366  1.00  0.00    -0.204 F 
HETATM   27  C15 UNL     1      24.288   4.419  50.400  1.00  0.00     0.074 A 
HETATM   28 CL1  UNL     1      24.517   5.335  48.903  1.00  0.00    -0.081 Cl
HETATM   29  C16 UNL     1      24.568   3.081  50.563  1.00  0.00     0.056 A 
ENDBRANCH  20  22
ENDBRANCH   8  20
TORSDOF 8
ENDMDL
MODEL 8
REMARK VINA RESULT:      -7.0      3.747      6.094
REMARK  8 active torsions:
REMARK  status: ('A' for Active; 'I' for Inactive)
REMARK    1  A    between atoms: C2_2  and  N1_3 
REMARK    2  A    between atoms: C2_2  and  C3_4 
REMARK    3  A    between atoms: C3_4  and  C4_5 
REMARK    4  A    between atoms: C4_5  and  N2_6 
REMARK    5  A    between atoms: N2_6  and  C5_7 
REMARK    6  A    between atoms: C5_7  and  C6_8 
REMARK    7  A    between atoms: C10_15  and  N6_16 
REMARK    8  A    between atoms: N6_16  and  C11_17 
ROOT
HETATM    1  C6  UNL     1      23.994   0.543  53.027  1.00  0.00    -0.007 A 
HETATM    2  C7  UNL     1      24.076  -0.603  53.814  1.00  0.00     0.030 A 
HETATM    3  C8  UNL     1      22.825  -0.945  54.285  1.00  0.00     0.119 A 
HETATM    4  N3  UNL     1      22.005  -0.010  53.782  1.00  0.00    -0.240 N 
HETATM    5  N4  UNL     1      20.696   0.104  53.941  1.00  0.00    -0.161 NA
HETATM    6  C9  UNL     1      19.989   1.095  53.376  1.00  0.00     0.258 A 
HETATM    7  N5  UNL     1      20.660   1.984  52.631  1.00  0.00    -0.220 NA
HETATM    8  C10 UNL     1      21.981   1.907  52.442  1.00  0.00     0.159 A 
HETATM    9  C17 UNL     1      22.673   0.883  53.034  1.00  0.00     0.112 A 
ENDROOT
BRANCH   1  10
HETATM   10  C5  UNL     1      25.156   1.184  52.356  1.00  0.00     0.155 C 
BRANCH  10  11
HETATM   11  N2  UNL     1      25.723   2.129  53.289  1.00  0.00    -0.417 N 
HETATM   12  H11 UNL     1      25.391   3.085  53.184  1.00  0.00     0.153 HD
BRANCH  11  13
HETATM   13  C4  UNL     1      27.111   1.982  53.543  1.00  0.00     0.116 C 
BRANCH  13  14
HETATM   14  C3  UNL     1      27.516   0.807  54.368  1.00  0.00     0.054 C 
BRANCH  14  15
HETATM   15  C2  UNL     1      28.974   0.660  54.627  1.00  0.00     0.215 C 
HETATM   16  C1  UNL     1      29.735  -0.163  53.648  1.00  0.00     0.042 C 
BRANCH  15  17
HETATM   17  N1  UNL     1      29.552   2.013  54.565  1.00  0.00     0.082 N 
HETATM   18  H5  UNL     1      29.317   2.541  55.428  1.00  0.00     0.313 HD
HETATM   19  H6  UNL     1      29.170   2.495  53.708  1.00  0.00     0.313 HD
ENDBRANCH  15  17
ENDBRANCH  14  15
ENDBRANCH  13  14
ENDBRANCH  11  13
ENDBRANCH  10  11
ENDBRANCH   1  10
BRANCH   8  20
HETATM   20  N6  UNL     1      22.603   2.897  51.641  1.00  0.00    -0.339 N 
HETATM   21  H17 UNL     1      23.172   3.731  51.765  1.00  0.00     0.167 HD
BRANCH  20  22
HETATM   22  C11 UNL     1      22.496   2.863  50.220  1.00  0.00     0.035 A 
HETATM   23  C12 UNL     1      22.204   1.765  49.401  1.00  0.00     0.032 A 
HETATM   24  C13 UNL     1      22.095   1.805  48.035  1.00  0.00     0.046 A 
HETATM   25  C14 UNL     1      22.281   3.003  47.384  1.00  0.00     0.138 A 
HETATM   26  F1  UNL     1      22.159   2.974  46.039  1.00  0.00    -0.204 F 
HETATM   27  C15 UNL     1      22.570   4.112  48.150  1.00  0.00     0.074 A 
HETATM   28 CL1  UNL     1      22.783   5.581  47.185  1.00  0.00    -0.081 Cl
HETATM   29  C16 UNL     1      22.673   4.041  49.521  1.00  0.00     0.056 A 
ENDBRANCH  20  22
ENDBRANCH   8  20
TORSDOF 8
ENDMDL
MODEL 9
REMARK VINA RESULT:      -6.9      4.099      7.679
REMARK  8 active torsions:
REMARK  status: ('A' for Active; 'I' for Inactive)
REMARK    1  A    between atoms: C2_2  and  N1_3 
REMARK    2  A    between atoms: C2_2  and  C3_4 
REMARK    3  A    between atoms: C3_4  and  C4_5 
REMARK    4  A    between atoms: C4_5  and  N2_6 
REMARK    5  A    between atoms: N2_6  and  C5_7 
REMARK    6  A    between atoms: C5_7  and  C6_8 
REMARK    7  A    between atoms: C10_15  and  N6_16 
REMARK    8  A    between atoms: N6_16  and  C11_17 
ROOT
HETATM    1  C6  UNL     1      26.372   4.101  49.890  1.00  0.00    -0.007 A 
HETATM    2  C7  UNL     1      27.278   4.510  48.914  1.00  0.00     0.030 A 
HETATM    3  C8  UNL     1      27.019   5.814  48.544  1.00  0.00     0.119 A 
HETATM    4  N3  UNL     1      25.967   6.178  49.294  1.00  0.00    -0.240 N 
HETATM    5  N4  UNL     1      25.339   7.342  49.315  1.00  0.00    -0.161 NA
HETATM    6  C9  UNL     1      24.292   7.577  50.122  1.00  0.00     0.258 A 
HETATM    7  N5  UNL     1      23.894   6.579  50.923  1.00  0.00    -0.220 NA
HETATM    8  C10 UNL     1      24.501   5.387  50.936  1.00  0.00     0.159 A 
HETATM    9  C17 UNL     1      25.566   5.181  50.099  1.00  0.00     0.112 A 
ENDROOT
BRANCH   1  10
HETATM   10  C5  UNL     1      26.369   2.752  50.516  1.00  0.00     0.155 C 
BRANCH  10  11
HETATM   11  N2  UNL     1      27.107   2.851  51.752  1.00  0.00    -0.417 N 
HETATM   12  H11 UNL     1      28.042   3.240  51.662  1.00  0.00     0.153 HD
BRANCH  11  13
HETATM   13  C4  UNL     1      26.982   1.743  52.631  1.00  0.00     0.116 C 
BRANCH  13  14
HETATM   14  C3  UNL     1      26.636   0.434  52.006  1.00  0.00     0.054 C 
BRANCH  14  15
HETATM   15  C2  UNL     1      26.459  -0.711  52.942  1.00  0.00     0.215 C 
HETATM   16  C1  UNL     1      26.874  -2.046  52.431  1.00  0.00     0.042 C 
BRANCH  15  17
HETATM   17  N1  UNL     1      27.309  -0.435  54.113  1.00  0.00     0.082 N 
HETATM   18  H5  UNL     1      28.302  -0.355  53.822  1.00  0.00     0.313 HD
HETATM   19  H6  UNL     1      27.177  -1.218  54.806  1.00  0.00     0.313 HD
ENDBRANCH  15  17
ENDBRANCH  14  15
ENDBRANCH  13  14
ENDBRANCH  11  13
ENDBRANCH  10  11
ENDBRANCH   1  10
BRANCH   8  20
HETATM   20  N6  UNL     1      24.005   4.393  51.815  1.00  0.00    -0.339 N 
HETATM   21  H17 UNL     1      24.287   3.927  52.675  1.00  0.00     0.167 HD
BRANCH  20  22
HETATM   22  C11 UNL     1      22.758   3.749  51.566  1.00  0.00     0.035 A 
HETATM   23  C12 UNL     1      21.531   3.966  52.206  1.00  0.00     0.032 A 
HETATM   24  C13 UNL     1      20.358   3.324  51.903  1.00  0.00     0.046 A 
HETATM   25  C14 UNL     1      20.349   2.386  50.896  1.00  0.00     0.138 A 
HETATM   26  F1  UNL     1      19.162   1.792  50.648  1.00  0.00    -0.204 F 
HETATM   27  C15 UNL     1      21.535   2.139  50.238  1.00  0.00     0.074 A 
HETATM   28 CL1  UNL     1      21.379   0.914  48.970  1.00  0.00    -0.081 Cl
HETATM   29  C16 UNL     1      22.697   2.801  50.565  1.00  0.00     0.056 A 
ENDBRANCH  20  22
ENDBRANCH   8  20
TORSDOF 8
ENDMDL
