MODEL 1
REMARK VINA RESULT:      -8.4      0.000      0.000
REMARK  1 active torsions:
REMARK  status: ('A' for Active; 'I' for Inactive)
REMARK    1  A    between atoms: N1_1  and  C1_2 
ROOT
HETATM    1  C1  UNL     1      26.451   1.470  54.093  1.00  0.00     0.713 C 
HETATM    2  N2  UNL     1      26.753   0.371  54.736  1.00  0.00    -0.079 NA
HETATM    3  C2  UNL     1      26.136  -0.870  54.263  1.00  0.00     0.240 C 
HETATM    4  C3  UNL     1      24.608  -0.746  54.734  1.00  0.00     0.199 C 
HETATM    5  N3  UNL     1      24.156   0.379  53.959  1.00  0.00    -0.270 N 
HETATM    6  C4  UNL     1      22.887   0.562  53.350  1.00  0.00     0.063 A 
HETATM    7  C5  UNL     1      22.082  -0.430  53.686  1.00  0.00     0.032 A 
HETATM    8  C6  UNL     1      20.698  -0.759  53.363  1.00  0.00     0.002 A 
HETATM    9  C7  UNL     1      19.889  -0.019  52.587  1.00  0.00     0.002 A 
HETATM   10  C8  UNL     1      20.104   1.236  51.878  1.00  0.00     0.025 A 
HETATM   11  C9  UNL     1      21.227   1.958  51.854  1.00  0.00     0.046 A 
HETATM   12 CL1  UNL     1      21.249   3.445  50.925  1.00  0.00    -0.083 Cl
HETATM   13  C10 UNL     1      22.502   1.689  52.512  1.00  0.00     0.013 A 
HETATM   14  C11 UNL     1      23.444   2.586  52.330  1.00  0.00     0.021 A 
HETATM   15  C12 UNL     1      24.790   2.571  52.803  1.00  0.00     0.187 A 
HETATM   16  C13 UNL     1      25.829   2.189  51.688  1.00  0.00     0.002 C 
HETATM   17 BR1  UNL     1      26.406   3.372  50.325  1.00  0.00    -0.057 Br
HETATM   18  C14 UNL     1      26.459   0.951  51.550  1.00  0.00     0.052 C 
HETATM   19  C15 UNL     1      26.785  -0.475  51.884  1.00  0.00     0.126 C 
HETATM   20  N4  UNL     1      26.124  -1.128  52.899  1.00  0.00    -0.398 N 
HETATM   21  N5  UNL     1      25.055   1.414  53.696  1.00  0.00    -0.107 N 
HETATM   22  H15 UNL     1      26.050  -2.158  52.678  1.00  0.00     0.155 HD
ENDROOT
BRANCH   1  23
HETATM   23  N1  UNL     1      27.322   2.528  53.830  1.00  0.00    -0.232 N 
HETATM   24  H1  UNL     1      27.641   3.317  54.453  1.00  0.00     0.174 HD
HETATM   25  H2  UNL     1      27.968   3.243  53.509  1.00  0.00     0.174 HD
ENDBRANCH   1  23
TORSDOF 1
ENDMDL
MODEL 2
REMARK VINA RESULT:      -8.1      3.521      5.761
REMARK  1 active torsions:
REMARK  status: ('A' for Active; 'I' for Inactive)
REMARK    1  A    between atoms: N1_1  and  C1_2 
ROOT
HETATM    1  C1  UNL     1      21.065   3.315  51.053  1.00  0.00     0.713 C 
HETATM    2  N2  UNL     1      21.611   3.947  50.046  1.00  0.00    -0.079 NA
HETATM    3  C2  UNL     1      22.608   3.218  49.260  1.00  0.00     0.240 C 
HETATM    4  C3  UNL     1      23.893   3.166  50.218  1.00  0.00     0.199 C 
HETATM    5  N3  UNL     1      23.410   2.360  51.308  1.00  0.00    -0.270 N 
HETATM    6  C4  UNL     1      24.122   1.380  52.047  1.00  0.00     0.063 A 
HETATM    7  C5  UNL     1      25.388   1.366  51.669  1.00  0.00     0.032 A 
HETATM    8  C6  UNL     1      26.552   0.585  52.071  1.00  0.00     0.002 A 
HETATM    9  C7  UNL     1      26.554  -0.365  53.022  1.00  0.00     0.002 A 
HETATM   10  C8  UNL     1      25.498  -0.880  53.883  1.00  0.00     0.025 A 
HETATM   11  C9  UNL     1      24.222  -0.485  53.906  1.00  0.00     0.046 A 
HETATM   12 CL1  UNL     1      23.125  -1.256  55.037  1.00  0.00    -0.083 Cl
HETATM   13  C10 UNL     1      23.566   0.537  53.097  1.00  0.00     0.013 A 
HETATM   14  C11 UNL     1      22.291   0.735  53.342  1.00  0.00     0.021 A 
HETATM   15  C12 UNL     1      21.386   1.624  52.688  1.00  0.00     0.187 A 
HETATM   16  C13 UNL     1      20.422   0.891  51.686  1.00  0.00     0.002 C 
HETATM   17 BR1  UNL     1      18.914  -0.125  52.218  1.00  0.00    -0.057 Br
HETATM   18  C14 UNL     1      20.539   0.888  50.295  1.00  0.00     0.052 C 
HETATM   19  C15 UNL     1      21.143   1.217  48.962  1.00  0.00     0.126 C 
HETATM   20  N4  UNL     1      22.328   1.912  48.880  1.00  0.00    -0.398 N 
HETATM   21  N5  UNL     1      22.071   2.476  51.682  1.00  0.00    -0.107 N 
HETATM   22  H15 UNL     1      22.864   1.613  48.020  1.00  0.00     0.155 HD
ENDROOT
BRANCH   1  23
HETATM   23  N1  UNL     1      19.736   3.422  51.461  1.00  0.00    -0.232 N 
HETATM   24  H1  UNL     1      19.240   2.984  52.284  1.00  0.00     0.174 HD
HETATM   25  H2  UNL     1      18.750   3.585  51.648  1.00  0.00     0.174 HD
ENDBRANCH   1  23
TORSDOF 1
ENDMDL
MODEL 3
REMARK VINA RESULT:      -7.5      2.937      5.066
REMARK  1 active torsions:
REMARK  status: ('A' for Active; 'I' for Inactive)
REMARK    1  A    between atoms: N1_1  and  C1_2 
ROOT
HETATM    1  C1  UNL     1      21.408   1.755  50.078  1.00  0.00     0.713 C 
HETATM    2  N2  UNL     1      20.161   1.445  50.322  1.00  0.00    -0.079 NA
HETATM    3  C2  UNL     1      19.742   1.414  51.725  1.00  0.00     0.240 C 
HETATM    4  C3  UNL     1      20.422   0.082  52.302  1.00  0.00     0.199 C 
HETATM    5  N3  UNL     1      21.821   0.398  52.191  1.00  0.00    -0.270 N 
HETATM    6  C4  UNL     1      22.862   0.064  53.096  1.00  0.00     0.063 A 
HETATM    7  C5  UNL     1      22.390  -0.710  54.057  1.00  0.00     0.032 A 
HETATM    8  C6  UNL     1      22.987  -1.341  55.229  1.00  0.00     0.002 A 
HETATM    9  C7  UNL     1      24.281  -1.251  55.579  1.00  0.00     0.002 A 
HETATM   10  C8  UNL     1      25.408  -0.562  54.965  1.00  0.00     0.025 A 
HETATM   11  C9  UNL     1      25.384   0.172  53.850  1.00  0.00     0.046 A 
HETATM   12 CL1  UNL     1      26.877   0.909  53.300  1.00  0.00    -0.083 Cl
HETATM   13  C10 UNL     1      24.256   0.471  52.976  1.00  0.00     0.013 A 
HETATM   14  C11 UNL     1      24.522   1.213  51.925  1.00  0.00     0.021 A 
HETATM   15  C12 UNL     1      23.624   1.702  50.929  1.00  0.00     0.187 A 
HETATM   16  C13 UNL     1      23.269   3.221  51.114  1.00  0.00     0.002 C 
HETATM   17 BR1  UNL     1      24.430   4.645  50.651  1.00  0.00    -0.057 Br
HETATM   18  C14 UNL     1      22.075   3.723  51.634  1.00  0.00     0.052 C 
HETATM   19  C15 UNL     1      20.698   3.667  52.227  1.00  0.00     0.126 C 
HETATM   20  N4  UNL     1      20.123   2.460  52.555  1.00  0.00    -0.398 N 
HETATM   21  N5  UNL     1      22.247   1.176  51.114  1.00  0.00    -0.107 N 
HETATM   22  H15 UNL     1      19.480   2.580  53.384  1.00  0.00     0.155 HD
ENDROOT
BRANCH   1  23
HETATM   23  N1  UNL     1      21.866   2.515  49.002  1.00  0.00    -0.232 N 
HETATM   24  H1  UNL     1      22.825   2.913  48.811  1.00  0.00     0.174 HD
HETATM   25  H2  UNL     1      22.069   3.059  48.169  1.00  0.00     0.174 HD
ENDBRANCH   1  23
TORSDOF 1
ENDMDL
MODEL 4
REMARK VINA RESULT:      -7.5      9.016     11.007
REMARK  1 active torsions:
REMARK  status: ('A' for Active; 'I' for Inactive)
REMARK    1  A    between atoms: N1_1  and  C1_2 
ROOT
HETATM    1  C1  UNL     1      34.384   5.975  48.050  1.00  0.00     0.713 C 
HETATM    2  N2  UNL     1      34.431   4.731  47.649  1.00  0.00    -0.079 NA
HETATM    3  C2  UNL     1      33.361   4.275  46.759  1.00  0.00     0.240 C 
HETATM    4  C3  UNL     1      32.084   4.154  47.721  1.00  0.00     0.199 C 
HETATM    5  N3  UNL     1      31.880   5.525  48.107  1.00  0.00    -0.270 N 
HETATM    6  C4  UNL     1      30.647   6.201  48.295  1.00  0.00     0.063 A 
HETATM    7  C5  UNL     1      29.645   5.347  48.173  1.00  0.00     0.032 A 
HETATM    8  C6  UNL     1      28.195   5.476  48.261  1.00  0.00     0.002 A 
HETATM    9  C7  UNL     1      27.535   6.615  48.530  1.00  0.00     0.002 A 
HETATM   10  C8  UNL     1      28.003   7.969  48.796  1.00  0.00     0.025 A 
HETATM   11  C9  UNL     1      29.272   8.383  48.830  1.00  0.00     0.046 A 
HETATM   12 CL1  UNL     1      29.593  10.073  49.173  1.00  0.00    -0.083 Cl
HETATM   13  C10 UNL     1      30.492   7.613  48.617  1.00  0.00     0.013 A 
HETATM   14  C11 UNL     1      31.620   8.277  48.728  1.00  0.00     0.021 A 
HETATM   15  C12 UNL     1      32.953   7.808  48.530  1.00  0.00     0.187 A 
HETATM   16  C13 UNL     1      33.566   8.260  47.156  1.00  0.00     0.002 C 
HETATM   17 BR1  UNL     1      34.214  10.005  46.807  1.00  0.00    -0.057 Br
HETATM   18  C14 UNL     1      33.716   7.455  46.025  1.00  0.00     0.052 C 
HETATM   19  C15 UNL     1      33.617   6.208  45.198  1.00  0.00     0.126 C 
HETATM   20  N4  UNL     1      32.995   5.084  45.693  1.00  0.00    -0.398 N 
HETATM   21  N5  UNL     1      32.997   6.346  48.270  1.00  0.00    -0.107 N 
HETATM   22  H15 UNL     1      32.546   4.543  44.904  1.00  0.00     0.155 HD
ENDROOT
BRANCH   1  23
HETATM   23  N1  UNL     1      35.482   6.816  48.238  1.00  0.00    -0.232 N 
HETATM   24  H1  UNL     1      36.436   6.608  48.638  1.00  0.00     0.174 HD
HETATM   25  H2  UNL     1      36.200   7.529  48.321  1.00  0.00     0.174 HD
ENDBRANCH   1  23
TORSDOF 1
ENDMDL
MODEL 5
REMARK VINA RESULT:      -7.3      3.913      6.026
REMARK  1 active torsions:
REMARK  status: ('A' for Active; 'I' for Inactive)
REMARK    1  A    between atoms: N1_1  and  C1_2 
ROOT
HETATM    1  C1  UNL     1      19.366   1.680  49.323  1.00  0.00     0.713 C 
HETATM    2  N2  UNL     1      18.131   1.429  49.673  1.00  0.00    -0.079 NA
HETATM    3  C2  UNL     1      17.813   1.503  51.100  1.00  0.00     0.240 C 
HETATM    4  C3  UNL     1      18.494   0.188  51.716  1.00  0.00     0.199 C 
HETATM    5  N3  UNL     1      19.890   0.451  51.488  1.00  0.00    -0.270 N 
HETATM    6  C4  UNL     1      20.983   0.141  52.339  1.00  0.00     0.063 A 
HETATM    7  C5  UNL     1      20.558  -0.553  53.380  1.00  0.00     0.032 A 
HETATM    8  C6  UNL     1      21.219  -1.125  54.548  1.00  0.00     0.002 A 
HETATM    9  C7  UNL     1      22.537  -1.056  54.801  1.00  0.00     0.002 A 
HETATM   10  C8  UNL     1      23.637  -0.447  54.065  1.00  0.00     0.025 A 
HETATM   11  C9  UNL     1      23.554   0.214  52.908  1.00  0.00     0.046 A 
HETATM   12 CL1  UNL     1      25.025   0.865  52.207  1.00  0.00    -0.083 Cl
HETATM   13  C10 UNL     1      22.375   0.494  52.095  1.00  0.00     0.013 A 
HETATM   14  C11 UNL     1      22.587   1.156  50.981  1.00  0.00     0.021 A 
HETATM   15  C12 UNL     1      21.634   1.609  50.020  1.00  0.00     0.187 A 
HETATM   16  C13 UNL     1      21.337   3.148  50.127  1.00  0.00     0.002 C 
HETATM   17 BR1  UNL     1      22.503   4.500  49.490  1.00  0.00    -0.057 Br
HETATM   18  C14 UNL     1      20.198   3.722  50.693  1.00  0.00     0.052 C 
HETATM   19  C15 UNL     1      18.866   3.750  51.382  1.00  0.00     0.126 C 
HETATM   20  N4  UNL     1      18.282   2.587  51.830  1.00  0.00    -0.398 N 
HETATM   21  N5  UNL     1      20.260   1.142  50.334  1.00  0.00    -0.107 N 
HETATM   22  H15 UNL     1      17.703   2.781  52.691  1.00  0.00     0.155 HD
ENDROOT
BRANCH   1  23
HETATM   23  N1  UNL     1      19.768   2.354  48.169  1.00  0.00    -0.232 N 
HETATM   24  H1  UNL     1      19.699   3.377  47.921  1.00  0.00     0.174 HD
HETATM   25  H2  UNL     1      20.104   2.719  47.282  1.00  0.00     0.174 HD
ENDBRANCH   1  23
TORSDOF 1
ENDMDL
MODEL 6
REMARK VINA RESULT:      -7.2      3.486      5.181
REMARK  1 active torsions:
REMARK  status: ('A' for Active; 'I' for Inactive)
REMARK    1  A    between atoms: N1_1  and  C1_2 
ROOT
HETATM    1  C1  UNL     1      21.767   3.497  49.347  1.00  0.00     0.713 C 
HETATM    2  N2  UNL     1      20.588   4.046  49.492  1.00  0.00    -0.079 NA
HETATM    3  C2  UNL     1      20.139   4.313  50.860  1.00  0.00     0.240 C 
HETATM    4  C3  UNL     1      19.785   2.861  51.440  1.00  0.00     0.199 C 
HETATM    5  N3  UNL     1      21.075   2.225  51.439  1.00  0.00    -0.270 N 
HETATM    6  C4  UNL     1      21.603   1.328  52.405  1.00  0.00     0.063 A 
HETATM    7  C5  UNL     1      20.679   1.043  53.304  1.00  0.00     0.032 A 
HETATM    8  C6  UNL     1      20.656   0.201  54.495  1.00  0.00     0.002 A 
HETATM    9  C7  UNL     1      21.688  -0.537  54.939  1.00  0.00     0.002 A 
HETATM   10  C8  UNL     1      23.040  -0.723  54.429  1.00  0.00     0.025 A 
HETATM   11  C9  UNL     1      23.567  -0.159  53.339  1.00  0.00     0.046 A 
HETATM   12 CL1  UNL     1      25.228  -0.536  52.920  1.00  0.00    -0.083 Cl
HETATM   13  C10 UNL     1      22.947   0.766  52.396  1.00  0.00     0.013 A 
HETATM   14  C11 UNL     1      23.698   1.154  51.391  1.00  0.00     0.021 A 
HETATM   15  C12 UNL     1      23.385   2.079  50.351  1.00  0.00     0.187 A 
HETATM   16  C13 UNL     1      24.051   3.487  50.559  1.00  0.00     0.002 C 
HETATM   17 BR1  UNL     1      25.880   3.854  50.225  1.00  0.00    -0.057 Br
HETATM   18  C14 UNL     1      23.403   4.639  51.008  1.00  0.00     0.052 C 
HETATM   19  C15 UNL     1      22.257   5.472  51.499  1.00  0.00     0.126 C 
HETATM   20  N4  UNL     1      21.029   4.902  51.747  1.00  0.00    -0.398 N 
HETATM   21  N5  UNL     1      21.974   2.540  50.420  1.00  0.00    -0.107 N 
HETATM   22  H15 UNL     1      20.544   5.417  52.532  1.00  0.00     0.155 HD
ENDROOT
BRANCH   1  23
HETATM   23  N1  UNL     1      22.680   3.778  48.331  1.00  0.00    -0.232 N 
HETATM   24  H1  UNL     1      23.427   4.523  48.275  1.00  0.00     0.174 HD
HETATM   25  H2  UNL     1      23.287   3.876  47.522  1.00  0.00     0.174 HD
ENDBRANCH   1  23
TORSDOF 1
ENDMDL
MODEL 7
REMARK VINA RESULT:      -7.2      3.240      4.798
REMARK  1 active torsions:
REMARK  status: ('A' for Active; 'I' for Inactive)
REMARK    1  A    between atoms: N1_1  and  C1_2 
ROOT
HETATM    1  C1  UNL     1      23.437   2.776  50.006  1.00  0.00     0.713 C 
HETATM    2  N2  UNL     1      22.661   3.494  49.235  1.00  0.00    -0.079 NA
HETATM    3  C2  UNL     1      21.357   3.882  49.776  1.00  0.00     0.240 C 
HETATM    4  C3  UNL     1      20.507   2.523  49.750  1.00  0.00     0.199 C 
HETATM    5  N3  UNL     1      21.231   1.710  50.691  1.00  0.00    -0.270 N 
HETATM    6  C4  UNL     1      20.700   0.791  51.634  1.00  0.00     0.063 A 
HETATM    7  C5  UNL     1      19.394   0.680  51.466  1.00  0.00     0.032 A 
HETATM    8  C6  UNL     1      18.354  -0.096  52.132  1.00  0.00     0.002 A 
HETATM    9  C7  UNL     1      18.561  -0.952  53.147  1.00  0.00     0.002 A 
HETATM   10  C8  UNL     1      19.772  -1.352  53.851  1.00  0.00     0.025 A 
HETATM   11  C9  UNL     1      21.013  -0.918  53.614  1.00  0.00     0.046 A 
HETATM   12 CL1  UNL     1      22.322  -1.546  54.598  1.00  0.00    -0.083 Cl
HETATM   13  C10 UNL     1      21.472   0.043  52.617  1.00  0.00     0.013 A 
HETATM   14  C11 UNL     1      22.764   0.276  52.593  1.00  0.00     0.021 A 
HETATM   15  C12 UNL     1      23.489   1.189  51.771  1.00  0.00     0.187 A 
HETATM   16  C13 UNL     1      23.918   2.495  52.532  1.00  0.00     0.002 C 
HETATM   17 BR1  UNL     1      25.358   2.582  53.760  1.00  0.00    -0.057 Br
HETATM   18  C14 UNL     1      23.311   3.746  52.411  1.00  0.00     0.052 C 
HETATM   19  C15 UNL     1      22.322   4.755  51.908  1.00  0.00     0.126 C 
HETATM   20  N4  UNL     1      21.296   4.378  51.071  1.00  0.00    -0.398 N 
HETATM   21  N5  UNL     1      22.617   1.848  50.766  1.00  0.00    -0.107 N 
HETATM   22  H15 UNL     1      20.451   4.990  51.236  1.00  0.00     0.155 HD
ENDROOT
BRANCH   1  23
HETATM   23  N1  UNL     1      24.826   2.879  50.091  1.00  0.00    -0.232 N 
HETATM   24  H1  UNL     1      25.578   2.439  49.496  1.00  0.00     0.174 HD
HETATM   25  H2  UNL     1      25.814   3.039  50.263  1.00  0.00     0.174 HD
ENDBRANCH   1  23
TORSDOF 1
ENDMDL
MODEL 8
REMARK VINA RESULT:      -7.2      3.342      5.715
REMARK  1 active torsions:
REMARK  status: ('A' for Active; 'I' for Inactive)
REMARK    1  A    between atoms: N1_1  and  C1_2 
ROOT
HETATM    1  C1  UNL     1      20.487   1.517  49.736  1.00  0.00     0.713 C 
HETATM    2  N2  UNL     1      19.825   0.800  50.608  1.00  0.00    -0.079 NA
HETATM    3  C2  UNL     1      20.169   0.979  52.020  1.00  0.00     0.240 C 
HETATM    4  C3  UNL     1      21.591   0.254  52.166  1.00  0.00     0.199 C 
HETATM    5  N3  UNL     1      22.424   1.076  51.327  1.00  0.00    -0.270 N 
HETATM    6  C4  UNL     1      23.773   1.457  51.547  1.00  0.00     0.063 A 
HETATM    7  C5  UNL     1      24.241   0.847  52.622  1.00  0.00     0.032 A 
HETATM    8  C6  UNL     1      25.528   0.860  53.308  1.00  0.00     0.002 A 
HETATM    9  C7  UNL     1      26.604   1.565  52.919  1.00  0.00     0.002 A 
HETATM   10  C8  UNL     1      26.822   2.462  51.793  1.00  0.00     0.025 A 
HETATM   11  C9  UNL     1      25.935   2.791  50.850  1.00  0.00     0.046 A 
HETATM   12 CL1  UNL     1      26.429   3.899  49.584  1.00  0.00    -0.083 Cl
HETATM   13  C10 UNL     1      24.551   2.352  50.702  1.00  0.00     0.013 A 
HETATM   14  C11 UNL     1      23.905   2.824  49.661  1.00  0.00     0.021 A 
HETATM   15  C12 UNL     1      22.545   2.612  49.286  1.00  0.00     0.187 A 
HETATM   16  C13 UNL     1      21.619   3.839  49.611  1.00  0.00     0.002 C 
HETATM   17 BR1  UNL     1      21.569   5.431  48.586  1.00  0.00    -0.057 Br
HETATM   18  C14 UNL     1      20.723   3.925  50.678  1.00  0.00     0.052 C 
HETATM   19  C15 UNL     1      20.000   3.469  51.911  1.00  0.00     0.126 C 
HETATM   20  N4  UNL     1      20.316   2.270  52.509  1.00  0.00    -0.398 N 
HETATM   21  N5  UNL     1      21.866   1.637  50.178  1.00  0.00    -0.107 N 
HETATM   22  H15 UNL     1      20.158   2.333  53.551  1.00  0.00     0.155 HD
ENDROOT
BRANCH   1  23
HETATM   23  N1  UNL     1      19.963   2.078  48.572  1.00  0.00    -0.232 N 
HETATM   24  H1  UNL     1      19.059   2.600  48.416  1.00  0.00     0.174 HD
HETATM   25  H2  UNL     1      19.697   2.438  47.660  1.00  0.00     0.174 HD
ENDBRANCH   1  23
TORSDOF 1
ENDMDL
MODEL 9
REMARK VINA RESULT:      -7.1      4.879      7.214
REMARK  1 active torsions:
REMARK  status: ('A' for Active; 'I' for Inactive)
REMARK    1  A    between atoms: N1_1  and  C1_2 
ROOT
HETATM    1  C1  UNL     1      22.853   3.438  49.961  1.00  0.00     0.713 C 
HETATM    2  N2  UNL     1      23.414   2.405  50.536  1.00  0.00    -0.079 NA
HETATM    3  C2  UNL     1      24.687   2.633  51.223  1.00  0.00     0.240 C 
HETATM    4  C3  UNL     1      25.741   2.827  50.031  1.00  0.00     0.199 C 
HETATM    5  N3  UNL     1      25.265   4.038  49.417  1.00  0.00    -0.270 N 
HETATM    6  C4  UNL     1      26.037   5.094  48.866  1.00  0.00     0.063 A 
HETATM    7  C5  UNL     1      27.318   4.771  48.885  1.00  0.00     0.032 A 
HETATM    8  C6  UNL     1      28.536   5.451  48.461  1.00  0.00     0.002 A 
HETATM    9  C7  UNL     1      28.583   6.668  47.893  1.00  0.00     0.002 A 
HETATM   10  C8  UNL     1      27.536   7.620  47.546  1.00  0.00     0.025 A 
HETATM   11  C9  UNL     1      26.223   7.466  47.733  1.00  0.00     0.046 A 
HETATM   12 CL1  UNL     1      25.147   8.757  47.232  1.00  0.00    -0.083 Cl
HETATM   13  C10 UNL     1      25.508   6.337  48.320  1.00  0.00     0.013 A 
HETATM   14  C11 UNL     1      24.200   6.444  48.366  1.00  0.00     0.021 A 
HETATM   15  C12 UNL     1      23.251   5.534  48.919  1.00  0.00     0.187 A 
HETATM   16  C13 UNL     1      22.698   5.995  50.316  1.00  0.00     0.002 C 
HETATM   17 BR1  UNL     1      21.403   7.358  50.545  1.00  0.00    -0.057 Br
HETATM   18  C14 UNL     1      23.075   5.474  51.555  1.00  0.00     0.052 C 
HETATM   19  C15 UNL     1      23.825   4.593  52.509  1.00  0.00     0.126 C 
HETATM   20  N4  UNL     1      24.803   3.738  52.056  1.00  0.00    -0.398 N 
HETATM   21  N5  UNL     1      23.891   4.278  49.388  1.00  0.00    -0.107 N 
HETATM   22  H15 UNL     1      25.549   3.617  52.794  1.00  0.00     0.155 HD
ENDROOT
BRANCH   1  23
HETATM   23  N1  UNL     1      21.484   3.696  49.901  1.00  0.00    -0.232 N 
HETATM   24  H1  UNL     1      20.944   4.365  49.288  1.00  0.00     0.174 HD
HETATM   25  H2  UNL     1      20.474   3.789  49.960  1.00  0.00     0.174 HD
ENDBRANCH   1  23
TORSDOF 1
ENDMDL
