MODEL 1
REMARK VINA RESULT:      -7.4      0.000      0.000
REMARK  7 active torsions:
REMARK  status: ('A' for Active; 'I' for Inactive)
REMARK    1  A    between atoms: N1_2  and  C3_4 
REMARK    2  A    between atoms: C3_4  and  C4_5 
REMARK    3  A    between atoms: C4_5  and  C5_6 
REMARK       I    between atoms: C5_6  and  N2_8 
REMARK    4  A    between atoms: C9_12  and  C10_13 
REMARK    5  A    between atoms: C10_13  and  S1_14 
REMARK    6  A    between atoms: S1_14  and  N3_15 
REMARK    7  A    between atoms: S1_14  and  C11_16 
ROOT
HETATM    1  C5  UNL     1      19.507   0.603  51.727  1.00  0.00     0.221 C 
HETATM    2  O1  UNL     1      19.610   1.513  50.834  1.00  0.00    -0.273 OA
HETATM    3  N2  UNL     1      20.492   0.466  52.765  1.00  0.00    -0.344 N 
HETATM    4  C6  UNL     1      20.410  -0.539  53.781  1.00  0.00     0.153 C 
HETATM    5  C7  UNL     1      21.704  -1.205  54.095  1.00  0.00    -0.006 C 
HETATM    6  C8  UNL     1      22.892  -0.644  53.789  1.00  0.00     0.015 C 
HETATM    7  C9  UNL     1      22.766   0.624  53.145  1.00  0.00     0.013 C 
HETATM    8  C17 UNL     1      21.615   1.412  52.753  1.00  0.00     0.173 C 
ENDROOT
BRANCH   7   9
HETATM    9  C10 UNL     1      23.892   1.241  52.822  1.00  0.00    -0.066 C 
BRANCH   9  10
HETATM   10  S1  UNL     1      25.189   2.140  52.499  1.00  0.00    -0.046 SA
BRANCH  10  11
HETATM   11  N3  UNL     1      24.828   3.757  52.033  1.00  0.00    -0.273 NA
HETATM   12  H15 UNL     1      25.221   4.471  52.675  1.00  0.00     0.132 HD
HETATM   13  H16 UNL     1      23.821   3.980  51.889  1.00  0.00     0.132 HD
ENDBRANCH  10  11
BRANCH  10  14
HETATM   14  C11 UNL     1      26.683   1.330  52.927  1.00  0.00     0.018 A 
HETATM   15  C12 UNL     1      27.860   1.883  53.440  1.00  0.00     0.023 A 
HETATM   16  C13 UNL     1      28.967   1.090  53.727  1.00  0.00     0.045 A 
HETATM   17  C14 UNL     1      28.927  -0.277  53.509  1.00  0.00     0.138 A 
HETATM   18  F1  UNL     1      30.053  -0.981  53.817  1.00  0.00    -0.204 F 
HETATM   19  C15 UNL     1      27.765  -0.863  52.996  1.00  0.00     0.073 A 
HETATM   20 CL1  UNL     1      27.748  -2.587  52.732  1.00  0.00    -0.081 Cl
HETATM   21  C16 UNL     1      26.672  -0.054  52.717  1.00  0.00     0.046 A 
ENDBRANCH  10  14
ENDBRANCH   9  10
ENDBRANCH   7   9
BRANCH   1  22
HETATM   22  C4  UNL     1      18.361  -0.374  51.751  1.00  0.00     0.122 C 
BRANCH  22  23
HETATM   23  C3  UNL     1      17.111   0.448  52.006  1.00  0.00     0.125 C 
BRANCH  23  24
HETATM   24  N1  UNL     1      16.083  -0.279  52.706  1.00  0.00    -0.420 N 
HETATM   25  C1  UNL     1      14.825   0.388  52.808  1.00  0.00     0.142 C 
HETATM   26  C2  UNL     1      16.036  -1.659  52.352  1.00  0.00     0.142 C 
ENDBRANCH  23  24
ENDBRANCH  22  23
ENDBRANCH   1  22
TORSDOF 7
ENDMDL
MODEL 2
REMARK VINA RESULT:      -7.2      5.262      8.423
REMARK  7 active torsions:
REMARK  status: ('A' for Active; 'I' for Inactive)
REMARK    1  A    between atoms: N1_2  and  C3_4 
REMARK    2  A    between atoms: C3_4  and  C4_5 
REMARK    3  A    between atoms: C4_5  and  C5_6 
REMARK       I    between atoms: C5_6  and  N2_8 
REMARK    4  A    between atoms: C9_12  and  C10_13 
REMARK    5  A    between atoms: C10_13  and  S1_14 
REMARK    6  A    between atoms: S1_14  and  N3_15 
REMARK    7  A    between atoms: S1_14  and  C11_16 
ROOT
HETATM    1  C5  UNL     1      26.064   1.139  54.176  1.00  0.00     0.221 C 
HETATM    2  O1  UNL     1      26.518   2.335  54.169  1.00  0.00    -0.273 OA
HETATM    3  N2  UNL     1      24.900   0.782  53.413  1.00  0.00    -0.344 N 
HETATM    4  C6  UNL     1      24.364  -0.545  53.397  1.00  0.00     0.153 C 
HETATM    5  C7  UNL     1      22.878  -0.611  53.476  1.00  0.00    -0.006 C 
HETATM    6  C8  UNL     1      22.096   0.442  53.162  1.00  0.00     0.015 C 
HETATM    7  C9  UNL     1      22.838   1.593  52.757  1.00  0.00     0.013 C 
HETATM    8  C17 UNL     1      24.258   1.846  52.630  1.00  0.00     0.173 C 
ENDROOT
BRANCH   7   9
HETATM    9  C10 UNL     1      22.136   2.664  52.423  1.00  0.00    -0.066 C 
BRANCH   9  10
HETATM   10  S1  UNL     1      21.229   3.876  51.871  1.00  0.00    -0.046 SA
BRANCH  10  11
HETATM   11  N3  UNL     1      19.535   3.624  52.042  1.00  0.00    -0.273 NA
HETATM   12  H15 UNL     1      19.100   4.215  52.775  1.00  0.00     0.132 HD
HETATM   13  H16 UNL     1      19.231   2.641  52.206  1.00  0.00     0.132 HD
ENDBRANCH  10  11
BRANCH  10  14
HETATM   14  C11 UNL     1      22.186   5.279  51.438  1.00  0.00     0.018 A 
HETATM   15  C12 UNL     1      23.552   5.499  51.642  1.00  0.00     0.023 A 
HETATM   16  C13 UNL     1      24.162   6.682  51.235  1.00  0.00     0.045 A 
HETATM   17  C14 UNL     1      23.424   7.675  50.613  1.00  0.00     0.138 A 
HETATM   18  F1  UNL     1      24.097   8.802  50.245  1.00  0.00    -0.204 F 
HETATM   19  C15 UNL     1      22.055   7.486  50.394  1.00  0.00     0.073 A 
HETATM   20 CL1  UNL     1      21.155   8.758  49.609  1.00  0.00    -0.081 Cl
HETATM   21  C16 UNL     1      21.467   6.299  50.807  1.00  0.00     0.046 A 
ENDBRANCH  10  14
ENDBRANCH   9  10
ENDBRANCH   7   9
BRANCH   1  22
HETATM   22  C4  UNL     1      26.712   0.039  54.975  1.00  0.00     0.122 C 
BRANCH  22  23
HETATM   23  C3  UNL     1      28.210   0.224  54.813  1.00  0.00     0.125 C 
BRANCH  23  24
HETATM   24  N1  UNL     1      28.722  -0.313  53.578  1.00  0.00    -0.420 N 
HETATM   25  C1  UNL     1      30.144  -0.357  53.474  1.00  0.00     0.142 C 
HETATM   26  C2  UNL     1      28.023  -1.479  53.145  1.00  0.00     0.142 C 
ENDBRANCH  23  24
ENDBRANCH  22  23
ENDBRANCH   1  22
TORSDOF 7
ENDMDL
MODEL 3
REMARK VINA RESULT:      -7.1      5.155      8.033
REMARK  7 active torsions:
REMARK  status: ('A' for Active; 'I' for Inactive)
REMARK    1  A    between atoms: N1_2  and  C3_4 
REMARK    2  A    between atoms: C3_4  and  C4_5 
REMARK    3  A    between atoms: C4_5  and  C5_6 
REMARK       I    between atoms: C5_6  and  N2_8 
REMARK    4  A    between atoms: C9_12  and  C10_13 
REMARK    5  A    between atoms: C10_13  and  S1_14 
REMARK    6  A    between atoms: S1_14  and  N3_15 
REMARK    7  A    between atoms: S1_14  and  C11_16 
ROOT
HETATM    1  C5  UNL     1      26.584   1.591  53.882  1.00  0.00     0.221 C 
HETATM    2  O1  UNL     1      27.422   2.555  53.905  1.00  0.00    -0.273 OA
HETATM    3  N2  UNL     1      25.477   1.590  52.965  1.00  0.00    -0.344 N 
HETATM    4  C6  UNL     1      24.519   0.528  52.910  1.00  0.00     0.153 C 
HETATM    5  C7  UNL     1      23.107   0.978  52.769  1.00  0.00    -0.006 C 
HETATM    6  C8  UNL     1      22.787   2.206  52.309  1.00  0.00     0.015 C 
HETATM    7  C9  UNL     1      23.930   2.999  51.984  1.00  0.00     0.013 C 
HETATM    8  C17 UNL     1      25.353   2.742  52.063  1.00  0.00     0.173 C 
ENDROOT
BRANCH   7   9
HETATM    9  C10 UNL     1      23.695   4.214  51.516  1.00  0.00    -0.066 C 
BRANCH   9  10
HETATM   10  S1  UNL     1      23.354   5.737  51.112  1.00  0.00    -0.046 SA
BRANCH  10  11
HETATM   11  N3  UNL     1      21.846   6.306  51.713  1.00  0.00    -0.273 NA
HETATM   12  H15 UNL     1      21.882   7.279  52.071  1.00  0.00     0.132 HD
HETATM   13  H16 UNL     1      21.390   5.717  52.442  1.00  0.00     0.132 HD
ENDBRANCH  10  11
BRANCH  10  14
HETATM   14  C11 UNL     1      24.713   6.541  50.351  1.00  0.00     0.018 A 
HETATM   15  C12 UNL     1      24.971   7.912  50.253  1.00  0.00     0.023 A 
HETATM   16  C13 UNL     1      26.108   8.389  49.606  1.00  0.00     0.045 A 
HETATM   17  C14 UNL     1      27.015   7.508  49.041  1.00  0.00     0.138 A 
HETATM   18  F1  UNL     1      28.102   8.057  48.427  1.00  0.00    -0.204 F 
HETATM   19  C15 UNL     1      26.786   6.131  49.121  1.00  0.00     0.073 A 
HETATM   20 CL1  UNL     1      27.949   5.050  48.397  1.00  0.00    -0.081 Cl
HETATM   21  C16 UNL     1      25.647   5.677  49.770  1.00  0.00     0.046 A 
ENDBRANCH  10  14
ENDBRANCH   9  10
ENDBRANCH   7   9
BRANCH   1  22
HETATM   22  C4  UNL     1      26.699   0.404  54.802  1.00  0.00     0.122 C 
BRANCH  22  23
HETATM   23  C3  UNL     1      28.168   0.024  54.821  1.00  0.00     0.125 C 
BRANCH  23  24
HETATM   24  N1  UNL     1      28.604  -0.631  53.614  1.00  0.00    -0.420 N 
HETATM   25  C1  UNL     1      29.959  -1.079  53.619  1.00  0.00     0.142 C 
HETATM   26  C2  UNL     1      27.641  -1.545  53.096  1.00  0.00     0.142 C 
ENDBRANCH  23  24
ENDBRANCH  22  23
ENDBRANCH   1  22
TORSDOF 7
ENDMDL
MODEL 4
REMARK VINA RESULT:      -7.1      4.057      8.656
REMARK  7 active torsions:
REMARK  status: ('A' for Active; 'I' for Inactive)
REMARK    1  A    between atoms: N1_2  and  C3_4 
REMARK    2  A    between atoms: C3_4  and  C4_5 
REMARK    3  A    between atoms: C4_5  and  C5_6 
REMARK       I    between atoms: C5_6  and  N2_8 
REMARK    4  A    between atoms: C9_12  and  C10_13 
REMARK    5  A    between atoms: C10_13  and  S1_14 
REMARK    6  A    between atoms: S1_14  and  N3_15 
REMARK    7  A    between atoms: S1_14  and  C11_16 
ROOT
HETATM    1  C5  UNL     1      25.649   0.833  52.449  1.00  0.00     0.221 C 
HETATM    2  O1  UNL     1      24.998  -0.082  53.061  1.00  0.00    -0.273 OA
HETATM    3  N2  UNL     1      24.968   1.898  51.765  1.00  0.00    -0.344 N 
HETATM    4  C6  UNL     1      25.662   2.939  51.071  1.00  0.00     0.153 C 
HETATM    5  C7  UNL     1      25.070   3.304  49.754  1.00  0.00    -0.006 C 
HETATM    6  C8  UNL     1      23.792   3.011  49.437  1.00  0.00     0.015 C 
HETATM    7  C9  UNL     1      23.096   2.329  50.482  1.00  0.00     0.013 C 
HETATM    8  C17 UNL     1      23.500   1.887  51.800  1.00  0.00     0.173 C 
ENDROOT
BRANCH   7   9
HETATM    9  C10 UNL     1      21.831   2.017  50.246  1.00  0.00    -0.066 C 
BRANCH   9  10
HETATM   10  S1  UNL     1      20.328   1.665  49.786  1.00  0.00    -0.046 SA
BRANCH  10  11
HETATM   11  N3  UNL     1      19.950   2.148  48.179  1.00  0.00    -0.273 NA
HETATM   12  H15 UNL     1      19.356   2.997  48.129  1.00  0.00     0.132 HD
HETATM   13  H16 UNL     1      19.515   1.422  47.571  1.00  0.00     0.132 HD
ENDBRANCH  10  11
BRANCH  10  14
HETATM   14  C11 UNL     1      19.496   0.654  50.952  1.00  0.00     0.018 A 
HETATM   15  C12 UNL     1      18.166   0.223  50.941  1.00  0.00     0.023 A 
HETATM   16  C13 UNL     1      17.658  -0.583  51.956  1.00  0.00     0.045 A 
HETATM   17  C14 UNL     1      18.467  -0.980  53.008  1.00  0.00     0.138 A 
HETATM   18  F1  UNL     1      17.893  -1.769  53.959  1.00  0.00    -0.204 F 
HETATM   19  C15 UNL     1      19.802  -0.566  53.049  1.00  0.00     0.073 A 
HETATM   20 CL1  UNL     1      20.793  -1.083  54.389  1.00  0.00    -0.081 Cl
HETATM   21  C16 UNL     1      20.288   0.237  52.027  1.00  0.00     0.046 A 
ENDBRANCH  10  14
ENDBRANCH   9  10
ENDBRANCH   7   9
BRANCH   1  22
HETATM   22  C4  UNL     1      27.154   0.856  52.405  1.00  0.00     0.122 C 
BRANCH  22  23
HETATM   23  C3  UNL     1      27.616  -0.443  53.039  1.00  0.00     0.125 C 
BRANCH  23  24
HETATM   24  N1  UNL     1      28.731  -0.276  53.937  1.00  0.00    -0.420 N 
HETATM   25  C1  UNL     1      29.854  -1.118  53.678  1.00  0.00     0.142 C 
HETATM   26  C2  UNL     1      29.020   1.091  54.218  1.00  0.00     0.142 C 
ENDBRANCH  23  24
ENDBRANCH  22  23
ENDBRANCH   1  22
TORSDOF 7
ENDMDL
MODEL 5
REMARK VINA RESULT:      -7.0      6.649     10.433
REMARK  7 active torsions:
REMARK  status: ('A' for Active; 'I' for Inactive)
REMARK    1  A    between atoms: N1_2  and  C3_4 
REMARK    2  A    between atoms: C3_4  and  C4_5 
REMARK    3  A    between atoms: C4_5  and  C5_6 
REMARK       I    between atoms: C5_6  and  N2_8 
REMARK    4  A    between atoms: C9_12  and  C10_13 
REMARK    5  A    between atoms: C10_13  and  S1_14 
REMARK    6  A    between atoms: S1_14  and  N3_15 
REMARK    7  A    between atoms: S1_14  and  C11_16 
ROOT
HETATM    1  C5  UNL     1      27.661   8.920  49.644  1.00  0.00     0.221 C 
HETATM    2  O1  UNL     1      26.779   9.398  50.437  1.00  0.00    -0.273 OA
HETATM    3  N2  UNL     1      27.434   7.690  48.936  1.00  0.00    -0.344 N 
HETATM    4  C6  UNL     1      28.397   7.125  48.040  1.00  0.00     0.153 C 
HETATM    5  C7  UNL     1      28.559   5.650  48.160  1.00  0.00    -0.006 C 
HETATM    6  C8  UNL     1      27.616   4.868  48.725  1.00  0.00     0.015 C 
HETATM    7  C9  UNL     1      26.478   5.601  49.182  1.00  0.00     0.013 C 
HETATM    8  C17 UNL     1      26.151   7.012  49.163  1.00  0.00     0.173 C 
ENDROOT
BRANCH   7   9
HETATM    9  C10 UNL     1      25.504   4.899  49.739  1.00  0.00    -0.066 C 
BRANCH   9  10
HETATM   10  S1  UNL     1      24.349   3.921  50.290  1.00  0.00    -0.046 SA
BRANCH  10  11
HETATM   11  N3  UNL     1      22.768   4.311  49.733  1.00  0.00    -0.273 NA
HETATM   12  H15 UNL     1      22.624   4.114  48.725  1.00  0.00     0.132 HD
HETATM   13  H16 UNL     1      22.445   5.284  49.914  1.00  0.00     0.132 HD
ENDBRANCH  10  11
BRANCH  10  14
HETATM   14  C11 UNL     1      25.002   2.536  51.144  1.00  0.00     0.018 A 
HETATM   15  C12 UNL     1      26.329   2.100  51.212  1.00  0.00     0.023 A 
HETATM   16  C13 UNL     1      26.681   0.967  51.941  1.00  0.00     0.045 A 
HETATM   17  C14 UNL     1      25.717   0.242  52.621  1.00  0.00     0.138 A 
HETATM   18  F1  UNL     1      26.146  -0.853  53.310  1.00  0.00    -0.204 F 
HETATM   19  C15 UNL     1      24.380   0.651  52.573  1.00  0.00     0.073 A 
HETATM   20 CL1  UNL     1      23.191  -0.286  53.440  1.00  0.00    -0.081 Cl
HETATM   21  C16 UNL     1      24.051   1.783  51.841  1.00  0.00     0.046 A 
ENDBRANCH  10  14
ENDBRANCH   9  10
ENDBRANCH   7   9
BRANCH   1  22
HETATM   22  C4  UNL     1      28.980   9.605  49.402  1.00  0.00     0.122 C 
BRANCH  22  23
HETATM   23  C3  UNL     1      28.647  10.992  48.882  1.00  0.00     0.125 C 
BRANCH  23  24
HETATM   24  N1  UNL     1      29.759  11.642  48.237  1.00  0.00    -0.420 N 
HETATM   25  C1  UNL     1      30.648  12.339  49.109  1.00  0.00     0.142 C 
HETATM   26  C2  UNL     1      30.368  10.838  47.230  1.00  0.00     0.142 C 
ENDBRANCH  23  24
ENDBRANCH  22  23
ENDBRANCH   1  22
TORSDOF 7
ENDMDL
MODEL 6
REMARK VINA RESULT:      -6.9      4.049      6.879
REMARK  7 active torsions:
REMARK  status: ('A' for Active; 'I' for Inactive)
REMARK    1  A    between atoms: N1_2  and  C3_4 
REMARK    2  A    between atoms: C3_4  and  C4_5 
REMARK    3  A    between atoms: C4_5  and  C5_6 
REMARK       I    between atoms: C5_6  and  N2_8 
REMARK    4  A    between atoms: C9_12  and  C10_13 
REMARK    5  A    between atoms: C10_13  and  S1_14 
REMARK    6  A    between atoms: S1_14  and  N3_15 
REMARK    7  A    between atoms: S1_14  and  C11_16 
ROOT
HETATM    1  C5  UNL     1      25.208   4.720  49.818  1.00  0.00     0.221 C 
HETATM    2  O1  UNL     1      26.305   4.075  49.694  1.00  0.00    -0.273 OA
HETATM    3  N2  UNL     1      24.316   4.465  50.917  1.00  0.00    -0.344 N 
HETATM    4  C6  UNL     1      23.081   5.167  51.089  1.00  0.00     0.153 C 
HETATM    5  C7  UNL     1      21.936   4.309  51.501  1.00  0.00    -0.006 C 
HETATM    6  C8  UNL     1      22.115   3.099  52.070  1.00  0.00     0.015 C 
HETATM    7  C9  UNL     1      23.491   2.749  52.226  1.00  0.00     0.013 C 
HETATM    8  C17 UNL     1      24.720   3.435  51.883  1.00  0.00     0.173 C 
ENDROOT
BRANCH   7   9
HETATM    9  C10 UNL     1      23.745   1.578  52.788  1.00  0.00    -0.066 C 
BRANCH   9  10
HETATM   10  S1  UNL     1      24.133   0.107  53.318  1.00  0.00    -0.046 SA
BRANCH  10  11
HETATM   11  N3  UNL     1      22.783  -0.926  53.584  1.00  0.00    -0.273 NA
HETATM   12  H15 UNL     1      21.872  -0.431  53.568  1.00  0.00     0.132 HD
HETATM   13  H16 UNL     1      22.813  -1.506  54.449  1.00  0.00     0.132 HD
ENDBRANCH  10  11
BRANCH  10  14
HETATM   14  C11 UNL     1      25.862  -0.180  53.274  1.00  0.00     0.018 A 
HETATM   15  C12 UNL     1      26.543  -1.355  52.940  1.00  0.00     0.023 A 
HETATM   16  C13 UNL     1      27.933  -1.415  52.957  1.00  0.00     0.045 A 
HETATM   17  C14 UNL     1      28.679  -0.303  53.309  1.00  0.00     0.138 A 
HETATM   18  F1  UNL     1      30.035  -0.445  53.301  1.00  0.00    -0.204 F 
HETATM   19  C15 UNL     1      28.029   0.888  53.650  1.00  0.00     0.073 A 
HETATM   20 CL1  UNL     1      29.000   2.270  54.089  1.00  0.00    -0.081 Cl
HETATM   21  C16 UNL     1      26.642   0.926  53.625  1.00  0.00     0.046 A 
ENDBRANCH  10  14
ENDBRANCH   9  10
ENDBRANCH   7   9
BRANCH   1  22
HETATM   22  C4  UNL     1      24.782   5.778  48.835  1.00  0.00     0.122 C 
BRANCH  22  23
HETATM   23  C3  UNL     1      25.885   6.821  48.832  1.00  0.00     0.125 C 
BRANCH  23  24
HETATM   24  N1  UNL     1      25.713   7.837  49.839  1.00  0.00    -0.420 N 
HETATM   25  C1  UNL     1      26.836   8.694  50.039  1.00  0.00     0.142 C 
HETATM   26  C2  UNL     1      24.439   8.473  49.778  1.00  0.00     0.142 C 
ENDBRANCH  23  24
ENDBRANCH  22  23
ENDBRANCH   1  22
TORSDOF 7
ENDMDL
MODEL 7
REMARK VINA RESULT:      -6.9      4.280      7.575
REMARK  7 active torsions:
REMARK  status: ('A' for Active; 'I' for Inactive)
REMARK    1  A    between atoms: N1_2  and  C3_4 
REMARK    2  A    between atoms: C3_4  and  C4_5 
REMARK    3  A    between atoms: C4_5  and  C5_6 
REMARK       I    between atoms: C5_6  and  N2_8 
REMARK    4  A    between atoms: C9_12  and  C10_13 
REMARK    5  A    between atoms: C10_13  and  S1_14 
REMARK    6  A    between atoms: S1_14  and  N3_15 
REMARK    7  A    between atoms: S1_14  and  C11_16 
ROOT
HETATM    1  C5  UNL     1      24.995   0.212  52.946  1.00  0.00     0.221 C 
HETATM    2  O1  UNL     1      25.524   1.060  52.149  1.00  0.00    -0.273 OA
HETATM    3  N2  UNL     1      23.571   0.022  52.991  1.00  0.00    -0.344 N 
HETATM    4  C6  UNL     1      22.945  -0.918  53.870  1.00  0.00     0.153 C 
HETATM    5  C7  UNL     1      21.710  -0.415  54.532  1.00  0.00    -0.006 C 
HETATM    6  C8  UNL     1      21.010   0.631  54.045  1.00  0.00     0.015 C 
HETATM    7  C9  UNL     1      21.578   1.182  52.856  1.00  0.00     0.013 C 
HETATM    8  C17 UNL     1      22.756   0.841  52.085  1.00  0.00     0.173 C 
ENDROOT
BRANCH   7   9
HETATM    9  C10 UNL     1      20.939   2.207  52.313  1.00  0.00    -0.066 C 
BRANCH   9  10
HETATM   10  S1  UNL     1      20.280   3.560  51.738  1.00  0.00    -0.046 SA
BRANCH  10  11
HETATM   11  N3  UNL     1      18.574   3.654  51.938  1.00  0.00    -0.273 NA
HETATM   12  H15 UNL     1      18.268   3.585  52.927  1.00  0.00     0.132 HD
HETATM   13  H16 UNL     1      18.008   2.978  51.383  1.00  0.00     0.132 HD
ENDBRANCH  10  11
BRANCH  10  14
HETATM   14  C11 UNL     1      21.489   4.733  51.251  1.00  0.00     0.018 A 
HETATM   15  C12 UNL     1      21.346   6.113  51.080  1.00  0.00     0.023 A 
HETATM   16  C13 UNL     1      22.418   6.908  50.684  1.00  0.00     0.045 A 
HETATM   17  C14 UNL     1      23.660   6.343  50.449  1.00  0.00     0.138 A 
HETATM   18  F1  UNL     1      24.656   7.191  50.065  1.00  0.00    -0.204 F 
HETATM   19  C15 UNL     1      23.837   4.965  50.611  1.00  0.00     0.073 A 
HETATM   20 CL1  UNL     1      25.415   4.287  50.305  1.00  0.00    -0.081 Cl
HETATM   21  C16 UNL     1      22.756   4.191  51.007  1.00  0.00     0.046 A 
ENDBRANCH  10  14
ENDBRANCH   9  10
ENDBRANCH   7   9
BRANCH   1  22
HETATM   22  C4  UNL     1      25.819  -0.635  53.880  1.00  0.00     0.122 C 
BRANCH  22  23
HETATM   23  C3  UNL     1      27.016  -1.109  53.076  1.00  0.00     0.125 C 
BRANCH  23  24
HETATM   24  N1  UNL     1      28.268  -0.572  53.544  1.00  0.00    -0.420 N 
HETATM   25  C1  UNL     1      28.202   0.145  54.775  1.00  0.00     0.142 C 
HETATM   26  C2  UNL     1      29.354  -1.486  53.405  1.00  0.00     0.142 C 
ENDBRANCH  23  24
ENDBRANCH  22  23
ENDBRANCH   1  22
TORSDOF 7
ENDMDL
MODEL 8
REMARK VINA RESULT:      -6.9      4.067      8.322
REMARK  7 active torsions:
REMARK  status: ('A' for Active; 'I' for Inactive)
REMARK    1  A    between atoms: N1_2  and  C3_4 
REMARK    2  A    between atoms: C3_4  and  C4_5 
REMARK    3  A    between atoms: C4_5  and  C5_6 
REMARK       I    between atoms: C5_6  and  N2_8 
REMARK    4  A    between atoms: C9_12  and  C10_13 
REMARK    5  A    between atoms: C10_13  and  S1_14 
REMARK    6  A    between atoms: S1_14  and  N3_15 
REMARK    7  A    between atoms: S1_14  and  C11_16 
ROOT
HETATM    1  C5  UNL     1      24.890   1.307  53.177  1.00  0.00     0.221 C 
HETATM    2  O1  UNL     1      24.469   2.071  52.242  1.00  0.00    -0.273 OA
HETATM    3  N2  UNL     1      24.171   0.118  53.545  1.00  0.00    -0.344 N 
HETATM    4  C6  UNL     1      24.611  -0.761  54.585  1.00  0.00     0.153 C 
HETATM    5  C7  UNL     1      23.525  -1.252  55.478  1.00  0.00    -0.006 C 
HETATM    6  C8  UNL     1      22.228  -1.234  55.107  1.00  0.00     0.015 C 
HETATM    7  C9  UNL     1      22.026  -0.704  53.796  1.00  0.00     0.013 C 
HETATM    8  C17 UNL     1      22.938  -0.177  52.802  1.00  0.00     0.173 C 
ENDROOT
BRANCH   7   9
HETATM    9  C10 UNL     1      20.777  -0.664  53.359  1.00  0.00    -0.066 C 
BRANCH   9  10
HETATM   10  S1  UNL     1      19.246  -0.453  52.904  1.00  0.00    -0.046 SA
BRANCH  10  11
HETATM   11  N3  UNL     1      18.091  -1.166  53.961  1.00  0.00    -0.273 NA
HETATM   12  H15 UNL     1      17.310  -1.637  53.467  1.00  0.00     0.132 HD
HETATM   13  H16 UNL     1      17.676  -0.536  54.680  1.00  0.00     0.132 HD
ENDBRANCH  10  11
BRANCH  10  14
HETATM   14  C11 UNL     1      19.100   0.661  51.558  1.00  0.00     0.018 A 
HETATM   15  C12 UNL     1      18.075   1.572  51.288  1.00  0.00     0.023 A 
HETATM   16  C13 UNL     1      18.113   2.391  50.163  1.00  0.00     0.045 A 
HETATM   17  C14 UNL     1      19.176   2.319  49.278  1.00  0.00     0.138 A 
HETATM   18  F1  UNL     1      19.137   3.154  48.202  1.00  0.00    -0.204 F 
HETATM   19  C15 UNL     1      20.218   1.417  49.519  1.00  0.00     0.073 A 
HETATM   20 CL1  UNL     1      21.541   1.351  48.384  1.00  0.00    -0.081 Cl
HETATM   21  C16 UNL     1      20.160   0.610  50.647  1.00  0.00     0.046 A 
ENDBRANCH  10  14
ENDBRANCH   9  10
ENDBRANCH   7   9
BRANCH   1  22
HETATM   22  C4  UNL     1      26.151   1.597  53.946  1.00  0.00     0.122 C 
BRANCH  22  23
HETATM   23  C3  UNL     1      27.300   1.324  52.992  1.00  0.00     0.125 C 
BRANCH  23  24
HETATM   24  N1  UNL     1      28.178   0.274  53.442  1.00  0.00    -0.420 N 
HETATM   25  C1  UNL     1      28.549   0.336  54.818  1.00  0.00     0.142 C 
HETATM   26  C2  UNL     1      27.811  -1.011  52.946  1.00  0.00     0.142 C 
ENDBRANCH  23  24
ENDBRANCH  22  23
ENDBRANCH   1  22
TORSDOF 7
ENDMDL
MODEL 9
REMARK VINA RESULT:      -6.8      6.842     10.690
REMARK  7 active torsions:
REMARK  status: ('A' for Active; 'I' for Inactive)
REMARK    1  A    between atoms: N1_2  and  C3_4 
REMARK    2  A    between atoms: C3_4  and  C4_5 
REMARK    3  A    between atoms: C4_5  and  C5_6 
REMARK       I    between atoms: C5_6  and  N2_8 
REMARK    4  A    between atoms: C9_12  and  C10_13 
REMARK    5  A    between atoms: C10_13  and  S1_14 
REMARK    6  A    between atoms: S1_14  and  N3_15 
REMARK    7  A    between atoms: S1_14  and  C11_16 
ROOT
HETATM    1  C5  UNL     1      27.792   8.877  49.716  1.00  0.00     0.221 C 
HETATM    2  O1  UNL     1      27.150   9.580  50.569  1.00  0.00    -0.273 OA
HETATM    3  N2  UNL     1      27.212   7.694  49.141  1.00  0.00    -0.344 N 
HETATM    4  C6  UNL     1      27.900   6.883  48.184  1.00  0.00     0.153 C 
HETATM    5  C7  UNL     1      27.757   5.417  48.401  1.00  0.00    -0.006 C 
HETATM    6  C8  UNL     1      26.754   4.895  49.137  1.00  0.00     0.015 C 
HETATM    7  C9  UNL     1      25.874   5.886  49.669  1.00  0.00     0.013 C 
HETATM    8  C17 UNL     1      25.857   7.331  49.577  1.00  0.00     0.173 C 
ENDROOT
BRANCH   7   9
HETATM    9  C10 UNL     1      24.857   5.448  50.396  1.00  0.00    -0.066 C 
BRANCH   9  10
HETATM   10  S1  UNL     1      23.618   5.078  51.356  1.00  0.00    -0.046 SA
BRANCH  10  11
HETATM   11  N3  UNL     1      22.403   6.294  51.442  1.00  0.00    -0.273 NA
HETATM   12  H15 UNL     1      21.785   6.206  52.270  1.00  0.00     0.132 HD
HETATM   13  H16 UNL     1      21.795   6.395  50.602  1.00  0.00     0.132 HD
ENDBRANCH  10  11
BRANCH  10  14
HETATM   14  C11 UNL     1      23.679   3.416  51.909  1.00  0.00     0.018 A 
HETATM   15  C12 UNL     1      24.623   2.808  52.743  1.00  0.00     0.023 A 
HETATM   16  C13 UNL     1      24.525   1.463  53.086  1.00  0.00     0.045 A 
HETATM   17  C14 UNL     1      23.482   0.690  52.605  1.00  0.00     0.138 A 
HETATM   18  F1  UNL     1      23.459  -0.618  52.989  1.00  0.00    -0.204 F 
HETATM   19  C15 UNL     1      22.521   1.267  51.767  1.00  0.00     0.073 A 
HETATM   20 CL1  UNL     1      21.221   0.264  51.178  1.00  0.00    -0.081 Cl
HETATM   21  C16 UNL     1      22.637   2.610  51.438  1.00  0.00     0.046 A 
ENDBRANCH  10  14
ENDBRANCH   9  10
ENDBRANCH   7   9
BRANCH   1  22
HETATM   22  C4  UNL     1      29.182   9.237  49.261  1.00  0.00     0.122 C 
BRANCH  22  23
HETATM   23  C3  UNL     1      29.059  10.567  48.539  1.00  0.00     0.125 C 
BRANCH  23  24
HETATM   24  N1  UNL     1      30.328  11.203  48.294  1.00  0.00    -0.420 N 
HETATM   25  C1  UNL     1      30.667  11.378  46.919  1.00  0.00     0.142 C 
HETATM   26  C2  UNL     1      30.567  12.319  49.149  1.00  0.00     0.142 C 
ENDBRANCH  23  24
ENDBRANCH  22  23
ENDBRANCH   1  22
TORSDOF 7
ENDMDL
