MODEL 1
REMARK VINA RESULT:      -7.9      0.000      0.000
REMARK  6 active torsions:
REMARK  status: ('A' for Active; 'I' for Inactive)
REMARK    1  A    between atoms: O1_2  and  C2_3 
REMARK    2  A    between atoms: C5_6  and  N1_7 
REMARK    3  A    between atoms: N1_7  and  C6_8 
REMARK    4  A    between atoms: C10_15  and  C11_16 
REMARK    5  A    between atoms: C11_16  and  N5_17 
REMARK    6  A    between atoms: C15_21  and  N6_22 
ROOT
HETATM    1  C6  UNL     1      23.819   0.623  52.581  1.00  0.00     0.159 A 
HETATM    2  N2  UNL     1      22.594   0.457  52.059  1.00  0.00    -0.220 NA
HETATM    3  C7  UNL     1      21.664  -0.323  52.582  1.00  0.00     0.258 A 
HETATM    4  N3  UNL     1      22.001  -0.971  53.699  1.00  0.00    -0.161 NA
HETATM    5  N4  UNL     1      23.186  -0.863  54.276  1.00  0.00    -0.240 N 
HETATM    6  C8  UNL     1      23.671  -1.439  55.383  1.00  0.00     0.119 A 
HETATM    7  C9  UNL     1      24.970  -0.966  55.517  1.00  0.00     0.030 A 
HETATM    8  C10 UNL     1      25.286  -0.084  54.474  1.00  0.00     0.004 A 
HETATM    9  C16 UNL     1      24.141  -0.056  53.730  1.00  0.00     0.112 A 
ENDROOT
BRANCH   1  10
HETATM   10  N1  UNL     1      24.693   1.500  51.892  1.00  0.00    -0.339 N 
HETATM   11  H6  UNL     1      25.645   1.473  51.485  1.00  0.00     0.167 HD
BRANCH  10  12
HETATM   12  C5  UNL     1      24.300   2.842  51.585  1.00  0.00     0.035 A 
HETATM   13  C4  UNL     1      23.858   3.587  52.669  1.00  0.00     0.032 A 
HETATM   14  C3  UNL     1      23.471   4.903  52.521  1.00  0.00     0.041 A 
HETATM   15  C2  UNL     1      23.500   5.551  51.311  1.00  0.00     0.090 A 
HETATM   16  C18 UNL     1      23.946   4.799  50.217  1.00  0.00     0.069 A 
HETATM   17  C17 UNL     1      24.333   3.481  50.357  1.00  0.00     0.056 A 
HETATM   18 CL1  UNL     1      24.068   5.418  48.571  1.00  0.00    -0.081 Cl
BRANCH  15  19
HETATM   19  O1  UNL     1      23.156   6.846  50.980  1.00  0.00    -0.354 OA
HETATM   20  C1  UNL     1      21.873   7.331  50.726  1.00  0.00     0.210 C 
ENDBRANCH  15  19
ENDBRANCH  10  12
ENDBRANCH   1  10
BRANCH   8  21
HETATM   21  C11 UNL     1      26.545   0.629  54.238  1.00  0.00     0.316 C 
BRANCH  21  22
HETATM   22  N5  UNL     1      27.657  -0.312  54.265  1.00  0.00     0.126 N 
HETATM   23  C12 UNL     1      27.803  -0.915  52.953  1.00  0.00     0.276 C 
HETATM   24  C13 UNL     1      29.118  -1.654  53.140  1.00  0.00     0.034 C 
HETATM   25  C14 UNL     1      29.910  -0.678  54.009  1.00  0.00     0.070 C 
HETATM   26  C15 UNL     1      28.922   0.419  54.344  1.00  0.00     0.451 C 
BRANCH  26  27
HETATM   27  N6  UNL     1      28.988   1.434  53.312  1.00  0.00     0.112 N 
HETATM   28  H19 UNL     1      28.320   2.216  53.438  1.00  0.00     0.315 HD
HETATM   29  H20 UNL     1      29.968   1.748  53.123  1.00  0.00     0.315 HD
ENDBRANCH  26  27
ENDBRANCH  21  22
ENDBRANCH   8  21
TORSDOF 6
ENDMDL
MODEL 2
REMARK VINA RESULT:      -7.9      3.335      6.480
REMARK  6 active torsions:
REMARK  status: ('A' for Active; 'I' for Inactive)
REMARK    1  A    between atoms: O1_2  and  C2_3 
REMARK    2  A    between atoms: C5_6  and  N1_7 
REMARK    3  A    between atoms: N1_7  and  C6_8 
REMARK    4  A    between atoms: C10_15  and  C11_16 
REMARK    5  A    between atoms: C11_16  and  N5_17 
REMARK    6  A    between atoms: C15_21  and  N6_22 
ROOT
HETATM    1  C6  UNL     1      22.824   1.329  52.495  1.00  0.00     0.159 A 
HETATM    2  N2  UNL     1      22.024   0.599  53.289  1.00  0.00    -0.220 NA
HETATM    3  C7  UNL     1      20.912   0.011  52.883  1.00  0.00     0.258 A 
HETATM    4  N3  UNL     1      20.596   0.177  51.597  1.00  0.00    -0.161 NA
HETATM    5  N4  UNL     1      21.329   0.881  50.750  1.00  0.00    -0.240 N 
HETATM    6  C8  UNL     1      21.150   1.137  49.448  1.00  0.00     0.119 A 
HETATM    7  C9  UNL     1      22.226   1.927  49.066  1.00  0.00     0.030 A 
HETATM    8  C10 UNL     1      23.081   2.158  50.154  1.00  0.00     0.004 A 
HETATM    9  C16 UNL     1      22.475   1.484  51.177  1.00  0.00     0.112 A 
ENDROOT
BRANCH   1  10
HETATM   10  N1  UNL     1      23.980   1.887  53.094  1.00  0.00    -0.339 N 
HETATM   11  H6  UNL     1      24.273   2.794  53.502  1.00  0.00     0.167 HD
BRANCH  10  12
HETATM   12  C5  UNL     1      25.170   1.110  53.268  1.00  0.00     0.035 A 
HETATM   13  C4  UNL     1      26.137   1.690  54.076  1.00  0.00     0.032 A 
HETATM   14  C3  UNL     1      27.323   1.041  54.348  1.00  0.00     0.041 A 
HETATM   15  C2  UNL     1      27.619  -0.202  53.845  1.00  0.00     0.090 A 
HETATM   16  C18 UNL     1      26.643  -0.787  53.029  1.00  0.00     0.069 A 
HETATM   17  C17 UNL     1      25.453  -0.143  52.752  1.00  0.00     0.056 A 
HETATM   18 CL1  UNL     1      26.800  -2.372  52.275  1.00  0.00    -0.081 Cl
BRANCH  15  19
HETATM   19  O1  UNL     1      28.739  -0.992  54.010  1.00  0.00    -0.354 OA
HETATM   20  C1  UNL     1      30.016  -0.746  53.507  1.00  0.00     0.210 C 
ENDBRANCH  15  19
ENDBRANCH  10  12
ENDBRANCH   1  10
BRANCH   8  21
HETATM   21  C11 UNL     1      24.320   2.939  50.184  1.00  0.00     0.316 C 
BRANCH  21  22
HETATM   22  N5  UNL     1      24.019   4.350  49.973  1.00  0.00     0.126 N 
HETATM   23  C12 UNL     1      23.990   5.028  51.256  1.00  0.00     0.276 C 
HETATM   24  C13 UNL     1      23.899   6.473  50.795  1.00  0.00     0.034 C 
HETATM   25  C14 UNL     1      24.798   6.470  49.560  1.00  0.00     0.070 C 
HETATM   26  C15 UNL     1      25.172   5.016  49.366  1.00  0.00     0.451 C 
BRANCH  26  27
HETATM   27  N6  UNL     1      26.376   4.741  50.126  1.00  0.00     0.112 N 
HETATM   28  H19 UNL     1      26.240   4.733  51.153  1.00  0.00     0.315 HD
HETATM   29  H20 UNL     1      26.893   3.906  49.766  1.00  0.00     0.315 HD
ENDBRANCH  26  27
ENDBRANCH  21  22
ENDBRANCH   8  21
TORSDOF 6
ENDMDL
MODEL 3
REMARK VINA RESULT:      -7.8      3.399      6.595
REMARK  6 active torsions:
REMARK  status: ('A' for Active; 'I' for Inactive)
REMARK    1  A    between atoms: O1_2  and  C2_3 
REMARK    2  A    between atoms: C5_6  and  N1_7 
REMARK    3  A    between atoms: N1_7  and  C6_8 
REMARK    4  A    between atoms: C10_15  and  C11_16 
REMARK    5  A    between atoms: C11_16  and  N5_17 
REMARK    6  A    between atoms: C15_21  and  N6_22 
ROOT
HETATM    1  C6  UNL     1      24.480   2.897  51.310  1.00  0.00     0.159 A 
HETATM    2  N2  UNL     1      25.163   3.578  50.376  1.00  0.00    -0.220 NA
HETATM    3  C7  UNL     1      24.755   3.740  49.129  1.00  0.00     0.258 A 
HETATM    4  N3  UNL     1      23.587   3.177  48.816  1.00  0.00    -0.161 NA
HETATM    5  N4  UNL     1      22.853   2.490  49.677  1.00  0.00    -0.240 N 
HETATM    6  C8  UNL     1      21.675   1.873  49.518  1.00  0.00     0.119 A 
HETATM    7  C9  UNL     1      21.373   1.313  50.753  1.00  0.00     0.030 A 
HETATM    8  C10 UNL     1      22.385   1.593  51.683  1.00  0.00     0.004 A 
HETATM    9  C16 UNL     1      23.281   2.327  50.961  1.00  0.00     0.112 A 
ENDROOT
BRANCH   1  10
HETATM   10  N1  UNL     1      25.062   2.824  52.600  1.00  0.00    -0.339 N 
HETATM   11  H6  UNL     1      25.020   3.347  53.493  1.00  0.00     0.167 HD
BRANCH  10  12
HETATM   12  C5  UNL     1      25.993   1.788  52.932  1.00  0.00     0.035 A 
HETATM   13  C4  UNL     1      27.031   2.177  53.767  1.00  0.00     0.032 A 
HETATM   14  C3  UNL     1      27.986   1.274  54.186  1.00  0.00     0.041 A 
HETATM   15  C2  UNL     1      27.971  -0.047  53.811  1.00  0.00     0.090 A 
HETATM   16  C18 UNL     1      26.924  -0.439  52.968  1.00  0.00     0.069 A 
HETATM   17  C17 UNL     1      25.964   0.459  52.543  1.00  0.00     0.056 A 
HETATM   18 CL1  UNL     1      26.700  -2.078  52.360  1.00  0.00    -0.081 Cl
BRANCH  15  19
HETATM   19  O1  UNL     1      28.831  -1.078  54.130  1.00  0.00    -0.354 OA
HETATM   20  C1  UNL     1      30.126  -1.265  53.648  1.00  0.00     0.210 C 
ENDBRANCH  15  19
ENDBRANCH  10  12
ENDBRANCH   1  10
BRANCH   8  21
HETATM   21  C11 UNL     1      22.460   1.186  53.090  1.00  0.00     0.316 C 
BRANCH  21  22
HETATM   22  N5  UNL     1      22.045  -0.204  53.225  1.00  0.00     0.126 N 
HETATM   23  C12 UNL     1      22.806  -0.828  54.292  1.00  0.00     0.276 C 
HETATM   24  C13 UNL     1      22.070  -2.151  54.411  1.00  0.00     0.034 C 
HETATM   25  C14 UNL     1      20.620  -1.731  54.180  1.00  0.00     0.070 C 
HETATM   26  C15 UNL     1      20.704  -0.266  53.807  1.00  0.00     0.451 C 
BRANCH  26  27
HETATM   27  N6  UNL     1      20.640   0.525  55.020  1.00  0.00     0.112 N 
HETATM   28  H19 UNL     1      19.785   0.372  55.585  1.00  0.00     0.315 HD
HETATM   29  H20 UNL     1      21.524   0.474  55.578  1.00  0.00     0.315 HD
ENDBRANCH  26  27
ENDBRANCH  21  22
ENDBRANCH   8  21
TORSDOF 6
ENDMDL
MODEL 4
REMARK VINA RESULT:      -7.6      2.916      4.179
REMARK  6 active torsions:
REMARK  status: ('A' for Active; 'I' for Inactive)
REMARK    1  A    between atoms: O1_2  and  C2_3 
REMARK    2  A    between atoms: C5_6  and  N1_7 
REMARK    3  A    between atoms: N1_7  and  C6_8 
REMARK    4  A    between atoms: C10_15  and  C11_16 
REMARK    5  A    between atoms: C11_16  and  N5_17 
REMARK    6  A    between atoms: C15_21  and  N6_22 
ROOT
HETATM    1  C6  UNL     1      23.953   2.911  50.176  1.00  0.00     0.159 A 
HETATM    2  N2  UNL     1      23.613   3.227  48.917  1.00  0.00    -0.220 NA
HETATM    3  C7  UNL     1      22.624   2.658  48.251  1.00  0.00     0.258 A 
HETATM    4  N3  UNL     1      21.944   1.713  48.903  1.00  0.00    -0.161 NA
HETATM    5  N4  UNL     1      22.216   1.342  50.144  1.00  0.00    -0.240 N 
HETATM    6  C8  UNL     1      21.635   0.423  50.925  1.00  0.00     0.119 A 
HETATM    7  C9  UNL     1      22.330   0.456  52.128  1.00  0.00     0.030 A 
HETATM    8  C10 UNL     1      23.354   1.413  52.081  1.00  0.00     0.004 A 
HETATM    9  C16 UNL     1      23.238   1.935  50.824  1.00  0.00     0.112 A 
ENDROOT
BRANCH   1  10
HETATM   10  N1  UNL     1      25.040   3.624  50.741  1.00  0.00    -0.339 N 
HETATM   11  H6  UNL     1      25.529   3.684  51.653  1.00  0.00     0.167 HD
BRANCH  10  12
HETATM   12  C5  UNL     1      25.789   4.565  49.965  1.00  0.00     0.035 A 
HETATM   13  C4  UNL     1      26.927   4.052  49.359  1.00  0.00     0.032 A 
HETATM   14  C3  UNL     1      27.729   4.843  48.562  1.00  0.00     0.041 A 
HETATM   15  C2  UNL     1      27.457   6.167  48.320  1.00  0.00     0.090 A 
HETATM   16  C18 UNL     1      26.309   6.684  48.933  1.00  0.00     0.069 A 
HETATM   17  C17 UNL     1      25.501   5.899  49.732  1.00  0.00     0.056 A 
HETATM   18 CL1  UNL     1      25.761   8.351  48.766  1.00  0.00    -0.081 Cl
BRANCH  15  19
HETATM   19  O1  UNL     1      28.137   7.097  47.560  1.00  0.00    -0.354 OA
HETATM   20  C1  UNL     1      29.304   7.773  47.914  1.00  0.00     0.210 C 
ENDBRANCH  15  19
ENDBRANCH  10  12
ENDBRANCH   1  10
BRANCH   8  21
HETATM   21  C11 UNL     1      24.317   1.762  53.129  1.00  0.00     0.316 C 
BRANCH  21  22
HETATM   22  N5  UNL     1      25.260   0.666  53.316  1.00  0.00     0.126 N 
HETATM   23  C12 UNL     1      26.107   0.561  52.142  1.00  0.00     0.276 C 
HETATM   24  C13 UNL     1      27.129  -0.450  52.636  1.00  0.00     0.034 C 
HETATM   25  C14 UNL     1      27.302  -0.039  54.097  1.00  0.00     0.070 C 
HETATM   26  C15 UNL     1      26.264   1.042  54.313  1.00  0.00     0.451 C 
BRANCH  26  27
HETATM   27  N6  UNL     1      26.854   2.324  53.982  1.00  0.00     0.112 N 
HETATM   28  H19 UNL     1      27.638   2.605  54.598  1.00  0.00     0.315 HD
HETATM   29  H20 UNL     1      27.072   2.412  52.962  1.00  0.00     0.315 HD
ENDBRANCH  26  27
ENDBRANCH  21  22
ENDBRANCH   8  21
TORSDOF 6
ENDMDL
MODEL 5
REMARK VINA RESULT:      -7.5      1.578      4.495
REMARK  6 active torsions:
REMARK  status: ('A' for Active; 'I' for Inactive)
REMARK    1  A    between atoms: O1_2  and  C2_3 
REMARK    2  A    between atoms: C5_6  and  N1_7 
REMARK    3  A    between atoms: N1_7  and  C6_8 
REMARK    4  A    between atoms: C10_15  and  C11_16 
REMARK    5  A    between atoms: C11_16  and  N5_17 
REMARK    6  A    between atoms: C15_21  and  N6_22 
ROOT
HETATM    1  C6  UNL     1      26.311   1.549  52.352  1.00  0.00     0.159 A 
HETATM    2  N2  UNL     1      27.412   2.314  52.301  1.00  0.00    -0.220 NA
HETATM    3  C7  UNL     1      28.329   2.361  53.253  1.00  0.00     0.258 A 
HETATM    4  N3  UNL     1      28.110   1.585  54.316  1.00  0.00    -0.161 NA
HETATM    5  N4  UNL     1      27.051   0.802  54.444  1.00  0.00    -0.240 N 
HETATM    6  C8  UNL     1      26.693  -0.024  55.435  1.00  0.00     0.119 A 
HETATM    7  C9  UNL     1      25.489  -0.591  55.038  1.00  0.00     0.030 A 
HETATM    8  C10 UNL     1      25.104  -0.104  53.781  1.00  0.00     0.004 A 
HETATM    9  C16 UNL     1      26.110   0.760  53.457  1.00  0.00     0.112 A 
ENDROOT
BRANCH   1  10
HETATM   10  N1  UNL     1      25.434   1.619  51.241  1.00  0.00    -0.339 N 
HETATM   11  H6  UNL     1      25.221   1.061  50.394  1.00  0.00     0.167 HD
BRANCH  10  12
HETATM   12  C5  UNL     1      24.509   2.702  51.098  1.00  0.00     0.035 A 
HETATM   13  C4  UNL     1      24.171   3.345  52.280  1.00  0.00     0.032 A 
HETATM   14  C3  UNL     1      23.308   4.421  52.286  1.00  0.00     0.041 A 
HETATM   15  C2  UNL     1      22.738   4.919  51.140  1.00  0.00     0.090 A 
HETATM   16  C18 UNL     1      23.079   4.269  49.947  1.00  0.00     0.069 A 
HETATM   17  C17 UNL     1      23.941   3.191  49.934  1.00  0.00     0.056 A 
HETATM   18 CL1  UNL     1      22.472   4.731  48.358  1.00  0.00    -0.081 Cl
BRANCH  15  19
HETATM   19  O1  UNL     1      21.865   5.973  50.958  1.00  0.00    -0.354 OA
HETATM   20  C1  UNL     1      22.202   7.311  50.757  1.00  0.00     0.210 C 
ENDBRANCH  15  19
ENDBRANCH  10  12
ENDBRANCH   1  10
BRANCH   8  21
HETATM   21  C11 UNL     1      23.904  -0.438  53.007  1.00  0.00     0.316 C 
BRANCH  21  22
HETATM   22  N5  UNL     1      22.772   0.344  53.489  1.00  0.00     0.126 N 
HETATM   23  C12 UNL     1      21.787   0.459  52.429  1.00  0.00     0.276 C 
HETATM   24  C13 UNL     1      20.635   1.084  53.198  1.00  0.00     0.034 C 
HETATM   25  C14 UNL     1      20.736   0.379  54.550  1.00  0.00     0.070 C 
HETATM   26  C15 UNL     1      22.005  -0.441  54.456  1.00  0.00     0.451 C 
BRANCH  26  27
HETATM   27  N6  UNL     1      21.677  -1.743  53.909  1.00  0.00     0.112 N 
HETATM   28  H19 UNL     1      21.814  -1.822  52.885  1.00  0.00     0.315 HD
HETATM   29  H20 UNL     1      22.112  -2.525  54.451  1.00  0.00     0.315 HD
ENDBRANCH  26  27
ENDBRANCH  21  22
ENDBRANCH   8  21
TORSDOF 6
ENDMDL
MODEL 6
REMARK VINA RESULT:      -7.5      1.573      2.042
REMARK  6 active torsions:
REMARK  status: ('A' for Active; 'I' for Inactive)
REMARK    1  A    between atoms: O1_2  and  C2_3 
REMARK    2  A    between atoms: C5_6  and  N1_7 
REMARK    3  A    between atoms: N1_7  and  C6_8 
REMARK    4  A    between atoms: C10_15  and  C11_16 
REMARK    5  A    between atoms: C11_16  and  N5_17 
REMARK    6  A    between atoms: C15_21  and  N6_22 
ROOT
HETATM    1  C6  UNL     1      21.676   0.732  51.408  1.00  0.00     0.159 A 
HETATM    2  N2  UNL     1      20.357   0.709  51.158  1.00  0.00    -0.220 NA
HETATM    3  C7  UNL     1      19.458   0.170  51.964  1.00  0.00     0.258 A 
HETATM    4  N3  UNL     1      19.930  -0.376  53.087  1.00  0.00    -0.161 NA
HETATM    5  N4  UNL     1      21.213  -0.395  53.407  1.00  0.00    -0.240 N 
HETATM    6  C8  UNL     1      21.835  -0.897  54.482  1.00  0.00     0.119 A 
HETATM    7  C9  UNL     1      23.186  -0.636  54.293  1.00  0.00     0.030 A 
HETATM    8  C10 UNL     1      23.394   0.038  53.081  1.00  0.00     0.004 A 
HETATM    9  C16 UNL     1      22.134   0.163  52.570  1.00  0.00     0.112 A 
ENDROOT
BRANCH   1  10
HETATM   10  N1  UNL     1      22.499   1.353  50.436  1.00  0.00    -0.339 N 
HETATM   11  H6  UNL     1      22.908   1.120  49.513  1.00  0.00     0.167 HD
BRANCH  10  12
HETATM   12  C5  UNL     1      22.986   2.686  50.624  1.00  0.00     0.035 A 
HETATM   13  C4  UNL     1      22.222   3.476  51.471  1.00  0.00     0.032 A 
HETATM   14  C3  UNL     1      22.589   4.774  51.761  1.00  0.00     0.041 A 
HETATM   15  C2  UNL     1      23.717   5.358  51.239  1.00  0.00     0.090 A 
HETATM   16  C18 UNL     1      24.488   4.560  50.384  1.00  0.00     0.069 A 
HETATM   17  C17 UNL     1      24.126   3.261  50.089  1.00  0.00     0.056 A 
HETATM   18 CL1  UNL     1      25.973   5.094  49.600  1.00  0.00    -0.081 Cl
BRANCH  15  19
HETATM   19  O1  UNL     1      24.233   6.626  51.416  1.00  0.00    -0.354 OA
HETATM   20  C1  UNL     1      23.776   7.804  50.827  1.00  0.00     0.210 C 
ENDBRANCH  15  19
ENDBRANCH  10  12
ENDBRANCH   1  10
BRANCH   8  21
HETATM   21  C11 UNL     1      24.662   0.493  52.502  1.00  0.00     0.316 C 
BRANCH  21  22
HETATM   22  N5  UNL     1      25.776  -0.018  53.292  1.00  0.00     0.126 N 
HETATM   23  C12 UNL     1      26.902  -0.279  52.414  1.00  0.00     0.276 C 
HETATM   24  C13 UNL     1      27.984  -0.566  53.442  1.00  0.00     0.034 C 
HETATM   25  C14 UNL     1      27.645   0.431  54.548  1.00  0.00     0.070 C 
HETATM   26  C15 UNL     1      26.340   1.059  54.106  1.00  0.00     0.451 C 
BRANCH  26  27
HETATM   27  N6  UNL     1      26.636   2.216  53.284  1.00  0.00     0.112 N 
HETATM   28  H19 UNL     1      27.637   2.485  53.271  1.00  0.00     0.315 HD
HETATM   29  H20 UNL     1      26.210   2.148  52.331  1.00  0.00     0.315 HD
ENDBRANCH  26  27
ENDBRANCH  21  22
ENDBRANCH   8  21
TORSDOF 6
ENDMDL
MODEL 7
REMARK VINA RESULT:      -7.4      3.225      6.670
REMARK  6 active torsions:
REMARK  status: ('A' for Active; 'I' for Inactive)
REMARK    1  A    between atoms: O1_2  and  C2_3 
REMARK    2  A    between atoms: C5_6  and  N1_7 
REMARK    3  A    between atoms: N1_7  and  C6_8 
REMARK    4  A    between atoms: C10_15  and  C11_16 
REMARK    5  A    between atoms: C11_16  and  N5_17 
REMARK    6  A    between atoms: C15_21  and  N6_22 
ROOT
HETATM    1  C6  UNL     1      23.062  -0.078  53.222  1.00  0.00     0.159 A 
HETATM    2  N2  UNL     1      23.501  -0.677  54.340  1.00  0.00    -0.220 NA
HETATM    3  C7  UNL     1      22.718  -1.299  55.205  1.00  0.00     0.258 A 
HETATM    4  N3  UNL     1      21.416  -1.311  54.914  1.00  0.00    -0.161 NA
HETATM    5  N4  UNL     1      20.903  -0.745  53.834  1.00  0.00    -0.240 N 
HETATM    6  C8  UNL     1      19.636  -0.671  53.408  1.00  0.00     0.119 A 
HETATM    7  C9  UNL     1      19.679   0.041  52.216  1.00  0.00     0.030 A 
HETATM    8  C10 UNL     1      20.997   0.409  51.908  1.00  0.00     0.004 A 
HETATM    9  C16 UNL     1      21.718  -0.104  52.947  1.00  0.00     0.112 A 
ENDROOT
BRANCH   1  10
HETATM   10  N1  UNL     1      24.040   0.541  52.404  1.00  0.00    -0.339 N 
HETATM   11  H6  UNL     1      24.068   1.128  51.551  1.00  0.00     0.167 HD
BRANCH  10  12
HETATM   12  C5  UNL     1      25.434   0.426  52.705  1.00  0.00     0.035 A 
HETATM   13  C4  UNL     1      25.951  -0.858  52.610  1.00  0.00     0.032 A 
HETATM   14  C3  UNL     1      27.286  -1.110  52.849  1.00  0.00     0.041 A 
HETATM   15  C2  UNL     1      28.176  -0.122  53.192  1.00  0.00     0.090 A 
HETATM   16  C18 UNL     1      27.654   1.174  53.289  1.00  0.00     0.069 A 
HETATM   17  C17 UNL     1      26.319   1.434  53.051  1.00  0.00     0.056 A 
HETATM   18 CL1  UNL     1      28.604   2.597  53.712  1.00  0.00    -0.081 Cl
BRANCH  15  19
HETATM   19  O1  UNL     1      29.528  -0.188  53.464  1.00  0.00    -0.354 OA
HETATM   20  C1  UNL     1      30.243  -1.312  53.877  1.00  0.00     0.210 C 
ENDBRANCH  15  19
ENDBRANCH  10  12
ENDBRANCH   1  10
BRANCH   8  21
HETATM   21  C11 UNL     1      21.479   1.169  50.750  1.00  0.00     0.316 C 
BRANCH  21  22
HETATM   22  N5  UNL     1      20.943   2.524  50.791  1.00  0.00     0.126 N 
HETATM   23  C12 UNL     1      21.709   3.310  51.742  1.00  0.00     0.276 C 
HETATM   24  C13 UNL     1      21.153   4.694  51.457  1.00  0.00     0.034 C 
HETATM   25  C14 UNL     1      20.966   4.657  49.942  1.00  0.00     0.070 C 
HETATM   26  C15 UNL     1      21.285   3.228  49.555  1.00  0.00     0.451 C 
BRANCH  26  27
HETATM   27  N6  UNL     1      22.705   3.126  49.287  1.00  0.00     0.112 N 
HETATM   28  H19 UNL     1      22.990   3.480  48.355  1.00  0.00     0.315 HD
HETATM   29  H20 UNL     1      23.288   3.500  50.072  1.00  0.00     0.315 HD
ENDBRANCH  26  27
ENDBRANCH  21  22
ENDBRANCH   8  21
TORSDOF 6
ENDMDL
MODEL 8
REMARK VINA RESULT:      -7.3      2.216      5.146
REMARK  6 active torsions:
REMARK  status: ('A' for Active; 'I' for Inactive)
REMARK    1  A    between atoms: O1_2  and  C2_3 
REMARK    2  A    between atoms: C5_6  and  N1_7 
REMARK    3  A    between atoms: N1_7  and  C6_8 
REMARK    4  A    between atoms: C10_15  and  C11_16 
REMARK    5  A    between atoms: C11_16  and  N5_17 
REMARK    6  A    between atoms: C15_21  and  N6_22 
ROOT
HETATM    1  C6  UNL     1      26.639   1.988  51.989  1.00  0.00     0.159 A 
HETATM    2  N2  UNL     1      27.853   2.495  52.255  1.00  0.00    -0.220 NA
HETATM    3  C7  UNL     1      28.521   2.272  53.374  1.00  0.00     0.258 A 
HETATM    4  N3  UNL     1      27.918   1.490  54.272  1.00  0.00    -0.161 NA
HETATM    5  N4  UNL     1      26.723   0.953  54.087  1.00  0.00    -0.240 N 
HETATM    6  C8  UNL     1      25.994   0.158  54.880  1.00  0.00     0.119 A 
HETATM    7  C9  UNL     1      24.822  -0.102  54.180  1.00  0.00     0.030 A 
HETATM    8  C10 UNL     1      24.836   0.546  52.937  1.00  0.00     0.004 A 
HETATM    9  C16 UNL     1      26.041   1.188  52.930  1.00  0.00     0.112 A 
ENDROOT
BRANCH   1  10
HETATM   10  N1  UNL     1      26.067   2.327  50.738  1.00  0.00    -0.339 N 
HETATM   11  H6  UNL     1      25.628   1.839  49.936  1.00  0.00     0.167 HD
BRANCH  10  12
HETATM   12  C5  UNL     1      25.992   3.689  50.305  1.00  0.00     0.035 A 
HETATM   13  C4  UNL     1      26.888   4.038  49.303  1.00  0.00     0.032 A 
HETATM   14  C3  UNL     1      26.908   5.312  48.776  1.00  0.00     0.041 A 
HETATM   15  C2  UNL     1      26.057   6.302  49.199  1.00  0.00     0.090 A 
HETATM   16  C18 UNL     1      25.153   5.951  50.210  1.00  0.00     0.069 A 
HETATM   17  C17 UNL     1      25.128   4.678  50.744  1.00  0.00     0.056 A 
HETATM   18 CL1  UNL     1      23.968   7.053  50.909  1.00  0.00    -0.081 Cl
BRANCH  15  19
HETATM   19  O1  UNL     1      25.936   7.615  48.791  1.00  0.00    -0.354 OA
HETATM   20  C1  UNL     1      25.334   8.074  47.620  1.00  0.00     0.210 C 
ENDBRANCH  15  19
ENDBRANCH  10  12
ENDBRANCH   1  10
BRANCH   8  21
HETATM   21  C11 UNL     1      23.800   0.538  51.899  1.00  0.00     0.316 C 
BRANCH  21  22
HETATM   22  N5  UNL     1      22.524   0.949  52.473  1.00  0.00     0.126 N 
HETATM   23  C12 UNL     1      22.275   2.339  52.133  1.00  0.00     0.276 C 
HETATM   24  C13 UNL     1      20.840   2.480  52.611  1.00  0.00     0.034 C 
HETATM   25  C14 UNL     1      20.246   1.122  52.241  1.00  0.00     0.070 C 
HETATM   26  C15 UNL     1      21.427   0.315  51.742  1.00  0.00     0.451 C 
BRANCH  26  27
HETATM   27  N6  UNL     1      21.570   0.534  50.317  1.00  0.00     0.112 N 
HETATM   28  H19 UNL     1      21.151  -0.208  49.727  1.00  0.00     0.315 HD
HETATM   29  H20 UNL     1      21.290   1.502  50.032  1.00  0.00     0.315 HD
ENDBRANCH  26  27
ENDBRANCH  21  22
ENDBRANCH   8  21
TORSDOF 6
ENDMDL
MODEL 9
REMARK VINA RESULT:      -7.2      3.755      5.328
REMARK  6 active torsions:
REMARK  status: ('A' for Active; 'I' for Inactive)
REMARK    1  A    between atoms: O1_2  and  C2_3 
REMARK    2  A    between atoms: C5_6  and  N1_7 
REMARK    3  A    between atoms: N1_7  and  C6_8 
REMARK    4  A    between atoms: C10_15  and  C11_16 
REMARK    5  A    between atoms: C11_16  and  N5_17 
REMARK    6  A    between atoms: C15_21  and  N6_22 
ROOT
HETATM    1  C6  UNL     1      24.003   4.606  49.621  1.00  0.00     0.159 A 
HETATM    2  N2  UNL     1      23.484   5.213  48.543  1.00  0.00    -0.220 NA
HETATM    3  C7  UNL     1      22.492   4.723  47.820  1.00  0.00     0.258 A 
HETATM    4  N3  UNL     1      22.002   3.548  48.218  1.00  0.00    -0.161 NA
HETATM    5  N4  UNL     1      22.456   2.885  49.269  1.00  0.00    -0.240 N 
HETATM    6  C8  UNL     1      22.075   1.711  49.790  1.00  0.00     0.119 A 
HETATM    7  C9  UNL     1      22.898   1.501  50.889  1.00  0.00     0.030 A 
HETATM    8  C10 UNL     1      23.798   2.564  51.043  1.00  0.00     0.004 A 
HETATM    9  C16 UNL     1      23.480   3.397  50.009  1.00  0.00     0.112 A 
ENDROOT
BRANCH   1  10
HETATM   10  N1  UNL     1      25.064   5.274  50.282  1.00  0.00    -0.339 N 
HETATM   11  H6  UNL     1      25.304   5.571  51.245  1.00  0.00     0.167 HD
BRANCH  10  12
HETATM   12  C5  UNL     1      26.211   5.732  49.559  1.00  0.00     0.035 A 
HETATM   13  C4  UNL     1      27.067   4.731  49.121  1.00  0.00     0.032 A 
HETATM   14  C3  UNL     1      28.199   5.029  48.391  1.00  0.00     0.041 A 
HETATM   15  C2  UNL     1      28.547   6.315  48.055  1.00  0.00     0.090 A 
HETATM   16  C18 UNL     1      27.683   7.324  48.497  1.00  0.00     0.069 A 
HETATM   17  C17 UNL     1      26.548   7.034  49.229  1.00  0.00     0.056 A 
HETATM   18 CL1  UNL     1      27.924   9.042  48.186  1.00  0.00    -0.081 Cl
BRANCH  15  19
HETATM   19  O1  UNL     1      29.626   6.793  47.340  1.00  0.00    -0.354 OA
HETATM   20  C1  UNL     1      30.946   6.885  47.780  1.00  0.00     0.210 C 
ENDBRANCH  15  19
ENDBRANCH  10  12
ENDBRANCH   1  10
BRANCH   8  21
HETATM   21  C11 UNL     1      24.834   2.734  52.066  1.00  0.00     0.316 C 
BRANCH  21  22
HETATM   22  N5  UNL     1      25.346   1.430  52.471  1.00  0.00     0.126 N 
HETATM   23  C12 UNL     1      26.537   1.126  51.699  1.00  0.00     0.276 C 
HETATM   24  C13 UNL     1      27.018  -0.119  52.425  1.00  0.00     0.034 C 
HETATM   25  C14 UNL     1      26.692   0.214  53.879  1.00  0.00     0.070 C 
HETATM   26  C15 UNL     1      25.933   1.523  53.808  1.00  0.00     0.451 C 
BRANCH  26  27
HETATM   27  N6  UNL     1      26.885   2.614  53.871  1.00  0.00     0.112 N 
HETATM   28  H19 UNL     1      27.706   2.430  54.476  1.00  0.00     0.315 HD
HETATM   29  H20 UNL     1      27.139   2.978  52.923  1.00  0.00     0.315 HD
ENDBRANCH  26  27
ENDBRANCH  21  22
ENDBRANCH   8  21
TORSDOF 6
ENDMDL
