MODEL 1
REMARK VINA RESULT:      -8.5      0.000      0.000
REMARK  3 active torsions:
REMARK  status: ('A' for Active; 'I' for Inactive)
REMARK    1  A    between atoms: C2_2  and  C3_3 
REMARK    2  A    between atoms: N1_5  and  C5_6 
REMARK    3  A    between atoms: C15_18  and  C16_19 
ROOT
HETATM    1  C5  UNL     1      23.469   0.250  53.143  1.00  0.00     0.049 C 
HETATM    2  C6  UNL     1      22.930   0.876  52.125  1.00  0.00     0.009 C 
HETATM    3  C7  UNL     1      21.546   1.116  51.721  1.00  0.00     0.066 C 
HETATM    4  C8  UNL     1      20.518   0.353  52.440  1.00  0.00    -0.048 C 
HETATM    5  C9  UNL     1      19.451   0.181  51.629  1.00  0.00    -0.019 C 
HETATM    6  C10 UNL     1      18.193  -0.549  51.996  1.00  0.00     0.054 C 
HETATM    7  C11 UNL     1      18.311  -1.176  53.367  1.00  0.00     0.172 C 
HETATM    8  O1  UNL     1      19.651  -1.484  53.579  1.00  0.00    -0.377 OA
HETATM    9  C12 UNL     1      20.328  -0.268  53.780  1.00  0.00     0.175 C 
HETATM   10  C13 UNL     1      21.574  -0.621  54.462  1.00  0.00     0.035 C 
HETATM   11  C14 UNL     1      22.834  -0.428  54.234  1.00  0.00     0.059 C 
HETATM   12 CL1  UNL     1      23.875  -1.115  55.461  1.00  0.00    -0.082 Cl
ENDROOT
BRANCH   1  13
HETATM   13  N1  UNL     1      24.887   0.274  53.121  1.00  0.00    -0.365 N 
HETATM   14  C4  UNL     1      25.802  -0.832  53.307  1.00  0.00     0.155 C 
HETATM   15  C3  UNL     1      27.052  -0.466  54.038  1.00  0.00     0.147 C 
HETATM   16  N2  UNL     1      27.036   0.849  54.589  1.00  0.00    -0.293 NA
HETATM   17  C18 UNL     1      26.368   1.822  54.105  1.00  0.00     0.113 C 
HETATM   18  C15 UNL     1      25.549   1.565  52.880  1.00  0.00     0.147 C 
BRANCH  15  19
HETATM   19  C2  UNL     1      28.273  -0.573  53.156  1.00  0.00    -0.008 C 
HETATM   20  C1  UNL     1      29.338  -0.467  53.960  1.00  0.00     0.009 C 
ENDBRANCH  15  19
BRANCH  18  21
HETATM   21  C16 UNL     1      26.400   1.564  51.686  1.00  0.00    -0.007 C 
HETATM   22  C17 UNL     1      26.413   2.649  50.948  1.00  0.00     0.009 C 
ENDBRANCH  18  21
ENDBRANCH   1  13
TORSDOF 3
ENDMDL
MODEL 2
REMARK VINA RESULT:      -8.0      2.839      7.049
REMARK  3 active torsions:
REMARK  status: ('A' for Active; 'I' for Inactive)
REMARK    1  A    between atoms: C2_2  and  C3_3 
REMARK    2  A    between atoms: N1_5  and  C5_6 
REMARK    3  A    between atoms: C15_18  and  C16_19 
ROOT
HETATM    1  C5  UNL     1      23.639   0.869  53.021  1.00  0.00     0.049 C 
HETATM    2  C6  UNL     1      24.168  -0.272  53.388  1.00  0.00     0.009 C 
HETATM    3  C7  UNL     1      25.477  -0.637  53.930  1.00  0.00     0.066 C 
HETATM    4  C8  UNL     1      26.514   0.401  53.875  1.00  0.00    -0.048 C 
HETATM    5  C9  UNL     1      27.725  -0.192  53.804  1.00  0.00    -0.019 C 
HETATM    6  C10 UNL     1      29.039   0.529  53.732  1.00  0.00     0.054 C 
HETATM    7  C11 UNL     1      28.833   2.023  53.634  1.00  0.00     0.172 C 
HETATM    8  O1  UNL     1      27.624   2.243  52.981  1.00  0.00    -0.377 OA
HETATM    9  C12 UNL     1      26.600   1.888  53.876  1.00  0.00     0.175 C 
HETATM   10  C13 UNL     1      25.397   2.562  53.384  1.00  0.00     0.035 C 
HETATM   11  C14 UNL     1      24.208   2.183  53.037  1.00  0.00     0.059 C 
HETATM   12 CL1  UNL     1      23.184   3.504  52.519  1.00  0.00    -0.082 Cl
ENDROOT
BRANCH   1  13
HETATM   13  N1  UNL     1      22.308   0.735  52.546  1.00  0.00    -0.365 N 
HETATM   14  C4  UNL     1      21.854   0.651  51.175  1.00  0.00     0.155 C 
HETATM   15  C3  UNL     1      20.546   1.330  50.929  1.00  0.00     0.147 C 
HETATM   16  N2  UNL     1      20.078   2.100  52.033  1.00  0.00    -0.293 NA
HETATM   17  C18 UNL     1      20.355   1.849  53.253  1.00  0.00     0.113 C 
HETATM   18  C15 UNL     1      21.227   0.669  53.541  1.00  0.00     0.147 C 
BRANCH  15  19
HETATM   19  C2  UNL     1      19.459   0.347  50.568  1.00  0.00    -0.008 C 
HETATM   20  C1  UNL     1      18.444   1.062  50.067  1.00  0.00     0.009 C 
ENDBRANCH  15  19
BRANCH  18  21
HETATM   21  C16 UNL     1      20.450  -0.572  53.468  1.00  0.00    -0.007 C 
HETATM   22  C17 UNL     1      20.824  -1.569  54.234  1.00  0.00     0.009 C 
ENDBRANCH  18  21
ENDBRANCH   1  13
TORSDOF 3
ENDMDL
MODEL 3
REMARK VINA RESULT:      -8.0      2.851      6.750
REMARK  3 active torsions:
REMARK  status: ('A' for Active; 'I' for Inactive)
REMARK    1  A    between atoms: C2_2  and  C3_3 
REMARK    2  A    between atoms: N1_5  and  C5_6 
REMARK    3  A    between atoms: C15_18  and  C16_19 
ROOT
HETATM    1  C5  UNL     1      24.127   1.492  52.127  1.00  0.00     0.049 C 
HETATM    2  C6  UNL     1      25.089   2.145  51.523  1.00  0.00     0.009 C 
HETATM    3  C7  UNL     1      26.547   2.093  51.627  1.00  0.00     0.066 C 
HETATM    4  C8  UNL     1      27.091   1.334  52.760  1.00  0.00    -0.048 C 
HETATM    5  C9  UNL     1      28.295   1.847  53.095  1.00  0.00    -0.019 C 
HETATM    6  C10 UNL     1      29.171   1.346  54.205  1.00  0.00     0.054 C 
HETATM    7  C11 UNL     1      28.482   0.253  54.989  1.00  0.00     0.172 C 
HETATM    8  O1  UNL     1      27.111   0.488  54.930  1.00  0.00    -0.377 OA
HETATM    9  C12 UNL     1      26.695   0.185  53.622  1.00  0.00     0.175 C 
HETATM   10  C13 UNL     1      25.250  -0.032  53.710  1.00  0.00     0.035 C 
HETATM   11  C14 UNL     1      24.208   0.471  53.129  1.00  0.00     0.059 C 
HETATM   12 CL1  UNL     1      22.701  -0.227  53.681  1.00  0.00    -0.082 Cl
ENDROOT
BRANCH   1  13
HETATM   13  N1  UNL     1      22.834   1.887  51.694  1.00  0.00    -0.365 N 
HETATM   14  C4  UNL     1      21.909   2.786  52.349  1.00  0.00     0.155 C 
HETATM   15  C3  UNL     1      20.475   2.396  52.195  1.00  0.00     0.147 C 
HETATM   16  N2  UNL     1      20.286   1.114  51.603  1.00  0.00    -0.293 NA
HETATM   17  C18 UNL     1      21.102   0.572  50.785  1.00  0.00     0.113 C 
HETATM   18  C15 UNL     1      22.337   1.335  50.425  1.00  0.00     0.147 C 
BRANCH  15  19
HETATM   19  C2  UNL     1      19.704   3.396  51.368  1.00  0.00    -0.008 C 
HETATM   20  C1  UNL     1      18.408   3.095  51.509  1.00  0.00     0.009 C 
ENDBRANCH  15  19
BRANCH  18  21
HETATM   21  C16 UNL     1      22.030   2.366  49.428  1.00  0.00    -0.007 C 
HETATM   22  C17 UNL     1      23.003   2.756  48.638  1.00  0.00     0.009 C 
ENDBRANCH  18  21
ENDBRANCH   1  13
TORSDOF 3
ENDMDL
MODEL 4
REMARK VINA RESULT:      -7.9      2.764      3.544
REMARK  3 active torsions:
REMARK  status: ('A' for Active; 'I' for Inactive)
REMARK    1  A    between atoms: C2_2  and  C3_3 
REMARK    2  A    between atoms: N1_5  and  C5_6 
REMARK    3  A    between atoms: C15_18  and  C16_19 
ROOT
HETATM    1  C5  UNL     1      24.689   1.214  52.138  1.00  0.00     0.049 C 
HETATM    2  C6  UNL     1      23.684   0.692  52.799  1.00  0.00     0.009 C 
HETATM    3  C7  UNL     1      22.235   0.873  52.718  1.00  0.00     0.066 C 
HETATM    4  C8  UNL     1      21.767   2.002  51.904  1.00  0.00    -0.048 C 
HETATM    5  C9  UNL     1      20.576   2.424  52.382  1.00  0.00    -0.019 C 
HETATM    6  C10 UNL     1      19.771   3.558  51.821  1.00  0.00     0.054 C 
HETATM    7  C11 UNL     1      20.519   4.255  50.707  1.00  0.00     0.172 C 
HETATM    8  O1  UNL     1      21.880   4.131  50.968  1.00  0.00    -0.377 OA
HETATM    9  C12 UNL     1      22.227   2.791  50.727  1.00  0.00     0.175 C 
HETATM   10  C13 UNL     1      23.678   2.790  50.531  1.00  0.00     0.035 C 
HETATM   11  C14 UNL     1      24.679   2.174  51.075  1.00  0.00     0.059 C 
HETATM   12 CL1  UNL     1      26.223   2.612  50.380  1.00  0.00    -0.082 Cl
ENDROOT
BRANCH   1  13
HETATM   13  N1  UNL     1      25.949   0.727  52.572  1.00  0.00    -0.365 N 
HETATM   14  C4  UNL     1      26.632  -0.479  52.155  1.00  0.00     0.155 C 
HETATM   15  C3  UNL     1      27.398  -1.148  53.249  1.00  0.00     0.147 C 
HETATM   16  N2  UNL     1      27.164  -0.594  54.541  1.00  0.00    -0.293 NA
HETATM   17  C18 UNL     1      26.835   0.620  54.754  1.00  0.00     0.113 C 
HETATM   18  C15 UNL     1      26.685   1.519  53.568  1.00  0.00     0.147 C 
BRANCH  15  19
HETATM   19  C2  UNL     1      28.887  -1.108  53.002  1.00  0.00    -0.008 C 
HETATM   20  C1  UNL     1      29.357  -2.329  53.282  1.00  0.00     0.009 C 
ENDBRANCH  15  19
BRANCH  18  21
HETATM   21  C16 UNL     1      28.000   1.965  53.095  1.00  0.00    -0.007 C 
HETATM   22  C17 UNL     1      28.849   2.410  53.991  1.00  0.00     0.009 C 
ENDBRANCH  18  21
ENDBRANCH   1  13
TORSDOF 3
ENDMDL
MODEL 5
REMARK VINA RESULT:      -7.9      2.778      3.735
REMARK  3 active torsions:
REMARK  status: ('A' for Active; 'I' for Inactive)
REMARK    1  A    between atoms: C2_2  and  C3_3 
REMARK    2  A    between atoms: N1_5  and  C5_6 
REMARK    3  A    between atoms: C15_18  and  C16_19 
ROOT
HETATM    1  C5  UNL     1      25.160   1.637  51.628  1.00  0.00     0.049 C 
HETATM    2  C6  UNL     1      25.540   2.575  50.795  1.00  0.00     0.009 C 
HETATM    3  C7  UNL     1      24.808   3.480  49.910  1.00  0.00     0.066 C 
HETATM    4  C8  UNL     1      23.383   3.186  49.715  1.00  0.00    -0.048 C 
HETATM    5  C9  UNL     1      23.003   3.638  48.501  1.00  0.00    -0.019 C 
HETATM    6  C10 UNL     1      21.621   3.528  47.929  1.00  0.00     0.054 C 
HETATM    7  C11 UNL     1      20.717   2.734  48.845  1.00  0.00     0.172 C 
HETATM    8  O1  UNL     1      21.508   1.817  49.531  1.00  0.00    -0.377 OA
HETATM    9  C12 UNL     1      22.268   2.542  50.465  1.00  0.00     0.175 C 
HETATM   10  C13 UNL     1      22.699   1.564  51.464  1.00  0.00     0.035 C 
HETATM   11  C14 UNL     1      23.839   1.184  51.947  1.00  0.00     0.059 C 
HETATM   12 CL1  UNL     1      23.696  -0.068  53.161  1.00  0.00    -0.082 Cl
ENDROOT
BRANCH   1  13
HETATM   13  N1  UNL     1      26.248   1.008  52.287  1.00  0.00    -0.365 N 
HETATM   14  C4  UNL     1      26.817  -0.297  52.023  1.00  0.00     0.155 C 
HETATM   15  C3  UNL     1      27.285  -1.011  53.249  1.00  0.00     0.147 C 
HETATM   16  N2  UNL     1      26.913  -0.372  54.467  1.00  0.00    -0.293 NA
HETATM   17  C18 UNL     1      26.724   0.884  54.592  1.00  0.00     0.113 C 
HETATM   18  C15 UNL     1      26.906   1.739  53.379  1.00  0.00     0.147 C 
BRANCH  15  19
HETATM   19  C2  UNL     1      28.784  -1.181  53.265  1.00  0.00    -0.008 C 
HETATM   20  C1  UNL     1      29.024  -2.497  53.228  1.00  0.00     0.009 C 
ENDBRANCH  15  19
BRANCH  18  21
HETATM   21  C16 UNL     1      28.332   1.984  53.134  1.00  0.00    -0.007 C 
HETATM   22  C17 UNL     1      29.073   2.330  54.159  1.00  0.00     0.009 C 
ENDBRANCH  18  21
ENDBRANCH   1  13
TORSDOF 3
ENDMDL
MODEL 6
REMARK VINA RESULT:      -7.5      3.544      5.442
REMARK  3 active torsions:
REMARK  status: ('A' for Active; 'I' for Inactive)
REMARK    1  A    between atoms: C2_2  and  C3_3 
REMARK    2  A    between atoms: N1_5  and  C5_6 
REMARK    3  A    between atoms: C15_18  and  C16_19 
ROOT
HETATM    1  C5  UNL     1      23.251   2.683  51.527  1.00  0.00     0.049 C 
HETATM    2  C6  UNL     1      24.224   1.965  52.033  1.00  0.00     0.009 C 
HETATM    3  C7  UNL     1      24.268   0.644  52.660  1.00  0.00     0.066 C 
HETATM    4  C8  UNL     1      22.972   0.049  53.010  1.00  0.00    -0.048 C 
HETATM    5  C9  UNL     1      23.140  -0.781  54.062  1.00  0.00    -0.019 C 
HETATM    6  C10 UNL     1      22.052  -1.580  54.717  1.00  0.00     0.054 C 
HETATM    7  C11 UNL     1      20.703  -1.251  54.120  1.00  0.00     0.172 C 
HETATM    8  O1  UNL     1      20.743   0.070  53.683  1.00  0.00    -0.377 OA
HETATM    9  C12 UNL     1      21.559   0.104  52.540  1.00  0.00     0.175 C 
HETATM   10  C13 UNL     1      21.205   1.340  51.841  1.00  0.00     0.035 C 
HETATM   11  C14 UNL     1      21.855   2.381  51.426  1.00  0.00     0.059 C 
HETATM   12 CL1  UNL     1      20.837   3.563  50.633  1.00  0.00    -0.082 Cl
ENDROOT
BRANCH   1  13
HETATM   13  N1  UNL     1      23.692   3.932  51.018  1.00  0.00    -0.365 N 
HETATM   14  C4  UNL     1      23.621   5.230  51.654  1.00  0.00     0.155 C 
HETATM   15  C3  UNL     1      23.351   6.353  50.706  1.00  0.00     0.147 C 
HETATM   16  N2  UNL     1      23.019   5.928  49.386  1.00  0.00    -0.293 NA
HETATM   17  C18 UNL     1      23.424   4.839  48.859  1.00  0.00     0.113 C 
HETATM   18  C15 UNL     1      24.303   3.952  49.681  1.00  0.00     0.147 C 
BRANCH  15  19
HETATM   19  C2  UNL     1      24.525   7.295  50.598  1.00  0.00    -0.008 C 
HETATM   20  C1  UNL     1      24.125   8.325  49.842  1.00  0.00     0.009 C 
ENDBRANCH  15  19
BRANCH  18  21
HETATM   21  C16 UNL     1      25.681   4.455  49.683  1.00  0.00    -0.007 C 
HETATM   22  C17 UNL     1      26.648   3.577  49.564  1.00  0.00     0.009 C 
ENDBRANCH  18  21
ENDBRANCH   1  13
TORSDOF 3
ENDMDL
MODEL 7
REMARK VINA RESULT:      -7.5      5.036      8.563
REMARK  3 active torsions:
REMARK  status: ('A' for Active; 'I' for Inactive)
REMARK    1  A    between atoms: C2_2  and  C3_3 
REMARK    2  A    between atoms: N1_5  and  C5_6 
REMARK    3  A    between atoms: C15_18  and  C16_19 
ROOT
HETATM    1  C5  UNL     1      25.564   4.732  49.968  1.00  0.00     0.049 C 
HETATM    2  C6  UNL     1      26.617   4.289  49.326  1.00  0.00     0.009 C 
HETATM    3  C7  UNL     1      27.748   4.956  48.682  1.00  0.00     0.066 C 
HETATM    4  C8  UNL     1      27.627   6.409  48.503  1.00  0.00    -0.048 C 
HETATM    5  C9  UNL     1      28.355   6.780  47.427  1.00  0.00    -0.019 C 
HETATM    6  C10 UNL     1      28.488   8.184  46.915  1.00  0.00     0.054 C 
HETATM    7  C11 UNL     1      27.604   9.131  47.694  1.00  0.00     0.172 C 
HETATM    8  O1  UNL     1      26.498   8.412  48.138  1.00  0.00    -0.377 OA
HETATM    9  C12 UNL     1      26.943   7.557  49.160  1.00  0.00     0.175 C 
HETATM   10  C13 UNL     1      25.744   7.193  49.916  1.00  0.00     0.035 C 
HETATM   11  C14 UNL     1      25.173   6.080  50.253  1.00  0.00     0.059 C 
HETATM   12 CL1  UNL     1      23.714   6.307  51.192  1.00  0.00    -0.082 Cl
ENDROOT
BRANCH   1  13
HETATM   13  N1  UNL     1      24.718   3.691  50.429  1.00  0.00    -0.365 N 
HETATM   14  C4  UNL     1      23.532   3.156  49.794  1.00  0.00     0.155 C 
HETATM   15  C3  UNL     1      22.459   2.758  50.754  1.00  0.00     0.147 C 
HETATM   16  N2  UNL     1      22.712   3.152  52.099  1.00  0.00    -0.293 NA
HETATM   17  C18 UNL     1      23.877   3.303  52.597  1.00  0.00     0.113 C 
HETATM   18  C15 UNL     1      25.053   3.048  51.708  1.00  0.00     0.147 C 
BRANCH  15  19
HETATM   19  C2  UNL     1      22.228   1.267  50.754  1.00  0.00    -0.008 C 
HETATM   20  C1  UNL     1      21.553   0.981  49.634  1.00  0.00     0.009 C 
ENDBRANCH  15  19
BRANCH  18  21
HETATM   21  C16 UNL     1      25.299   1.607  51.585  1.00  0.00    -0.007 C 
HETATM   22  C17 UNL     1      26.540   1.193  51.676  1.00  0.00     0.009 C 
ENDBRANCH  18  21
ENDBRANCH   1  13
TORSDOF 3
ENDMDL
MODEL 8
REMARK VINA RESULT:      -7.3      8.678     10.681
REMARK  3 active torsions:
REMARK  status: ('A' for Active; 'I' for Inactive)
REMARK    1  A    between atoms: C2_2  and  C3_3 
REMARK    2  A    between atoms: N1_5  and  C5_6 
REMARK    3  A    between atoms: C15_18  and  C16_19 
ROOT
HETATM    1  C5  UNL     1      30.119   6.379  48.287  1.00  0.00     0.049 C 
HETATM    2  C6  UNL     1      29.341   5.325  48.274  1.00  0.00     0.009 C 
HETATM    3  C7  UNL     1      27.894   5.151  48.397  1.00  0.00     0.066 C 
HETATM    4  C8  UNL     1      27.134   6.329  48.834  1.00  0.00    -0.048 C 
HETATM    5  C9  UNL     1      26.020   5.918  49.478  1.00  0.00    -0.019 C 
HETATM    6  C10 UNL     1      24.983   6.823  50.075  1.00  0.00     0.054 C 
HETATM    7  C11 UNL     1      25.399   8.272  49.967  1.00  0.00     0.172 C 
HETATM    8  O1  UNL     1      26.790   8.317  49.997  1.00  0.00    -0.377 OA
HETATM    9  C12 UNL     1      27.247   7.813  48.768  1.00  0.00     0.175 C 
HETATM   10  C13 UNL     1      28.618   8.307  48.626  1.00  0.00     0.035 C 
HETATM   11  C14 UNL     1      29.777   7.762  48.434  1.00  0.00     0.059 C 
HETATM   12 CL1  UNL     1      31.084   8.922  48.350  1.00  0.00    -0.082 Cl
ENDROOT
BRANCH   1  13
HETATM   13  N1  UNL     1      31.492   6.055  48.129  1.00  0.00    -0.365 N 
HETATM   14  C4  UNL     1      32.542   6.106  49.125  1.00  0.00     0.155 C 
HETATM   15  C3  UNL     1      33.867   6.534  48.584  1.00  0.00     0.147 C 
HETATM   16  N2  UNL     1      33.819   7.001  47.238  1.00  0.00    -0.293 NA
HETATM   17  C18 UNL     1      32.963   6.615  46.374  1.00  0.00     0.113 C 
HETATM   18  C15 UNL     1      31.945   5.608  46.804  1.00  0.00     0.147 C 
BRANCH  15  19
HETATM   19  C2  UNL     1      34.886   5.422  48.643  1.00  0.00    -0.008 C 
HETATM   20  C1  UNL     1      35.957   5.914  49.278  1.00  0.00     0.009 C 
ENDBRANCH  15  19
BRANCH  18  21
HETATM   21  C16 UNL     1      32.529   4.262  46.816  1.00  0.00    -0.007 C 
HETATM   22  C17 UNL     1      31.726   3.249  46.591  1.00  0.00     0.009 C 
ENDBRANCH  18  21
ENDBRANCH   1  13
TORSDOF 3
ENDMDL
MODEL 9
REMARK VINA RESULT:      -7.2      3.187      6.970
REMARK  3 active torsions:
REMARK  status: ('A' for Active; 'I' for Inactive)
REMARK    1  A    between atoms: C2_2  and  C3_3 
REMARK    2  A    between atoms: N1_5  and  C5_6 
REMARK    3  A    between atoms: C15_18  and  C16_19 
ROOT
HETATM    1  C5  UNL     1      23.161   1.677  52.582  1.00  0.00     0.049 C 
HETATM    2  C6  UNL     1      23.273   0.377  52.697  1.00  0.00     0.009 C 
HETATM    3  C7  UNL     1      24.329  -0.492  53.216  1.00  0.00     0.066 C 
HETATM    4  C8  UNL     1      25.624   0.147  53.480  1.00  0.00    -0.048 C 
HETATM    5  C9  UNL     1      26.603  -0.774  53.345  1.00  0.00    -0.019 C 
HETATM    6  C10 UNL     1      28.069  -0.513  53.533  1.00  0.00     0.054 C 
HETATM    7  C11 UNL     1      28.331   0.954  53.784  1.00  0.00     0.172 C 
HETATM    8  O1  UNL     1      27.341   1.680  53.128  1.00  0.00    -0.377 OA
HETATM    9  C12 UNL     1      26.146   1.493  53.844  1.00  0.00     0.175 C 
HETATM   10  C13 UNL     1      25.276   2.603  53.453  1.00  0.00     0.035 C 
HETATM   11  C14 UNL     1      24.087   2.706  52.950  1.00  0.00     0.059 C 
HETATM   12 CL1  UNL     1      23.581   4.363  52.701  1.00  0.00    -0.082 Cl
ENDROOT
BRANCH   1  13
HETATM   13  N1  UNL     1      21.928   2.078  52.006  1.00  0.00    -0.365 N 
HETATM   14  C4  UNL     1      20.704   2.448  52.683  1.00  0.00     0.155 C 
HETATM   15  C3  UNL     1      19.464   2.015  51.971  1.00  0.00     0.147 C 
HETATM   16  N2  UNL     1      19.706   1.153  50.862  1.00  0.00    -0.293 NA
HETATM   17  C18 UNL     1      20.775   1.160  50.166  1.00  0.00     0.113 C 
HETATM   18  C15 UNL     1      21.843   2.138  50.539  1.00  0.00     0.147 C 
BRANCH  15  19
HETATM   19  C2  UNL     1      18.665   3.191  51.465  1.00  0.00    -0.008 C 
HETATM   20  C1  UNL     1      17.385   2.802  51.433  1.00  0.00     0.009 C 
ENDBRANCH  15  19
BRANCH  18  21
HETATM   21  C16 UNL     1      21.512   3.475  50.034  1.00  0.00    -0.007 C 
HETATM   22  C17 UNL     1      21.363   3.615  48.738  1.00  0.00     0.009 C 
ENDBRANCH  18  21
ENDBRANCH   1  13
TORSDOF 3
ENDMDL
