MODEL 1
REMARK VINA RESULT:      -9.3      0.000      0.000
REMARK  0 active torsions:
REMARK  status: ('A' for Active; 'I' for Inactive)
ROOT
HETATM    1  C1  UNL     1      21.111   4.122  48.828  1.00  0.00     0.040 C 
HETATM    2  C2  UNL     1      20.550   3.411  49.782  1.00  0.00    -0.061 C 
HETATM    3  C3  UNL     1      21.099   4.026  50.937  1.00  0.00     0.119 C 
HETATM    4  N1  UNL     1      21.692   4.697  51.812  1.00  0.00    -0.273 NA
HETATM    5  C4  UNL     1      22.592   5.739  51.613  1.00  0.00     0.117 C 
HETATM    6  C5  UNL     1      23.754   6.019  51.112  1.00  0.00     0.032 C 
HETATM    7  C6  UNL     1      24.728   5.235  50.454  1.00  0.00    -0.015 A 
HETATM    8  C7  UNL     1      25.576   5.240  49.402  1.00  0.00     0.013 A 
HETATM    9  C8  UNL     1      26.457   4.249  49.056  1.00  0.00     0.003 A 
HETATM   10  C9  UNL     1      26.608   3.076  49.749  1.00  0.00     0.033 A 
HETATM   11  C10 UNL     1      25.810   2.864  50.896  1.00  0.00     0.075 A 
HETATM   12  N2  UNL     1      25.881   1.776  51.560  1.00  0.00    -0.243 NA
HETATM   13  C11 UNL     1      24.978   1.724  52.642  1.00  0.00     0.100 A 
HETATM   14  S1  UNL     1      24.105   3.139  52.681  1.00  0.00    -0.070 SA
HETATM   15  C12 UNL     1      24.935   3.915  51.186  1.00  0.00     0.045 A 
HETATM   16  C13 UNL     1      24.663   0.719  53.687  1.00  0.00     0.204 C 
HETATM   17  C14 UNL     1      25.630  -0.388  53.656  1.00  0.00     0.077 C 
HETATM   18  N3  UNL     1      26.374  -1.268  53.631  1.00  0.00    -0.196 NA
HETATM   19  C15 UNL     1      23.282   0.218  53.464  1.00  0.00     0.079 A 
HETATM   20  C16 UNL     1      22.969  -0.868  54.229  1.00  0.00     0.049 A 
HETATM   21  C17 UNL     1      21.694  -1.382  54.072  1.00  0.00     0.138 A 
HETATM   22  N4  UNL     1      20.766  -0.861  53.212  1.00  0.00    -0.075 NA
HETATM   23  C18 UNL     1      21.162   0.229  52.487  1.00  0.00     0.722 A 
HETATM   24  N5  UNL     1      22.399   0.743  52.621  1.00  0.00    -0.066 NA
HETATM   25  N6  UNL     1      20.408   0.978  51.520  1.00  0.00    -0.222 N 
HETATM   26  C19 UNL     1      20.258   1.001  50.091  1.00  0.00     0.142 C 
HETATM   27  C20 UNL     1      19.651   2.272  49.557  1.00  0.00     0.056 C 
HETATM   28  H12 UNL     1      19.952   1.523  52.297  1.00  0.00     0.177 HD
ENDROOT
TORSDOF 0
ENDMDL
MODEL 2
REMARK VINA RESULT:      -8.8      1.069      1.194
REMARK  0 active torsions:
REMARK  status: ('A' for Active; 'I' for Inactive)
ROOT
HETATM    1  C1  UNL     1      21.553   5.040  47.837  1.00  0.00     0.040 C 
HETATM    2  C2  UNL     1      20.792   4.388  48.690  1.00  0.00    -0.061 C 
HETATM    3  C3  UNL     1      21.202   4.969  49.918  1.00  0.00     0.119 C 
HETATM    4  N1  UNL     1      21.704   5.599  50.877  1.00  0.00    -0.273 NA
HETATM    5  C4  UNL     1      22.708   6.561  50.823  1.00  0.00     0.117 C 
HETATM    6  C5  UNL     1      23.952   6.739  50.512  1.00  0.00     0.032 C 
HETATM    7  C6  UNL     1      24.950   5.870  50.014  1.00  0.00    -0.015 A 
HETATM    8  C7  UNL     1      25.949   5.794  49.108  1.00  0.00     0.013 A 
HETATM    9  C8  UNL     1      26.789   4.731  48.903  1.00  0.00     0.003 A 
HETATM   10  C9  UNL     1      26.731   3.557  49.609  1.00  0.00     0.033 A 
HETATM   11  C10 UNL     1      25.749   3.424  50.616  1.00  0.00     0.075 A 
HETATM   12  N2  UNL     1      25.624   2.341  51.281  1.00  0.00    -0.243 NA
HETATM   13  C11 UNL     1      24.561   2.376  52.208  1.00  0.00     0.100 A 
HETATM   14  S1  UNL     1      23.814   3.858  52.112  1.00  0.00    -0.070 SA
HETATM   15  C12 UNL     1      24.929   4.546  50.767  1.00  0.00     0.045 A 
HETATM   16  C13 UNL     1      24.005   1.412  53.188  1.00  0.00     0.204 C 
HETATM   17  C14 UNL     1      24.869   0.229  53.308  1.00  0.00     0.077 C 
HETATM   18  N3  UNL     1      25.532  -0.709  53.398  1.00  0.00    -0.196 NA
HETATM   19  C15 UNL     1      22.639   1.024  52.750  1.00  0.00     0.079 A 
HETATM   20  C16 UNL     1      22.121  -0.024  53.455  1.00  0.00     0.049 A 
HETATM   21  C17 UNL     1      20.848  -0.434  53.098  1.00  0.00     0.138 A 
HETATM   22  N4  UNL     1      20.113   0.152  52.103  1.00  0.00    -0.075 NA
HETATM   23  C18 UNL     1      20.707   1.197  51.452  1.00  0.00     0.722 A 
HETATM   24  N5  UNL     1      21.945   1.610  51.780  1.00  0.00    -0.066 NA
HETATM   25  N6  UNL     1      20.178   1.995  50.379  1.00  0.00    -0.222 N 
HETATM   26  C19 UNL     1      20.257   2.014  48.945  1.00  0.00     0.142 C 
HETATM   27  C20 UNL     1      19.849   3.324  48.324  1.00  0.00     0.056 C 
HETATM   28  H12 UNL     1      19.653   2.584  51.076  1.00  0.00     0.177 HD
ENDROOT
TORSDOF 0
ENDMDL
MODEL 3
REMARK VINA RESULT:      -8.4      2.032      5.137
REMARK  0 active torsions:
REMARK  status: ('A' for Active; 'I' for Inactive)
ROOT
HETATM    1  C1  UNL     1      21.588   5.734  49.885  1.00  0.00     0.040 C 
HETATM    2  C2  UNL     1      22.746   5.236  50.260  1.00  0.00    -0.061 C 
HETATM    3  C3  UNL     1      22.788   4.042  49.495  1.00  0.00     0.119 C 
HETATM    4  N1  UNL     1      22.625   3.051  48.747  1.00  0.00    -0.273 NA
HETATM    5  C4  UNL     1      21.528   2.774  47.937  1.00  0.00     0.117 C 
HETATM    6  C5  UNL     1      20.259   2.515  47.970  1.00  0.00     0.032 C 
HETATM    7  C6  UNL     1      19.332   2.396  49.030  1.00  0.00    -0.015 A 
HETATM    8  C7  UNL     1      18.079   2.740  49.401  1.00  0.00     0.013 A 
HETATM    9  C8  UNL     1      17.452   2.407  50.574  1.00  0.00     0.003 A 
HETATM   10  C9  UNL     1      18.026   1.655  51.566  1.00  0.00     0.033 A 
HETATM   11  C10 UNL     1      19.346   1.187  51.380  1.00  0.00     0.075 A 
HETATM   12  N2  UNL     1      19.944   0.514  52.285  1.00  0.00    -0.243 NA
HETATM   13  C11 UNL     1      21.269   0.174  51.943  1.00  0.00     0.100 A 
HETATM   14  S1  UNL     1      21.607   0.787  50.434  1.00  0.00    -0.070 SA
HETATM   15  C12 UNL     1      19.921   1.567  50.164  1.00  0.00     0.045 A 
HETATM   16  C13 UNL     1      22.360  -0.569  52.619  1.00  0.00     0.204 C 
HETATM   17  C14 UNL     1      21.871  -1.216  53.845  1.00  0.00     0.077 C 
HETATM   18  N3  UNL     1      21.501  -1.715  54.816  1.00  0.00    -0.196 NA
HETATM   19  C15 UNL     1      23.461   0.379  52.928  1.00  0.00     0.079 A 
HETATM   20  C16 UNL     1      24.418  -0.149  53.746  1.00  0.00     0.049 A 
HETATM   21  C17 UNL     1      25.475   0.684  54.070  1.00  0.00     0.138 A 
HETATM   22  N4  UNL     1      25.597   1.969  53.616  1.00  0.00    -0.075 NA
HETATM   23  C18 UNL     1      24.595   2.415  52.799  1.00  0.00     0.722 A 
HETATM   24  N5  UNL     1      23.556   1.625  52.474  1.00  0.00    -0.066 NA
HETATM   25  N6  UNL     1      24.460   3.705  52.177  1.00  0.00    -0.222 N 
HETATM   26  C19 UNL     1      23.783   4.941  52.457  1.00  0.00     0.142 C 
HETATM   27  C20 UNL     1      23.633   5.843  51.261  1.00  0.00     0.056 C 
HETATM   28  H12 UNL     1      25.106   3.401  51.404  1.00  0.00     0.177 HD
ENDROOT
TORSDOF 0
ENDMDL
MODEL 4
REMARK VINA RESULT:      -8.3      1.818      4.589
REMARK  0 active torsions:
REMARK  status: ('A' for Active; 'I' for Inactive)
ROOT
HETATM    1  C1  UNL     1      19.275   0.117  51.714  1.00  0.00     0.040 C 
HETATM    2  C2  UNL     1      20.223   0.201  52.622  1.00  0.00    -0.061 C 
HETATM    3  C3  UNL     1      20.327   1.608  52.776  1.00  0.00     0.119 C 
HETATM    4  N1  UNL     1      20.263   2.858  52.754  1.00  0.00    -0.273 NA
HETATM    5  C4  UNL     1      19.442   3.649  51.958  1.00  0.00     0.117 C 
HETATM    6  C5  UNL     1      19.191   3.966  50.727  1.00  0.00     0.032 C 
HETATM    7  C6  UNL     1      19.755   3.556  49.497  1.00  0.00    -0.015 A 
HETATM    8  C7  UNL     1      19.428   3.186  48.240  1.00  0.00     0.013 A 
HETATM    9  C8  UNL     1      20.296   2.858  47.231  1.00  0.00     0.003 A 
HETATM   10  C9  UNL     1      21.661   2.857  47.360  1.00  0.00     0.033 A 
HETATM   11  C10 UNL     1      22.220   3.217  48.607  1.00  0.00     0.075 A 
HETATM   12  N2  UNL     1      23.483   3.200  48.797  1.00  0.00    -0.243 NA
HETATM   13  C11 UNL     1      23.853   3.542  50.114  1.00  0.00     0.100 A 
HETATM   14  S1  UNL     1      22.477   3.859  50.993  1.00  0.00    -0.070 SA
HETATM   15  C12 UNL     1      21.276   3.537  49.587  1.00  0.00     0.045 A 
HETATM   16  C13 UNL     1      25.144   3.664  50.833  1.00  0.00     0.204 C 
HETATM   17  C14 UNL     1      26.275   3.549  49.901  1.00  0.00     0.077 C 
HETATM   18  N3  UNL     1      27.169   3.446  49.181  1.00  0.00    -0.196 NA
HETATM   19  C15 UNL     1      25.210   2.605  51.873  1.00  0.00     0.079 A 
HETATM   20  C16 UNL     1      26.444   2.482  52.445  1.00  0.00     0.049 A 
HETATM   21  C17 UNL     1      26.572   1.514  53.426  1.00  0.00     0.138 A 
HETATM   22  N4  UNL     1      25.546   0.706  53.833  1.00  0.00    -0.075 NA
HETATM   23  C18 UNL     1      24.344   0.899  53.210  1.00  0.00     0.722 A 
HETATM   24  N5  UNL     1      24.198   1.831  52.251  1.00  0.00    -0.066 NA
HETATM   25  N6  UNL     1      23.104   0.206  53.432  1.00  0.00    -0.222 N 
HETATM   26  C19 UNL     1      22.397  -0.899  52.846  1.00  0.00     0.142 C 
HETATM   27  C20 UNL     1      20.934  -0.948  53.197  1.00  0.00     0.056 C 
HETATM   28  H12 UNL     1      22.903   0.829  54.256  1.00  0.00     0.177 HD
ENDROOT
TORSDOF 0
ENDMDL
MODEL 5
REMARK VINA RESULT:      -8.3      1.774      2.534
REMARK  0 active torsions:
REMARK  status: ('A' for Active; 'I' for Inactive)
ROOT
HETATM    1  C1  UNL     1      22.160   6.300  47.185  1.00  0.00     0.040 C 
HETATM    2  C2  UNL     1      21.205   5.815  47.947  1.00  0.00    -0.061 C 
HETATM    3  C3  UNL     1      21.596   6.309  49.219  1.00  0.00     0.119 C 
HETATM    4  N1  UNL     1      22.114   6.831  50.233  1.00  0.00    -0.273 NA
HETATM    5  C4  UNL     1      23.288   7.574  50.294  1.00  0.00     0.117 C 
HETATM    6  C5  UNL     1      24.568   7.501  50.110  1.00  0.00     0.032 C 
HETATM    7  C6  UNL     1      25.419   6.450  49.700  1.00  0.00    -0.015 A 
HETATM    8  C7  UNL     1      26.469   6.173  48.897  1.00  0.00     0.013 A 
HETATM    9  C8  UNL     1      27.099   4.963  48.759  1.00  0.00     0.003 A 
HETATM   10  C9  UNL     1      26.740   3.828  49.438  1.00  0.00     0.033 A 
HETATM   11  C10 UNL     1      25.654   3.896  50.340  1.00  0.00     0.075 A 
HETATM   12  N2  UNL     1      25.252   2.862  50.972  1.00  0.00    -0.243 NA
HETATM   13  C11 UNL     1      24.130   3.111  51.789  1.00  0.00     0.100 A 
HETATM   14  S1  UNL     1      23.704   4.712  51.643  1.00  0.00    -0.070 SA
HETATM   15  C12 UNL     1      25.061   5.159  50.427  1.00  0.00     0.045 A 
HETATM   16  C13 UNL     1      23.299   2.281  52.694  1.00  0.00     0.204 C 
HETATM   17  C14 UNL     1      23.896   0.951  52.881  1.00  0.00     0.077 C 
HETATM   18  N3  UNL     1      24.348  -0.100  53.022  1.00  0.00    -0.196 NA
HETATM   19  C15 UNL     1      21.934   2.169  52.117  1.00  0.00     0.079 A 
HETATM   20  C16 UNL     1      21.151   1.248  52.751  1.00  0.00     0.049 A 
HETATM   21  C17 UNL     1      19.864   1.097  52.263  1.00  0.00     0.138 A 
HETATM   22  N4  UNL     1      19.363   1.812  51.210  1.00  0.00    -0.075 NA
HETATM   23  C18 UNL     1      20.214   2.716  50.637  1.00  0.00     0.722 A 
HETATM   24  N5  UNL     1      21.470   2.877  51.092  1.00  0.00    -0.066 NA
HETATM   25  N6  UNL     1      19.964   3.599  49.530  1.00  0.00    -0.222 N 
HETATM   26  C19 UNL     1      20.188   3.596  48.111  1.00  0.00     0.142 C 
HETATM   27  C20 UNL     1      20.111   4.958  47.474  1.00  0.00     0.056 C 
HETATM   28  H12 UNL     1      19.498   4.283  50.180  1.00  0.00     0.177 HD
ENDROOT
TORSDOF 0
ENDMDL
MODEL 6
REMARK VINA RESULT:      -8.1      2.607      4.407
REMARK  0 active torsions:
REMARK  status: ('A' for Active; 'I' for Inactive)
ROOT
HETATM    1  C1  UNL     1      23.554   7.475  46.258  1.00  0.00     0.040 C 
HETATM    2  C2  UNL     1      22.425   7.399  46.927  1.00  0.00    -0.061 C 
HETATM    3  C3  UNL     1      22.826   7.897  48.194  1.00  0.00     0.119 C 
HETATM    4  N1  UNL     1      23.381   8.352  49.220  1.00  0.00    -0.273 NA
HETATM    5  C4  UNL     1      24.718   8.705  49.371  1.00  0.00     0.117 C 
HETATM    6  C5  UNL     1      25.921   8.224  49.362  1.00  0.00     0.032 C 
HETATM    7  C6  UNL     1      26.432   6.923  49.153  1.00  0.00    -0.015 A 
HETATM    8  C7  UNL     1      27.414   6.246  48.518  1.00  0.00     0.013 A 
HETATM    9  C8  UNL     1      27.638   4.895  48.563  1.00  0.00     0.003 A 
HETATM   10  C9  UNL     1      26.874   4.011  49.280  1.00  0.00     0.033 A 
HETATM   11  C10 UNL     1      25.784   4.513  50.025  1.00  0.00     0.075 A 
HETATM   12  N2  UNL     1      25.016   3.734  50.683  1.00  0.00    -0.243 NA
HETATM   13  C11 UNL     1      23.956   4.407  51.325  1.00  0.00     0.100 A 
HETATM   14  S1  UNL     1      24.074   6.033  50.994  1.00  0.00    -0.070 SA
HETATM   15  C12 UNL     1      25.615   5.898  49.931  1.00  0.00     0.045 A 
HETATM   16  C13 UNL     1      22.821   3.983  52.180  1.00  0.00     0.204 C 
HETATM   17  C14 UNL     1      22.945   2.566  52.551  1.00  0.00     0.077 C 
HETATM   18  N3  UNL     1      23.026   1.452  52.835  1.00  0.00    -0.196 NA
HETATM   19  C15 UNL     1      21.554   4.225  51.442  1.00  0.00     0.079 A 
HETATM   20  C16 UNL     1      20.462   3.667  52.042  1.00  0.00     0.049 A 
HETATM   21  C17 UNL     1      19.248   3.858  51.405  1.00  0.00     0.138 A 
HETATM   22  N4  UNL     1      19.103   4.562  50.241  1.00  0.00    -0.075 NA
HETATM   23  C18 UNL     1      20.248   5.090  49.711  1.00  0.00     0.722 A 
HETATM   24  N5  UNL     1      21.440   4.913  50.311  1.00  0.00    -0.066 NA
HETATM   25  N6  UNL     1      20.399   5.869  48.512  1.00  0.00    -0.222 N 
HETATM   26  C19 UNL     1      20.748   5.630  47.139  1.00  0.00     0.142 C 
HETATM   27  C20 UNL     1      21.168   6.865  46.388  1.00  0.00     0.056 C 
HETATM   28  H12 UNL     1      20.112   6.734  49.038  1.00  0.00     0.177 HD
ENDROOT
TORSDOF 0
ENDMDL
MODEL 7
REMARK VINA RESULT:      -8.0      2.136      4.564
REMARK  0 active torsions:
REMARK  status: ('A' for Active; 'I' for Inactive)
ROOT
HETATM    1  C1  UNL     1      24.022   3.218  49.122  1.00  0.00     0.040 C 
HETATM    2  C2  UNL     1      22.728   3.414  48.990  1.00  0.00    -0.061 C 
HETATM    3  C3  UNL     1      22.385   3.852  50.295  1.00  0.00     0.119 C 
HETATM    4  N1  UNL     1      22.297   4.207  51.493  1.00  0.00    -0.273 NA
HETATM    5  C4  UNL     1      23.318   4.261  52.436  1.00  0.00     0.117 C 
HETATM    6  C5  UNL     1      24.168   3.527  53.082  1.00  0.00     0.032 C 
HETATM    7  C6  UNL     1      24.435   2.139  53.076  1.00  0.00    -0.015 A 
HETATM    8  C7  UNL     1      25.446   1.243  53.070  1.00  0.00     0.013 A 
HETATM    9  C8  UNL     1      25.330  -0.123  53.094  1.00  0.00     0.003 A 
HETATM   10  C9  UNL     1      24.134  -0.793  53.129  1.00  0.00     0.033 A 
HETATM   11  C10 UNL     1      22.939  -0.039  53.142  1.00  0.00     0.075 A 
HETATM   12  N2  UNL     1      21.797  -0.609  53.137  1.00  0.00    -0.243 NA
HETATM   13  C11 UNL     1      20.720   0.302  53.103  1.00  0.00     0.100 A 
HETATM   14  S1  UNL     1      21.328   1.850  53.078  1.00  0.00    -0.070 SA
HETATM   15  C12 UNL     1      23.135   1.345  53.114  1.00  0.00     0.045 A 
HETATM   16  C13 UNL     1      19.244   0.166  53.079  1.00  0.00     0.204 C 
HETATM   17  C14 UNL     1      18.843  -1.231  53.300  1.00  0.00     0.077 C 
HETATM   18  N3  UNL     1      18.518  -2.325  53.458  1.00  0.00    -0.196 NA
HETATM   19  C15 UNL     1      18.742   0.657  51.770  1.00  0.00     0.079 A 
HETATM   20  C16 UNL     1      17.425   0.373  51.553  1.00  0.00     0.049 A 
HETATM   21  C17 UNL     1      16.894   0.807  50.350  1.00  0.00     0.138 A 
HETATM   22  N4  UNL     1      17.612   1.488  49.405  1.00  0.00    -0.075 NA
HETATM   23  C18 UNL     1      18.923   1.732  49.706  1.00  0.00     0.722 A 
HETATM   24  N5  UNL     1      19.461   1.317  50.867  1.00  0.00    -0.066 NA
HETATM   25  N6  UNL     1      19.906   2.420  48.914  1.00  0.00    -0.222 N 
HETATM   26  C19 UNL     1      20.948   2.066  47.990  1.00  0.00     0.142 C 
HETATM   27  C20 UNL     1      21.964   3.153  47.763  1.00  0.00     0.056 C 
HETATM   28  H12 UNL     1      19.539   3.344  49.260  1.00  0.00     0.177 HD
ENDROOT
TORSDOF 0
ENDMDL
MODEL 8
REMARK VINA RESULT:      -7.7      3.074      7.474
REMARK  0 active torsions:
REMARK  status: ('A' for Active; 'I' for Inactive)
ROOT
HETATM    1  C1  UNL     1      24.031   1.697  51.562  1.00  0.00     0.040 C 
HETATM    2  C2  UNL     1      24.910   2.673  51.499  1.00  0.00    -0.061 C 
HETATM    3  C3  UNL     1      24.094   3.792  51.810  1.00  0.00     0.119 C 
HETATM    4  N1  UNL     1      23.210   4.632  52.095  1.00  0.00    -0.273 NA
HETATM    5  C4  UNL     1      21.858   4.392  52.317  1.00  0.00     0.117 C 
HETATM    6  C5  UNL     1      20.775   3.969  51.744  1.00  0.00     0.032 C 
HETATM    7  C6  UNL     1      20.502   3.500  50.439  1.00  0.00    -0.015 A 
HETATM    8  C7  UNL     1      19.839   2.535  49.765  1.00  0.00     0.013 A 
HETATM    9  C8  UNL     1      19.766   2.391  48.404  1.00  0.00     0.003 A 
HETATM   10  C9  UNL     1      20.375   3.229  47.507  1.00  0.00     0.033 A 
HETATM   11  C10 UNL     1      21.129   4.316  48.005  1.00  0.00     0.075 A 
HETATM   12  N2  UNL     1      21.748   5.108  47.218  1.00  0.00    -0.243 NA
HETATM   13  C11 UNL     1      22.484   6.103  47.896  1.00  0.00     0.100 A 
HETATM   14  S1  UNL     1      22.286   5.894  49.534  1.00  0.00    -0.070 SA
HETATM   15  C12 UNL     1      21.159   4.399  49.400  1.00  0.00     0.045 A 
HETATM   16  C13 UNL     1      23.352   7.227  47.468  1.00  0.00     0.204 C 
HETATM   17  C14 UNL     1      23.284   7.416  46.012  1.00  0.00     0.077 C 
HETATM   18  N3  UNL     1      23.249   7.563  44.869  1.00  0.00    -0.196 NA
HETATM   19  C15 UNL     1      24.745   6.941  47.897  1.00  0.00     0.079 A 
HETATM   20  C16 UNL     1      25.663   7.799  47.363  1.00  0.00     0.049 A 
HETATM   21  C17 UNL     1      26.983   7.588  47.727  1.00  0.00     0.138 A 
HETATM   22  N4  UNL     1      27.388   6.592  48.572  1.00  0.00    -0.075 NA
HETATM   23  C18 UNL     1      26.402   5.782  49.063  1.00  0.00     0.722 A 
HETATM   24  N5  UNL     1      25.113   5.965  48.721  1.00  0.00    -0.066 NA
HETATM   25  N6  UNL     1      26.529   4.668  49.963  1.00  0.00    -0.222 N 
HETATM   26  C19 UNL     1      26.636   3.239  49.860  1.00  0.00     0.142 C 
HETATM   27  C20 UNL     1      26.323   2.505  51.137  1.00  0.00     0.056 C 
HETATM   28  H12 UNL     1      26.545   5.330  50.782  1.00  0.00     0.177 HD
ENDROOT
TORSDOF 0
ENDMDL
MODEL 9
REMARK VINA RESULT:      -7.7      7.423     11.135
REMARK  0 active torsions:
REMARK  status: ('A' for Active; 'I' for Inactive)
ROOT
HETATM    1  C1  UNL     1      34.115   6.929  46.624  1.00  0.00     0.040 C 
HETATM    2  C2  UNL     1      33.111   6.080  46.644  1.00  0.00    -0.061 C 
HETATM    3  C3  UNL     1      32.262   6.642  45.656  1.00  0.00     0.119 C 
HETATM    4  N1  UNL     1      31.666   7.295  44.769  1.00  0.00    -0.273 NA
HETATM    5  C4  UNL     1      32.088   8.474  44.161  1.00  0.00     0.117 C 
HETATM    6  C5  UNL     1      32.363   9.717  44.398  1.00  0.00     0.032 C 
HETATM    7  C6  UNL     1      32.340  10.496  45.577  1.00  0.00    -0.015 A 
HETATM    8  C7  UNL     1      33.042  11.427  46.260  1.00  0.00     0.013 A 
HETATM    9  C8  UNL     1      32.682  12.021  47.441  1.00  0.00     0.003 A 
HETATM   10  C9  UNL     1      31.522  11.746  48.118  1.00  0.00     0.033 A 
HETATM   11  C10 UNL     1      30.634  10.792  47.573  1.00  0.00     0.075 A 
HETATM   12  N2  UNL     1      29.557  10.468  48.178  1.00  0.00    -0.243 NA
HETATM   13  C11 UNL     1      28.821   9.468  47.509  1.00  0.00     0.100 A 
HETATM   14  S1  UNL     1      29.635   9.040  46.123  1.00  0.00    -0.070 SA
HETATM   15  C12 UNL     1      31.068  10.227  46.370  1.00  0.00     0.045 A 
HETATM   16  C13 UNL     1      27.548   8.757  47.779  1.00  0.00     0.204 C 
HETATM   17  C14 UNL     1      26.842   9.362  48.918  1.00  0.00     0.077 C 
HETATM   18  N3  UNL     1      26.288   9.819  49.820  1.00  0.00    -0.196 NA
HETATM   19  C15 UNL     1      27.848   7.327  48.045  1.00  0.00     0.079 A 
HETATM   20  C16 UNL     1      26.778   6.628  48.523  1.00  0.00     0.049 A 
HETATM   21  C17 UNL     1      26.991   5.286  48.789  1.00  0.00     0.138 A 
HETATM   22  N4  UNL     1      28.190   4.655  48.596  1.00  0.00    -0.075 NA
HETATM   23  C18 UNL     1      29.207   5.430  48.111  1.00  0.00     0.722 A 
HETATM   24  N5  UNL     1      29.023   6.737  47.849  1.00  0.00    -0.066 NA
HETATM   25  N6  UNL     1      30.558   5.041  47.811  1.00  0.00    -0.222 N 
HETATM   26  C19 UNL     1      31.833   5.074  48.472  1.00  0.00     0.142 C 
HETATM   27  C20 UNL     1      33.010   4.925  47.545  1.00  0.00     0.056 C 
HETATM   28  H12 UNL     1      30.245   4.673  46.876  1.00  0.00     0.177 HD
ENDROOT
TORSDOF 0
ENDMDL
