MODEL 1
REMARK VINA RESULT:      -8.5      0.000      0.000
REMARK  6 active torsions:
REMARK  status: ('A' for Active; 'I' for Inactive)
REMARK    1  A    between atoms: C2_2  and  N1_3 
REMARK    2  A    between atoms: C2_2  and  C14_19 
REMARK    3  A    between atoms: N1_3  and  C3_4 
REMARK    4  A    between atoms: C3_4  and  C4_5 
REMARK    5  A    between atoms: C6_9  and  C7_10 
REMARK    6  A    between atoms: C13_17  and  O1_18 
ROOT
HETATM    1  C4  UNL     1      23.480   3.734  51.120  1.00  0.00     0.002 C 
HETATM    2  C5  UNL     1      22.779   2.737  50.604  1.00  0.00     0.047 C 
HETATM    3  N2  UNL     1      21.992   1.830  49.856  1.00  0.00    -0.281 N 
HETATM    4  N3  UNL     1      21.800   0.714  50.644  1.00  0.00    -0.178 NA
HETATM    5  C6  UNL     1      22.387   0.788  51.785  1.00  0.00     0.077 C 
HETATM    6  C12 UNL     1      23.353   1.848  51.657  1.00  0.00     0.125 C 
HETATM    7  C13 UNL     1      23.576   3.021  52.454  1.00  0.00     0.166 C 
HETATM    8  H8  UNL     1      21.713   2.141  48.909  1.00  0.00     0.189 HD
ENDROOT
BRANCH   1   9
HETATM    9  C3  UNL     1      23.948   5.117  50.857  1.00  0.00     0.309 C 
BRANCH   9  10
HETATM   10  N1  UNL     1      25.371   5.214  50.761  1.00  0.00     0.096 N 
HETATM   11  H5  UNL     1      25.708   6.200  50.777  1.00  0.00     0.317 HD
BRANCH  10  12
HETATM   12  C2  UNL     1      25.822   4.634  49.521  1.00  0.00     0.249 C 
HETATM   13  C1  UNL     1      26.581   3.354  49.696  1.00  0.00     0.048 C 
BRANCH  12  14
HETATM   14  C14 UNL     1      26.720   5.568  48.789  1.00  0.00    -0.024 A 
HETATM   15  C15 UNL     1      26.361   6.788  48.292  1.00  0.00     0.009 A 
HETATM   16  C16 UNL     1      27.315   7.534  47.637  1.00  0.00     0.002 A 
HETATM   17  C17 UNL     1      28.609   7.057  47.487  1.00  0.00     0.024 A 
HETATM   18  C18 UNL     1      28.967   5.827  47.989  1.00  0.00     0.034 A 
HETATM   19 CL1  UNL     1      30.598   5.245  47.790  1.00  0.00    -0.084 Cl
HETATM   20  C19 UNL     1      28.000   5.085  48.646  1.00  0.00     0.033 A 
ENDBRANCH  12  14
ENDBRANCH  10  12
ENDBRANCH   9  10
ENDBRANCH   1   9
BRANCH   7  21
HETATM   21  O1  UNL     1      24.889   3.143  52.983  1.00  0.00    -0.390 OA
HETATM   22  H15 UNL     1      25.477   2.433  52.619  1.00  0.00     0.210 HD
ENDBRANCH   7  21
BRANCH   5  23
HETATM   23  C7  UNL     1      22.515  -0.023  52.978  1.00  0.00    -0.006 A 
HETATM   24  C8  UNL     1      23.568  -0.358  53.750  1.00  0.00     0.032 A 
HETATM   25  C9  UNL     1      23.400  -1.170  54.850  1.00  0.00     0.117 A 
HETATM   26  N4  UNL     1      22.174  -1.658  55.192  1.00  0.00    -0.273 NA
HETATM   27  C10 UNL     1      21.092  -1.349  54.450  1.00  0.00     0.117 A 
HETATM   28  C11 UNL     1      21.261  -0.531  53.341  1.00  0.00     0.032 A 
ENDBRANCH   5  23
TORSDOF 6
ENDMDL
MODEL 2
REMARK VINA RESULT:      -8.2      3.062      3.706
REMARK  6 active torsions:
REMARK  status: ('A' for Active; 'I' for Inactive)
REMARK    1  A    between atoms: C2_2  and  N1_3 
REMARK    2  A    between atoms: C2_2  and  C14_19 
REMARK    3  A    between atoms: N1_3  and  C3_4 
REMARK    4  A    between atoms: C3_4  and  C4_5 
REMARK    5  A    between atoms: C6_9  and  C7_10 
REMARK    6  A    between atoms: C13_17  and  O1_18 
ROOT
HETATM    1  C4  UNL     1      24.725   2.758  51.536  1.00  0.00     0.002 C 
HETATM    2  C5  UNL     1      24.238   1.745  52.233  1.00  0.00     0.047 C 
HETATM    3  N2  UNL     1      23.494   0.784  52.959  1.00  0.00    -0.281 N 
HETATM    4  N3  UNL     1      24.390  -0.158  53.423  1.00  0.00    -0.178 NA
HETATM    5  C6  UNL     1      25.602   0.070  53.060  1.00  0.00     0.077 C 
HETATM    6  C12 UNL     1      25.513   1.012  51.974  1.00  0.00     0.125 C 
HETATM    7  C13 UNL     1      26.145   2.286  51.777  1.00  0.00     0.166 C 
HETATM    8  H8  UNL     1      22.473   0.945  53.015  1.00  0.00     0.189 HD
ENDROOT
BRANCH   1   9
HETATM    9  C3  UNL     1      24.351   4.032  50.874  1.00  0.00     0.309 C 
BRANCH   9  10
HETATM   10  N1  UNL     1      25.418   4.983  50.853  1.00  0.00     0.096 N 
HETATM   11  H5  UNL     1      25.425   5.596  51.695  1.00  0.00     0.317 HD
BRANCH  10  12
HETATM   12  C2  UNL     1      25.287   5.845  49.704  1.00  0.00     0.249 C 
HETATM   13  C1  UNL     1      24.317   5.339  48.681  1.00  0.00     0.048 C 
BRANCH  12  14
HETATM   14  C14 UNL     1      26.594   6.014  49.012  1.00  0.00    -0.024 A 
HETATM   15  C15 UNL     1      27.505   5.024  48.785  1.00  0.00     0.009 A 
HETATM   16  C16 UNL     1      28.671   5.348  48.127  1.00  0.00     0.002 A 
HETATM   17  C17 UNL     1      28.912   6.647  47.706  1.00  0.00     0.024 A 
HETATM   18  C18 UNL     1      27.990   7.642  47.937  1.00  0.00     0.034 A 
HETATM   19 CL1  UNL     1      28.311   9.269  47.400  1.00  0.00    -0.084 Cl
HETATM   20  C19 UNL     1      26.821   7.307  48.599  1.00  0.00     0.033 A 
ENDBRANCH  12  14
ENDBRANCH  10  12
ENDBRANCH   9  10
ENDBRANCH   1   9
BRANCH   7  21
HETATM   21  O1  UNL     1      26.908   2.396  50.584  1.00  0.00    -0.390 OA
HETATM   22  H15 UNL     1      27.182   1.499  50.264  1.00  0.00     0.210 HD
ENDBRANCH   7  21
BRANCH   5  23
HETATM   23  C7  UNL     1      26.907  -0.526  53.253  1.00  0.00    -0.006 A 
HETATM   24  C8  UNL     1      28.053  -0.070  53.797  1.00  0.00     0.032 A 
HETATM   25  C9  UNL     1      29.173  -0.870  53.846  1.00  0.00     0.117 A 
HETATM   26  N4  UNL     1      29.160  -2.141  53.352  1.00  0.00    -0.273 NA
HETATM   27  C10 UNL     1      28.036  -2.640  52.801  1.00  0.00     0.117 A 
HETATM   28  C11 UNL     1      26.908  -1.834  52.750  1.00  0.00     0.032 A 
ENDBRANCH   5  23
TORSDOF 6
ENDMDL
MODEL 3
REMARK VINA RESULT:      -8.1      2.919      3.793
REMARK  6 active torsions:
REMARK  status: ('A' for Active; 'I' for Inactive)
REMARK    1  A    between atoms: C2_2  and  N1_3 
REMARK    2  A    between atoms: C2_2  and  C14_19 
REMARK    3  A    between atoms: N1_3  and  C3_4 
REMARK    4  A    between atoms: C3_4  and  C4_5 
REMARK    5  A    between atoms: C6_9  and  C7_10 
REMARK    6  A    between atoms: C13_17  and  O1_18 
ROOT
HETATM    1  C4  UNL     1      23.731   2.958  52.449  1.00  0.00     0.002 C 
HETATM    2  C5  UNL     1      23.387   1.747  52.854  1.00  0.00     0.047 C 
HETATM    3  N2  UNL     1      22.781   0.543  53.284  1.00  0.00    -0.281 N 
HETATM    4  N3  UNL     1      23.798  -0.343  53.575  1.00  0.00    -0.178 NA
HETATM    5  C6  UNL     1      24.971   0.138  53.359  1.00  0.00     0.077 C 
HETATM    6  C12 UNL     1      24.769   1.291  52.520  1.00  0.00     0.125 C 
HETATM    7  C13 UNL     1      25.200   2.653  52.669  1.00  0.00     0.166 C 
HETATM    8  H8  UNL     1      21.746   0.535  53.306  1.00  0.00     0.189 HD
ENDROOT
BRANCH   1   9
HETATM    9  C3  UNL     1      23.183   4.286  52.078  1.00  0.00     0.309 C 
BRANCH   9  10
HETATM   10  N1  UNL     1      24.156   5.331  52.155  1.00  0.00     0.096 N 
HETATM   11  H5  UNL     1      24.135   5.832  53.068  1.00  0.00     0.317 HD
BRANCH  10  12
HETATM   12  C2  UNL     1      23.906   6.312  51.128  1.00  0.00     0.249 C 
HETATM   13  C1  UNL     1      22.739   5.980  50.250  1.00  0.00     0.048 C 
BRANCH  12  14
HETATM   14  C14 UNL     1      25.086   6.463  50.234  1.00  0.00    -0.024 A 
HETATM   15  C15 UNL     1      25.532   5.530  49.343  1.00  0.00     0.009 A 
HETATM   16  C16 UNL     1      26.644   5.827  48.588  1.00  0.00     0.002 A 
HETATM   17  C17 UNL     1      27.295   7.044  48.729  1.00  0.00     0.024 A 
HETATM   18  C18 UNL     1      26.842   7.981  49.629  1.00  0.00     0.034 A 
HETATM   19 CL1  UNL     1      27.674   9.505  49.791  1.00  0.00    -0.084 Cl
HETATM   20  C19 UNL     1      25.723   7.674  50.383  1.00  0.00     0.033 A 
ENDBRANCH  12  14
ENDBRANCH  10  12
ENDBRANCH   9  10
ENDBRANCH   1   9
BRANCH   7  21
HETATM   21  O1  UNL     1      25.973   3.156  51.589  1.00  0.00    -0.390 OA
HETATM   22  H15 UNL     1      26.902   2.816  51.640  1.00  0.00     0.210 HD
ENDBRANCH   7  21
BRANCH   5  23
HETATM   23  C7  UNL     1      26.346  -0.292  53.496  1.00  0.00    -0.006 A 
HETATM   24  C8  UNL     1      27.117  -1.141  52.788  1.00  0.00     0.032 A 
HETATM   25  C9  UNL     1      28.424  -1.373  53.155  1.00  0.00     0.117 A 
HETATM   26  N4  UNL     1      28.979  -0.757  54.237  1.00  0.00    -0.273 NA
HETATM   27  C10 UNL     1      28.246   0.102  54.974  1.00  0.00     0.117 A 
HETATM   28  C11 UNL     1      26.930   0.336  54.605  1.00  0.00     0.032 A 
ENDBRANCH   5  23
TORSDOF 6
ENDMDL
MODEL 4
REMARK VINA RESULT:      -8.0      5.272      8.619
REMARK  6 active torsions:
REMARK  status: ('A' for Active; 'I' for Inactive)
REMARK    1  A    between atoms: C2_2  and  N1_3 
REMARK    2  A    between atoms: C2_2  and  C14_19 
REMARK    3  A    between atoms: N1_3  and  C3_4 
REMARK    4  A    between atoms: C3_4  and  C4_5 
REMARK    5  A    between atoms: C6_9  and  C7_10 
REMARK    6  A    between atoms: C13_17  and  O1_18 
ROOT
HETATM    1  C4  UNL     1      23.947   1.266  52.820  1.00  0.00     0.002 C 
HETATM    2  C5  UNL     1      25.031   1.918  52.431  1.00  0.00     0.047 C 
HETATM    3  N2  UNL     1      26.024   2.792  51.930  1.00  0.00    -0.281 N 
HETATM    4  N3  UNL     1      27.238   2.151  52.072  1.00  0.00    -0.178 NA
HETATM    5  C6  UNL     1      27.141   0.993  52.622  1.00  0.00     0.077 C 
HETATM    6  C12 UNL     1      25.843   0.965  53.243  1.00  0.00     0.125 C 
HETATM    7  C13 UNL     1      24.763   0.026  53.128  1.00  0.00     0.166 C 
HETATM    8  H8  UNL     1      25.691   3.702  51.566  1.00  0.00     0.189 HD
ENDROOT
BRANCH   1   9
HETATM    9  C3  UNL     1      22.467   1.347  52.871  1.00  0.00     0.309 C 
BRANCH   9  10
HETATM   10  N1  UNL     1      21.832   0.091  52.622  1.00  0.00     0.096 N 
HETATM   11  H5  UNL     1      21.319   0.074  51.715  1.00  0.00     0.317 HD
BRANCH  10  12
HETATM   12  C2  UNL     1      20.867  -0.187  53.658  1.00  0.00     0.249 C 
HETATM   13  C1  UNL     1      21.204  -1.389  54.486  1.00  0.00     0.048 C 
BRANCH  12  14
HETATM   14  C14 UNL     1      19.517  -0.427  53.080  1.00  0.00    -0.024 A 
HETATM   15  C15 UNL     1      18.875   0.391  52.195  1.00  0.00     0.009 A 
HETATM   16  C16 UNL     1      17.624   0.022  51.755  1.00  0.00     0.002 A 
HETATM   17  C17 UNL     1      17.031  -1.151  52.198  1.00  0.00     0.024 A 
HETATM   18  C18 UNL     1      17.682  -1.972  53.089  1.00  0.00     0.034 A 
HETATM   19 CL1  UNL     1      16.920  -3.443  53.635  1.00  0.00    -0.084 Cl
HETATM   20  C19 UNL     1      18.940  -1.593  53.527  1.00  0.00     0.033 A 
ENDBRANCH  12  14
ENDBRANCH  10  12
ENDBRANCH   9  10
ENDBRANCH   1   9
BRANCH   7  21
HETATM   21  O1  UNL     1      24.338  -0.549  54.356  1.00  0.00    -0.390 OA
HETATM   22  H15 UNL     1      25.074  -0.535  55.018  1.00  0.00     0.210 HD
ENDBRANCH   7  21
BRANCH   5  23
HETATM   23  C7  UNL     1      28.024  -0.095  52.988  1.00  0.00    -0.006 A 
HETATM   24  C8  UNL     1      29.243  -0.135  53.561  1.00  0.00     0.032 A 
HETATM   25  C9  UNL     1      29.869  -1.339  53.794  1.00  0.00     0.117 A 
HETATM   26  N4  UNL     1      29.281  -2.523  53.458  1.00  0.00    -0.273 NA
HETATM   27  C10 UNL     1      28.062  -2.532  52.883  1.00  0.00     0.117 A 
HETATM   28  C11 UNL     1      27.431  -1.319  52.648  1.00  0.00     0.032 A 
ENDBRANCH   5  23
TORSDOF 6
ENDMDL
MODEL 5
REMARK VINA RESULT:      -8.0      3.118      7.970
REMARK  6 active torsions:
REMARK  status: ('A' for Active; 'I' for Inactive)
REMARK    1  A    between atoms: C2_2  and  N1_3 
REMARK    2  A    between atoms: C2_2  and  C14_19 
REMARK    3  A    between atoms: N1_3  and  C3_4 
REMARK    4  A    between atoms: C3_4  and  C4_5 
REMARK    5  A    between atoms: C6_9  and  C7_10 
REMARK    6  A    between atoms: C13_17  and  O1_18 
ROOT
HETATM    1  C4  UNL     1      24.952   3.585  50.025  1.00  0.00     0.002 C 
HETATM    2  C5  UNL     1      24.718   4.704  49.358  1.00  0.00     0.047 C 
HETATM    3  N2  UNL     1      24.222   5.831  48.661  1.00  0.00    -0.281 N 
HETATM    4  N3  UNL     1      25.316   6.550  48.222  1.00  0.00    -0.178 NA
HETATM    5  C6  UNL     1      26.439   6.035  48.575  1.00  0.00     0.077 C 
HETATM    6  C12 UNL     1      26.128   5.111  49.634  1.00  0.00     0.125 C 
HETATM    7  C13 UNL     1      26.444   3.719  49.794  1.00  0.00     0.166 C 
HETATM    8  H8  UNL     1      23.192   5.915  48.602  1.00  0.00     0.189 HD
ENDROOT
BRANCH   1   9
HETATM    9  C3  UNL     1      24.288   2.416  50.652  1.00  0.00     0.309 C 
BRANCH   9  10
HETATM   10  N1  UNL     1      24.753   2.157  51.978  1.00  0.00     0.096 N 
HETATM   11  H5  UNL     1      25.731   2.482  52.131  1.00  0.00     0.317 HD
BRANCH  10  12
HETATM   12  C2  UNL     1      24.736   0.738  52.237  1.00  0.00     0.249 C 
HETATM   13  C1  UNL     1      23.785   0.337  53.323  1.00  0.00     0.048 C 
BRANCH  12  14
HETATM   14  C14 UNL     1      26.082   0.252  52.643  1.00  0.00    -0.024 A 
HETATM   15  C15 UNL     1      26.529  -1.033  52.535  1.00  0.00     0.009 A 
HETATM   16  C16 UNL     1      27.807  -1.319  52.959  1.00  0.00     0.002 A 
HETATM   17  C17 UNL     1      28.621  -0.325  53.482  1.00  0.00     0.024 A 
HETATM   18  C18 UNL     1      28.167   0.969  53.590  1.00  0.00     0.034 A 
HETATM   19 CL1  UNL     1      29.205   2.205  54.251  1.00  0.00    -0.084 Cl
HETATM   20  C19 UNL     1      26.880   1.246  53.161  1.00  0.00     0.033 A 
ENDBRANCH  12  14
ENDBRANCH  10  12
ENDBRANCH   9  10
ENDBRANCH   1   9
BRANCH   7  21
HETATM   21  O1  UNL     1      27.155   3.401  50.982  1.00  0.00    -0.390 OA
HETATM   22  H15 UNL     1      27.064   4.130  51.646  1.00  0.00     0.210 HD
ENDBRANCH   7  21
BRANCH   5  23
HETATM   23  C7  UNL     1      27.849   6.315  48.396  1.00  0.00    -0.006 A 
HETATM   24  C8  UNL     1      28.910   5.534  48.111  1.00  0.00     0.032 A 
HETATM   25  C9  UNL     1      30.170   6.079  48.001  1.00  0.00     0.117 A 
HETATM   26  N4  UNL     1      30.386   7.414  48.173  1.00  0.00    -0.273 NA
HETATM   27  C10 UNL     1      29.354   8.233  48.458  1.00  0.00     0.117 A 
HETATM   28  C11 UNL     1      28.084   7.686  48.570  1.00  0.00     0.032 A 
ENDBRANCH   5  23
TORSDOF 6
ENDMDL
MODEL 6
REMARK VINA RESULT:      -8.0      4.019      9.009
REMARK  6 active torsions:
REMARK  status: ('A' for Active; 'I' for Inactive)
REMARK    1  A    between atoms: C2_2  and  N1_3 
REMARK    2  A    between atoms: C2_2  and  C14_19 
REMARK    3  A    between atoms: N1_3  and  C3_4 
REMARK    4  A    between atoms: C3_4  and  C4_5 
REMARK    5  A    between atoms: C6_9  and  C7_10 
REMARK    6  A    between atoms: C13_17  and  O1_18 
ROOT
HETATM    1  C4  UNL     1      26.580   4.620  49.186  1.00  0.00     0.002 C 
HETATM    2  C5  UNL     1      25.797   5.613  48.796  1.00  0.00     0.047 C 
HETATM    3  N2  UNL     1      24.770   6.530  48.469  1.00  0.00    -0.281 N 
HETATM    4  N3  UNL     1      25.359   7.571  47.780  1.00  0.00    -0.178 NA
HETATM    5  C6  UNL     1      26.632   7.442  47.653  1.00  0.00     0.077 C 
HETATM    6  C12 UNL     1      27.021   6.450  48.621  1.00  0.00     0.125 C 
HETATM    7  C13 UNL     1      27.770   5.233  48.475  1.00  0.00     0.166 C 
HETATM    8  H8  UNL     1      23.816   6.277  48.781  1.00  0.00     0.189 HD
ENDROOT
BRANCH   1   9
HETATM    9  C3  UNL     1      26.571   3.290  49.841  1.00  0.00     0.309 C 
BRANCH   9  10
HETATM   10  N1  UNL     1      26.654   3.370  51.266  1.00  0.00     0.096 N 
HETATM   11  H5  UNL     1      27.637   3.413  51.609  1.00  0.00     0.317 HD
BRANCH  10  12
HETATM   12  C2  UNL     1      26.049   2.203  51.861  1.00  0.00     0.249 C 
HETATM   13  C1  UNL     1      25.026   2.524  52.907  1.00  0.00     0.048 C 
BRANCH  12  14
HETATM   14  C14 UNL     1      27.075   1.344  52.512  1.00  0.00    -0.024 A 
HETATM   15  C15 UNL     1      28.139   1.791  53.240  1.00  0.00     0.009 A 
HETATM   16  C16 UNL     1      29.000   0.861  53.778  1.00  0.00     0.002 A 
HETATM   17  C17 UNL     1      28.790  -0.497  53.585  1.00  0.00     0.024 A 
HETATM   18  C18 UNL     1      27.716  -0.943  52.850  1.00  0.00     0.034 A 
HETATM   19 CL1  UNL     1      27.469  -2.653  52.618  1.00  0.00    -0.084 Cl
HETATM   20  C19 UNL     1      26.856   0.000  52.313  1.00  0.00     0.033 A 
ENDBRANCH  12  14
ENDBRANCH  10  12
ENDBRANCH   9  10
ENDBRANCH   1   9
BRANCH   7  21
HETATM   21  O1  UNL     1      28.929   5.144  49.292  1.00  0.00    -0.390 OA
HETATM   22  H15 UNL     1      28.690   4.825  50.198  1.00  0.00     0.210 HD
ENDBRANCH   7  21
BRANCH   5  23
HETATM   23  C7  UNL     1      27.725   8.166  47.038  1.00  0.00    -0.006 A 
HETATM   24  C8  UNL     1      28.076   8.380  45.754  1.00  0.00     0.032 A 
HETATM   25  C9  UNL     1      29.197   9.121  45.449  1.00  0.00     0.117 A 
HETATM   26  N4  UNL     1      29.981   9.660  46.426  1.00  0.00    -0.273 NA
HETATM   27  C10 UNL     1      29.667   9.473  47.723  1.00  0.00     0.117 A 
HETATM   28  C11 UNL     1      28.539   8.726  48.032  1.00  0.00     0.032 A 
ENDBRANCH   5  23
TORSDOF 6
ENDMDL
MODEL 7
REMARK VINA RESULT:      -7.8      3.672      5.609
REMARK  6 active torsions:
REMARK  status: ('A' for Active; 'I' for Inactive)
REMARK    1  A    between atoms: C2_2  and  N1_3 
REMARK    2  A    between atoms: C2_2  and  C14_19 
REMARK    3  A    between atoms: N1_3  and  C3_4 
REMARK    4  A    between atoms: C3_4  and  C4_5 
REMARK    5  A    between atoms: C6_9  and  C7_10 
REMARK    6  A    between atoms: C13_17  and  O1_18 
ROOT
HETATM    1  C4  UNL     1      23.033   0.914  53.393  1.00  0.00     0.002 C 
HETATM    2  C5  UNL     1      22.548  -0.116  54.066  1.00  0.00     0.047 C 
HETATM    3  N2  UNL     1      22.264  -1.235  54.885  1.00  0.00    -0.281 N 
HETATM    4  N3  UNL     1      20.977  -1.637  54.591  1.00  0.00    -0.178 NA
HETATM    5  C6  UNL     1      20.402  -0.899  53.710  1.00  0.00     0.077 C 
HETATM    6  C12 UNL     1      21.181   0.310  53.646  1.00  0.00     0.125 C 
HETATM    7  C13 UNL     1      21.788   0.983  52.532  1.00  0.00     0.166 C 
HETATM    8  H8  UNL     1      23.023  -1.540  55.520  1.00  0.00     0.189 HD
ENDROOT
BRANCH   1   9
HETATM    9  C3  UNL     1      24.256   1.730  53.190  1.00  0.00     0.309 C 
BRANCH   9  10
HETATM   10  N1  UNL     1      24.651   1.810  51.819  1.00  0.00     0.096 N 
HETATM   11  H5  UNL     1      24.676   0.877  51.355  1.00  0.00     0.317 HD
BRANCH  10  12
HETATM   12  C2  UNL     1      25.978   2.366  51.721  1.00  0.00     0.249 C 
HETATM   13  C1  UNL     1      26.451   2.547  50.311  1.00  0.00     0.048 C 
BRANCH  12  14
HETATM   14  C14 UNL     1      26.974   1.495  52.400  1.00  0.00    -0.024 A 
HETATM   15  C15 UNL     1      28.026   1.930  53.154  1.00  0.00     0.009 A 
HETATM   16  C16 UNL     1      28.859   0.990  53.717  1.00  0.00     0.002 A 
HETATM   17  C17 UNL     1      28.636  -0.365  53.522  1.00  0.00     0.024 A 
HETATM   18  C18 UNL     1      27.575  -0.799  52.761  1.00  0.00     0.034 A 
HETATM   19 CL1  UNL     1      27.311  -2.507  52.528  1.00  0.00    -0.084 Cl
HETATM   20  C19 UNL     1      26.743   0.154  52.200  1.00  0.00     0.033 A 
ENDBRANCH  12  14
ENDBRANCH  10  12
ENDBRANCH   9  10
ENDBRANCH   1   9
BRANCH   7  21
HETATM   21  O1  UNL     1      21.384   2.334  52.358  1.00  0.00    -0.390 OA
HETATM   22  H15 UNL     1      20.551   2.514  52.862  1.00  0.00     0.210 HD
ENDBRANCH   7  21
BRANCH   5  23
HETATM   23  C7  UNL     1      19.129  -0.850  53.022  1.00  0.00    -0.006 A 
HETATM   24  C8  UNL     1      18.642  -0.052  52.050  1.00  0.00     0.032 A 
HETATM   25  C9  UNL     1      17.361  -0.230  51.574  1.00  0.00     0.117 A 
HETATM   26  N4  UNL     1      16.551  -1.212  52.062  1.00  0.00    -0.273 NA
HETATM   27  C10 UNL     1      16.996  -2.034  53.033  1.00  0.00     0.117 A 
HETATM   28  C11 UNL     1      18.285  -1.855  53.514  1.00  0.00     0.032 A 
ENDBRANCH   5  23
TORSDOF 6
ENDMDL
MODEL 8
REMARK VINA RESULT:      -7.7      3.246      8.775
REMARK  6 active torsions:
REMARK  status: ('A' for Active; 'I' for Inactive)
REMARK    1  A    between atoms: C2_2  and  N1_3 
REMARK    2  A    between atoms: C2_2  and  C14_19 
REMARK    3  A    between atoms: N1_3  and  C3_4 
REMARK    4  A    between atoms: C3_4  and  C4_5 
REMARK    5  A    between atoms: C6_9  and  C7_10 
REMARK    6  A    between atoms: C13_17  and  O1_18 
ROOT
HETATM    1  C4  UNL     1      24.812   3.155  50.208  1.00  0.00     0.002 C 
HETATM    2  C5  UNL     1      24.469   4.253  49.556  1.00  0.00     0.047 C 
HETATM    3  N2  UNL     1      23.865   5.337  48.875  1.00  0.00    -0.281 N 
HETATM    4  N3  UNL     1      24.882   6.158  48.434  1.00  0.00    -0.178 NA
HETATM    5  C6  UNL     1      26.052   5.746  48.772  1.00  0.00     0.077 C 
HETATM    6  C12 UNL     1      25.838   4.786  49.823  1.00  0.00     0.125 C 
HETATM    7  C13 UNL     1      26.283   3.428  49.965  1.00  0.00     0.166 C 
HETATM    8  H8  UNL     1      22.831   5.326  48.827  1.00  0.00     0.189 HD
ENDROOT
BRANCH   1   9
HETATM    9  C3  UNL     1      24.265   1.923  50.828  1.00  0.00     0.309 C 
BRANCH   9  10
HETATM   10  N1  UNL     1      23.531   2.182  52.027  1.00  0.00     0.096 N 
HETATM   11  H5  UNL     1      23.658   3.157  52.372  1.00  0.00     0.317 HD
BRANCH  10  12
HETATM   12  C2  UNL     1      23.978   1.301  53.078  1.00  0.00     0.249 C 
HETATM   13  C1  UNL     1      25.178   0.483  52.707  1.00  0.00     0.048 C 
BRANCH  12  14
HETATM   14  C14 UNL     1      22.907   0.342  53.464  1.00  0.00    -0.024 A 
HETATM   15  C15 UNL     1      23.057  -0.715  54.314  1.00  0.00     0.009 A 
HETATM   16  C16 UNL     1      21.961  -1.510  54.567  1.00  0.00     0.002 A 
HETATM   17  C17 UNL     1      20.736  -1.241  53.973  1.00  0.00     0.024 A 
HETATM   18  C18 UNL     1      20.590  -0.174  53.118  1.00  0.00     0.034 A 
HETATM   19 CL1  UNL     1      19.043   0.147  52.381  1.00  0.00    -0.084 Cl
HETATM   20  C19 UNL     1      21.698   0.619  52.869  1.00  0.00     0.033 A 
ENDBRANCH  12  14
ENDBRANCH  10  12
ENDBRANCH   9  10
ENDBRANCH   1   9
BRANCH   7  21
HETATM   21  O1  UNL     1      27.032   3.165  51.144  1.00  0.00    -0.390 OA
HETATM   22  H15 UNL     1      27.757   2.517  50.956  1.00  0.00     0.210 HD
ENDBRANCH   7  21
BRANCH   5  23
HETATM   23  C7  UNL     1      27.428   6.157  48.583  1.00  0.00    -0.006 A 
HETATM   24  C8  UNL     1      28.559   5.477  48.310  1.00  0.00     0.032 A 
HETATM   25  C9  UNL     1      29.761   6.138  48.185  1.00  0.00     0.117 A 
HETATM   26  N4  UNL     1      29.847   7.490  48.332  1.00  0.00    -0.273 NA
HETATM   27  C10 UNL     1      28.741   8.212  48.604  1.00  0.00     0.117 A 
HETATM   28  C11 UNL     1      27.530   7.547  48.730  1.00  0.00     0.032 A 
ENDBRANCH   5  23
TORSDOF 6
ENDMDL
MODEL 9
REMARK VINA RESULT:      -7.7      5.056      8.344
REMARK  6 active torsions:
REMARK  status: ('A' for Active; 'I' for Inactive)
REMARK    1  A    between atoms: C2_2  and  N1_3 
REMARK    2  A    between atoms: C2_2  and  C14_19 
REMARK    3  A    between atoms: N1_3  and  C3_4 
REMARK    4  A    between atoms: C3_4  and  C4_5 
REMARK    5  A    between atoms: C6_9  and  C7_10 
REMARK    6  A    between atoms: C13_17  and  O1_18 
ROOT
HETATM    1  C4  UNL     1      23.284   1.935  52.346  1.00  0.00     0.002 C 
HETATM    2  C5  UNL     1      24.482   2.398  52.029  1.00  0.00     0.047 C 
HETATM    3  N2  UNL     1      25.636   3.103  51.614  1.00  0.00    -0.281 N 
HETATM    4  N3  UNL     1      26.706   2.241  51.743  1.00  0.00    -0.178 NA
HETATM    5  C6  UNL     1      26.379   1.089  52.211  1.00  0.00     0.077 C 
HETATM    6  C12 UNL     1      25.075   1.263  52.796  1.00  0.00     0.125 C 
HETATM    7  C13 UNL     1      23.847   0.549  52.590  1.00  0.00     0.166 C 
HETATM    8  H8  UNL     1      25.488   4.079  51.304  1.00  0.00     0.189 HD
ENDROOT
BRANCH   1   9
HETATM    9  C3  UNL     1      21.842   2.285  52.365  1.00  0.00     0.309 C 
BRANCH   9  10
HETATM   10  N1  UNL     1      21.004   1.174  52.692  1.00  0.00     0.096 N 
HETATM   11  H5  UNL     1      21.547   0.334  52.983  1.00  0.00     0.317 HD
BRANCH  10  12
HETATM   12  C2  UNL     1      20.222   0.793  51.541  1.00  0.00     0.249 C 
HETATM   13  C1  UNL     1      19.711   1.957  50.749  1.00  0.00     0.048 C 
BRANCH  12  14
HETATM   14  C14 UNL     1      19.033  -0.006  51.945  1.00  0.00    -0.024 A 
HETATM   15  C15 UNL     1      18.928  -0.753  53.083  1.00  0.00     0.009 A 
HETATM   16  C16 UNL     1      17.754  -1.437  53.310  1.00  0.00     0.002 A 
HETATM   17  C17 UNL     1      16.705  -1.368  52.405  1.00  0.00     0.024 A 
HETATM   18  C18 UNL     1      16.816  -0.613  51.259  1.00  0.00     0.034 A 
HETATM   19 CL1  UNL     1      15.486  -0.539  50.133  1.00  0.00    -0.084 Cl
HETATM   20  C19 UNL     1      18.000   0.070  51.040  1.00  0.00     0.033 A 
ENDBRANCH  12  14
ENDBRANCH  10  12
ENDBRANCH   9  10
ENDBRANCH   1   9
BRANCH   7  21
HETATM   21  O1  UNL     1      23.278  -0.013  53.764  1.00  0.00    -0.390 OA
HETATM   22  H15 UNL     1      23.454   0.569  54.547  1.00  0.00     0.210 HD
ENDBRANCH   7  21
BRANCH   5  23
HETATM   23  C7  UNL     1      27.034  -0.164  52.524  1.00  0.00    -0.006 A 
HETATM   24  C8  UNL     1      26.711  -1.451  52.288  1.00  0.00     0.032 A 
HETATM   25  C9  UNL     1      27.535  -2.469  52.714  1.00  0.00     0.117 A 
HETATM   26  N4  UNL     1      28.696  -2.213  53.380  1.00  0.00    -0.273 NA
HETATM   27  C10 UNL     1      29.060  -0.940  53.637  1.00  0.00     0.117 A 
HETATM   28  C11 UNL     1      28.230   0.086  53.210  1.00  0.00     0.032 A 
ENDBRANCH   5  23
TORSDOF 6
ENDMDL
