MODEL 1
REMARK VINA RESULT:      -7.7      0.000      0.000
REMARK  6 active torsions:
REMARK  status: ('A' for Active; 'I' for Inactive)
REMARK    1  A    between atoms: O1_2  and  C2_3 
REMARK    2  A    between atoms: C6_9  and  N3_10 
REMARK    3  A    between atoms: N3_10  and  C7_11 
REMARK    4  A    between atoms: C7_11  and  C8_12 
REMARK    5  A    between atoms: C8_12  and  C9_13 
REMARK    6  A    between atoms: C17_21  and  O2_22 
ROOT
HETATM    1  C2  UNL     1      26.939  -0.279  53.258  1.00  0.00     0.103 A 
HETATM    2  C3  UNL     1      25.505  -0.834  53.444  1.00  0.00     0.072 A 
HETATM    3  C4  UNL     1      24.802   0.204  53.088  1.00  0.00     0.074 A 
HETATM    4  N1  UNL     1      23.613  -0.451  53.332  1.00  0.00    -0.241 NA
HETATM    5  C5  UNL     1      22.430   0.100  53.165  1.00  0.00     0.235 A 
HETATM    6  N2  UNL     1      22.440   1.389  52.718  1.00  0.00    -0.229 NA
HETATM    7  C6  UNL     1      23.525   2.106  52.454  1.00  0.00     0.117 A 
HETATM    8  C15 UNL     1      24.800   1.469  52.653  1.00  0.00     0.036 A 
HETATM    9  C16 UNL     1      26.147   1.974  52.481  1.00  0.00     0.057 A 
HETATM   10  C17 UNL     1      27.117   1.062  52.799  1.00  0.00     0.102 A 
ENDROOT
BRANCH   7  11
HETATM   11  N3  UNL     1      23.870   3.398  52.048  1.00  0.00    -0.276 NA
HETATM   12  H6  UNL     1      23.277   3.149  51.187  1.00  0.00     0.129 HD
BRANCH  11  13
HETATM   13  C7  UNL     1      23.994   4.613  51.292  1.00  0.00     0.098 C 
BRANCH  13  14
HETATM   14  C8  UNL     1      24.345   4.218  49.861  1.00  0.00     0.053 C 
BRANCH  14  15
HETATM   15  C9  UNL     1      25.561   4.814  49.307  1.00  0.00    -0.057 A 
HETATM   16  C10 UNL     1      25.420   6.101  48.822  1.00  0.00     0.007 A 
HETATM   17  C11 UNL     1      26.572   6.622  48.299  1.00  0.00     0.001 A 
HETATM   18  C12 UNL     1      27.804   5.993  48.220  1.00  0.00     0.000 A 
HETATM   19  C13 UNL     1      27.823   4.716  48.736  1.00  0.00     0.001 A 
HETATM   20  C14 UNL     1      26.722   4.036  49.311  1.00  0.00     0.007 A 
ENDBRANCH  14  15
ENDBRANCH  13  14
ENDBRANCH  11  13
ENDBRANCH   7  11
BRANCH  10  21
HETATM   21  O2  UNL     1      28.376   1.777  52.570  1.00  0.00    -0.353 OA
HETATM   22  C18 UNL     1      28.779   2.520  53.724  1.00  0.00     0.210 C 
ENDBRANCH  10  21
BRANCH   1  23
HETATM   23  O1  UNL     1      28.107  -0.697  53.411  1.00  0.00    -0.353 OA
HETATM   24  C1  UNL     1      29.310  -1.313  53.412  1.00  0.00     0.210 C 
ENDBRANCH   1  23
TORSDOF 6
ENDMDL
MODEL 2
REMARK VINA RESULT:      -7.7      2.511      3.927
REMARK  6 active torsions:
REMARK  status: ('A' for Active; 'I' for Inactive)
REMARK    1  A    between atoms: O1_2  and  C2_3 
REMARK    2  A    between atoms: C6_9  and  N3_10 
REMARK    3  A    between atoms: N3_10  and  C7_11 
REMARK    4  A    between atoms: C7_11  and  C8_12 
REMARK    5  A    between atoms: C8_12  and  C9_13 
REMARK    6  A    between atoms: C17_21  and  O2_22 
ROOT
HETATM    1  C2  UNL     1      24.049  -0.275  53.754  1.00  0.00     0.103 A 
HETATM    2  C3  UNL     1      25.455  -0.240  54.404  1.00  0.00     0.072 A 
HETATM    3  C4  UNL     1      26.064   0.589  53.605  1.00  0.00     0.074 A 
HETATM    4  N1  UNL     1      27.247   0.477  54.305  1.00  0.00    -0.241 NA
HETATM    5  C5  UNL     1      28.352   1.109  53.974  1.00  0.00     0.235 A 
HETATM    6  N2  UNL     1      28.263   1.912  52.875  1.00  0.00    -0.229 NA
HETATM    7  C6  UNL     1      27.176   2.090  52.135  1.00  0.00     0.117 A 
HETATM    8  C15 UNL     1      25.989   1.377  52.527  1.00  0.00     0.036 A 
HETATM    9  C16 UNL     1      24.669   1.337  51.930  1.00  0.00     0.057 A 
HETATM   10  C17 UNL     1      23.797   0.511  52.587  1.00  0.00     0.102 A 
ENDROOT
BRANCH   7  11
HETATM   11  N3  UNL     1      26.777   2.769  50.981  1.00  0.00    -0.276 NA
HETATM   12  H6  UNL     1      27.250   1.942  50.484  1.00  0.00     0.129 HD
BRANCH  11  13
HETATM   13  C7  UNL     1      26.563   3.138  49.609  1.00  0.00     0.098 C 
BRANCH  13  14
HETATM   14  C8  UNL     1      25.988   4.550  49.609  1.00  0.00     0.053 C 
BRANCH  14  15
HETATM   15  C9  UNL     1      26.725   5.548  48.832  1.00  0.00    -0.057 A 
HETATM   16  C10 UNL     1      28.053   5.247  48.592  1.00  0.00     0.007 A 
HETATM   17  C11 UNL     1      28.715   6.206  47.875  1.00  0.00     0.001 A 
HETATM   18  C12 UNL     1      28.187   7.394  47.399  1.00  0.00     0.000 A 
HETATM   19  C13 UNL     1      26.855   7.584  47.698  1.00  0.00     0.001 A 
HETATM   20  C14 UNL     1      26.033   6.691  48.426  1.00  0.00     0.007 A 
ENDBRANCH  14  15
ENDBRANCH  13  14
ENDBRANCH  11  13
ENDBRANCH   7  11
BRANCH  10  21
HETATM   21  O2  UNL     1      22.553   0.611  51.818  1.00  0.00    -0.353 OA
HETATM   22  C18 UNL     1      22.654   1.588  50.779  1.00  0.00     0.210 C 
ENDBRANCH  10  21
BRANCH   1  23
HETATM   23  O1  UNL     1      22.959  -0.850  53.963  1.00  0.00    -0.353 OA
HETATM   24  C1  UNL     1      21.797  -1.375  54.409  1.00  0.00     0.210 C 
ENDBRANCH   1  23
TORSDOF 6
ENDMDL
MODEL 3
REMARK VINA RESULT:      -7.4      3.583      6.368
REMARK  6 active torsions:
REMARK  status: ('A' for Active; 'I' for Inactive)
REMARK    1  A    between atoms: O1_2  and  C2_3 
REMARK    2  A    between atoms: C6_9  and  N3_10 
REMARK    3  A    between atoms: N3_10  and  C7_11 
REMARK    4  A    between atoms: C7_11  and  C8_12 
REMARK    5  A    between atoms: C8_12  and  C9_13 
REMARK    6  A    between atoms: C17_21  and  O2_22 
ROOT
HETATM    1  C2  UNL     1      20.502   0.926  52.662  1.00  0.00     0.103 A 
HETATM    2  C3  UNL     1      20.447   2.425  52.274  1.00  0.00     0.072 A 
HETATM    3  C4  UNL     1      21.703   2.749  52.402  1.00  0.00     0.074 A 
HETATM    4  N1  UNL     1      21.456   4.060  52.050  1.00  0.00    -0.241 NA
HETATM    5  C5  UNL     1      22.387   4.987  51.995  1.00  0.00     0.235 A 
HETATM    6  N2  UNL     1      23.649   4.572  52.305  1.00  0.00    -0.229 NA
HETATM    7  C6  UNL     1      23.992   3.338  52.653  1.00  0.00     0.117 A 
HETATM    8  C15 UNL     1      22.943   2.353  52.706  1.00  0.00     0.036 A 
HETATM    9  C16 UNL     1      22.981   0.950  53.065  1.00  0.00     0.057 A 
HETATM   10  C17 UNL     1      21.755   0.341  53.019  1.00  0.00     0.102 A 
ENDROOT
BRANCH   7  11
HETATM   11  N3  UNL     1      25.124   2.624  53.056  1.00  0.00    -0.276 NA
HETATM   12  H6  UNL     1      24.755   2.844  54.041  1.00  0.00     0.129 HD
BRANCH  11  13
HETATM   13  C7  UNL     1      26.135   1.990  53.855  1.00  0.00     0.098 C 
BRANCH  13  14
HETATM   14  C8  UNL     1      27.267   1.593  52.914  1.00  0.00     0.053 C 
BRANCH  14  15
HETATM   15  C9  UNL     1      27.650   0.180  52.926  1.00  0.00    -0.057 A 
HETATM   16  C10 UNL     1      26.685  -0.698  52.472  1.00  0.00     0.007 A 
HETATM   17  C11 UNL     1      27.071  -2.011  52.509  1.00  0.00     0.001 A 
HETATM   18  C12 UNL     1      28.291  -2.501  52.946  1.00  0.00     0.000 A 
HETATM   19  C13 UNL     1      29.173  -1.533  53.373  1.00  0.00     0.001 A 
HETATM   20  C14 UNL     1      28.927  -0.139  53.396  1.00  0.00     0.007 A 
ENDBRANCH  14  15
ENDBRANCH  13  14
ENDBRANCH  11  13
ENDBRANCH   7  11
BRANCH  10  21
HETATM   21  O2  UNL     1      22.022  -1.042  53.425  1.00  0.00    -0.353 OA
HETATM   22  C18 UNL     1      22.278  -1.139  54.829  1.00  0.00     0.210 C 
ENDBRANCH  10  21
BRANCH   1  23
HETATM   23  O1  UNL     1      19.692  -0.018  52.774  1.00  0.00    -0.353 OA
HETATM   24  C1  UNL     1      18.709  -0.900  53.060  1.00  0.00     0.210 C 
ENDBRANCH   1  23
TORSDOF 6
ENDMDL
MODEL 4
REMARK VINA RESULT:      -7.2      2.785      6.747
REMARK  6 active torsions:
REMARK  status: ('A' for Active; 'I' for Inactive)
REMARK    1  A    between atoms: O1_2  and  C2_3 
REMARK    2  A    between atoms: C6_9  and  N3_10 
REMARK    3  A    between atoms: N3_10  and  C7_11 
REMARK    4  A    between atoms: C7_11  and  C8_12 
REMARK    5  A    between atoms: C8_12  and  C9_13 
REMARK    6  A    between atoms: C17_21  and  O2_22 
ROOT
HETATM    1  C2  UNL     1      25.661   2.723  50.980  1.00  0.00     0.103 A 
HETATM    2  C3  UNL     1      26.787   1.929  51.689  1.00  0.00     0.072 A 
HETATM    3  C4  UNL     1      26.080   1.057  52.351  1.00  0.00     0.074 A 
HETATM    4  N1  UNL     1      27.207   0.487  52.906  1.00  0.00    -0.241 NA
HETATM    5  C5  UNL     1      27.172  -0.523  53.748  1.00  0.00     0.235 A 
HETATM    6  N2  UNL     1      25.928  -0.996  54.049  1.00  0.00    -0.229 NA
HETATM    7  C6  UNL     1      24.786  -0.520  53.570  1.00  0.00     0.117 A 
HETATM    8  C15 UNL     1      24.865   0.588  52.654  1.00  0.00     0.036 A 
HETATM    9  C16 UNL     1      23.822   1.337  51.983  1.00  0.00     0.057 A 
HETATM   10  C17 UNL     1      24.299   2.352  51.197  1.00  0.00     0.102 A 
ENDROOT
BRANCH   7  11
HETATM   11  N3  UNL     1      23.410  -0.732  53.700  1.00  0.00    -0.276 NA
HETATM   12  H6  UNL     1      23.725  -1.608  54.236  1.00  0.00     0.129 HD
BRANCH  11  13
HETATM   13  C7  UNL     1      22.133  -1.295  54.038  1.00  0.00     0.098 C 
BRANCH  13  14
HETATM   14  C8  UNL     1      21.133  -0.145  54.088  1.00  0.00     0.053 C 
BRANCH  14  15
HETATM   15  C9  UNL     1      20.045  -0.193  53.111  1.00  0.00    -0.057 A 
HETATM   16  C10 UNL     1      20.240   0.562  51.970  1.00  0.00     0.007 A 
HETATM   17  C11 UNL     1      19.198   0.504  51.085  1.00  0.00     0.001 A 
HETATM   18  C12 UNL     1      18.023  -0.213  51.237  1.00  0.00     0.000 A 
HETATM   19  C13 UNL     1      17.941  -0.927  52.412  1.00  0.00     0.001 A 
HETATM   20  C14 UNL     1      18.929  -0.974  53.425  1.00  0.00     0.007 A 
ENDBRANCH  14  15
ENDBRANCH  13  14
ENDBRANCH  11  13
ENDBRANCH   7  11
BRANCH  10  21
HETATM   21  O2  UNL     1      23.094   2.973  50.638  1.00  0.00    -0.353 OA
HETATM   22  C18 UNL     1      22.569   2.214  49.546  1.00  0.00     0.210 C 
ENDBRANCH  10  21
BRANCH   1  23
HETATM   23  O1  UNL     1      25.581   3.696  50.199  1.00  0.00    -0.353 OA
HETATM   24  C1  UNL     1      25.704   4.816  49.454  1.00  0.00     0.210 C 
ENDBRANCH   1  23
TORSDOF 6
ENDMDL
MODEL 5
REMARK VINA RESULT:      -7.1      2.542      4.121
REMARK  6 active torsions:
REMARK  status: ('A' for Active; 'I' for Inactive)
REMARK    1  A    between atoms: O1_2  and  C2_3 
REMARK    2  A    between atoms: C6_9  and  N3_10 
REMARK    3  A    between atoms: N3_10  and  C7_11 
REMARK    4  A    between atoms: C7_11  and  C8_12 
REMARK    5  A    between atoms: C8_12  and  C9_13 
REMARK    6  A    between atoms: C17_21  and  O2_22 
ROOT
HETATM    1  C2  UNL     1      24.131  -0.187  53.754  1.00  0.00     0.103 A 
HETATM    2  C3  UNL     1      25.567  -0.238  54.336  1.00  0.00     0.072 A 
HETATM    3  C4  UNL     1      26.160   0.643  53.581  1.00  0.00     0.074 A 
HETATM    4  N1  UNL     1      27.371   0.446  54.210  1.00  0.00    -0.241 NA
HETATM    5  C5  UNL     1      28.475   1.080  53.880  1.00  0.00     0.235 A 
HETATM    6  N2  UNL     1      28.356   1.975  52.858  1.00  0.00    -0.229 NA
HETATM    7  C6  UNL     1      27.240   2.239  52.189  1.00  0.00     0.117 A 
HETATM    8  C15 UNL     1      26.054   1.521  52.577  1.00  0.00     0.036 A 
HETATM    9  C16 UNL     1      24.707   1.561  52.044  1.00  0.00     0.057 A 
HETATM   10  C17 UNL     1      23.847   0.701  52.671  1.00  0.00     0.102 A 
ENDROOT
BRANCH   7  11
HETATM   11  N3  UNL     1      26.806   3.022  51.116  1.00  0.00    -0.276 NA
HETATM   12  H6  UNL     1      27.746   2.729  50.687  1.00  0.00     0.129 HD
BRANCH  11  13
HETATM   13  C7  UNL     1      26.736   3.709  49.857  1.00  0.00     0.098 C 
BRANCH  13  14
HETATM   14  C8  UNL     1      25.267   4.027  49.599  1.00  0.00     0.053 C 
BRANCH  14  15
HETATM   15  C9  UNL     1      24.817   5.362  49.995  1.00  0.00    -0.057 A 
HETATM   16  C10 UNL     1      25.747   6.372  49.833  1.00  0.00     0.007 A 
HETATM   17  C11 UNL     1      25.298   7.604  50.225  1.00  0.00     0.001 A 
HETATM   18  C12 UNL     1      24.050   7.901  50.746  1.00  0.00     0.000 A 
HETATM   19  C13 UNL     1      23.208   6.816  50.860  1.00  0.00     0.001 A 
HETATM   20  C14 UNL     1      23.520   5.483  50.500  1.00  0.00     0.007 A 
ENDBRANCH  14  15
ENDBRANCH  13  14
ENDBRANCH  11  13
ENDBRANCH   7  11
BRANCH  10  21
HETATM   21  O2  UNL     1      22.571   0.893  51.974  1.00  0.00    -0.353 OA
HETATM   22  C18 UNL     1      21.997   2.169  52.269  1.00  0.00     0.210 C 
ENDBRANCH  10  21
BRANCH   1  23
HETATM   23  O1  UNL     1      23.038  -0.754  53.967  1.00  0.00    -0.353 OA
HETATM   24  C1  UNL     1      21.985  -1.570  54.188  1.00  0.00     0.210 C 
ENDBRANCH   1  23
TORSDOF 6
ENDMDL
MODEL 6
REMARK VINA RESULT:      -7.1      1.198      1.680
REMARK  6 active torsions:
REMARK  status: ('A' for Active; 'I' for Inactive)
REMARK    1  A    between atoms: O1_2  and  C2_3 
REMARK    2  A    between atoms: C6_9  and  N3_10 
REMARK    3  A    between atoms: N3_10  and  C7_11 
REMARK    4  A    between atoms: C7_11  and  C8_12 
REMARK    5  A    between atoms: C8_12  and  C9_13 
REMARK    6  A    between atoms: C17_21  and  O2_22 
ROOT
HETATM    1  C2  UNL     1      26.134  -0.545  53.663  1.00  0.00     0.103 A 
HETATM    2  C3  UNL     1      24.794  -0.990  54.300  1.00  0.00     0.072 A 
HETATM    3  C4  UNL     1      23.968  -0.172  53.712  1.00  0.00     0.074 A 
HETATM    4  N1  UNL     1      22.887  -0.688  54.394  1.00  0.00    -0.241 NA
HETATM    5  C5  UNL     1      21.656  -0.248  54.248  1.00  0.00     0.235 A 
HETATM    6  N2  UNL     1      21.498   0.770  53.353  1.00  0.00    -0.229 NA
HETATM    7  C6  UNL     1      22.469   1.334  52.647  1.00  0.00     0.117 A 
HETATM    8  C15 UNL     1      23.803   0.828  52.839  1.00  0.00     0.036 A 
HETATM    9  C16 UNL     1      25.062   1.233  52.249  1.00  0.00     0.057 A 
HETATM   10  C17 UNL     1      26.136   0.517  52.708  1.00  0.00     0.102 A 
ENDROOT
BRANCH   7  11
HETATM   11  N3  UNL     1      22.648   2.371  51.727  1.00  0.00    -0.276 NA
HETATM   12  H6  UNL     1      21.631   2.143  51.465  1.00  0.00     0.129 HD
BRANCH  11  13
HETATM   13  C7  UNL     1      22.432   3.333  50.683  1.00  0.00     0.098 C 
BRANCH  13  14
HETATM   14  C8  UNL     1      23.361   2.963  49.532  1.00  0.00     0.053 C 
BRANCH  14  15
HETATM   15  C9  UNL     1      24.488   3.866  49.296  1.00  0.00    -0.057 A 
HETATM   16  C10 UNL     1      25.740   3.313  49.489  1.00  0.00     0.007 A 
HETATM   17  C11 UNL     1      26.770   4.188  49.273  1.00  0.00     0.001 A 
HETATM   18  C12 UNL     1      26.660   5.517  48.898  1.00  0.00     0.000 A 
HETATM   19  C13 UNL     1      25.365   5.957  48.736  1.00  0.00     0.001 A 
HETATM   20  C14 UNL     1      24.196   5.179  48.918  1.00  0.00     0.007 A 
ENDBRANCH  14  15
ENDBRANCH  13  14
ENDBRANCH  11  13
ENDBRANCH   7  11
BRANCH  10  21
HETATM   21  O2  UNL     1      27.284   1.094  52.002  1.00  0.00    -0.353 OA
HETATM   22  C18 UNL     1      27.747   2.289  52.637  1.00  0.00     0.210 C 
ENDBRANCH  10  21
BRANCH   1  23
HETATM   23  O1  UNL     1      27.338  -0.866  53.750  1.00  0.00    -0.353 OA
HETATM   24  C1  UNL     1      28.610  -1.303  53.622  1.00  0.00     0.210 C 
ENDBRANCH   1  23
TORSDOF 6
ENDMDL
MODEL 7
REMARK VINA RESULT:      -6.8      2.866      6.516
REMARK  6 active torsions:
REMARK  status: ('A' for Active; 'I' for Inactive)
REMARK    1  A    between atoms: O1_2  and  C2_3 
REMARK    2  A    between atoms: C6_9  and  N3_10 
REMARK    3  A    between atoms: N3_10  and  C7_11 
REMARK    4  A    between atoms: C7_11  and  C8_12 
REMARK    5  A    between atoms: C8_12  and  C9_13 
REMARK    6  A    between atoms: C17_21  and  O2_22 
ROOT
HETATM    1  C2  UNL     1      26.792   1.134  53.139  1.00  0.00     0.103 A 
HETATM    2  C3  UNL     1      27.009   2.190  52.026  1.00  0.00     0.072 A 
HETATM    3  C4  UNL     1      25.817   2.230  51.502  1.00  0.00     0.074 A 
HETATM    4  N1  UNL     1      26.203   3.164  50.563  1.00  0.00    -0.241 NA
HETATM    5  C5  UNL     1      25.396   3.653  49.648  1.00  0.00     0.235 A 
HETATM    6  N2  UNL     1      24.116   3.182  49.679  1.00  0.00    -0.229 NA
HETATM    7  C6  UNL     1      23.645   2.287  50.539  1.00  0.00     0.117 A 
HETATM    8  C15 UNL     1      24.561   1.772  51.523  1.00  0.00     0.036 A 
HETATM    9  C16 UNL     1      24.370   0.788  52.569  1.00  0.00     0.057 A 
HETATM   10  C17 UNL     1      25.502   0.540  53.298  1.00  0.00     0.102 A 
ENDROOT
BRANCH   7  11
HETATM   11  N3  UNL     1      22.462   1.591  50.805  1.00  0.00    -0.276 NA
HETATM   12  H6  UNL     1      22.315   1.690  49.745  1.00  0.00     0.129 HD
BRANCH  11  13
HETATM   13  C7  UNL     1      21.197   0.927  50.659  1.00  0.00     0.098 C 
BRANCH  13  14
HETATM   14  C8  UNL     1      20.759   0.486  52.052  1.00  0.00     0.053 C 
BRANCH  14  15
HETATM   15  C9  UNL     1      19.411  -0.075  52.157  1.00  0.00    -0.057 A 
HETATM   16  C10 UNL     1      18.568   0.211  51.099  1.00  0.00     0.007 A 
HETATM   17  C11 UNL     1      17.313  -0.317  51.236  1.00  0.00     0.001 A 
HETATM   18  C12 UNL     1      16.846  -1.074  52.298  1.00  0.00     0.000 A 
HETATM   19  C13 UNL     1      17.775  -1.294  53.291  1.00  0.00     0.001 A 
HETATM   20  C14 UNL     1      19.109  -0.821  53.299  1.00  0.00     0.007 A 
ENDBRANCH  14  15
ENDBRANCH  13  14
ENDBRANCH  11  13
ENDBRANCH   7  11
BRANCH  10  21
HETATM   21  O2  UNL     1      25.091  -0.476  54.271  1.00  0.00    -0.353 OA
HETATM   22  C18 UNL     1      23.695  -0.769  54.169  1.00  0.00     0.210 C 
ENDBRANCH  10  21
BRANCH   1  23
HETATM   23  O1  UNL     1      27.481   0.586  54.025  1.00  0.00    -0.353 OA
HETATM   24  C1  UNL     1      28.413   0.098  54.873  1.00  0.00     0.210 C 
ENDBRANCH   1  23
TORSDOF 6
ENDMDL
MODEL 8
REMARK VINA RESULT:      -6.7      3.560      7.087
REMARK  6 active torsions:
REMARK  status: ('A' for Active; 'I' for Inactive)
REMARK    1  A    between atoms: O1_2  and  C2_3 
REMARK    2  A    between atoms: C6_9  and  N3_10 
REMARK    3  A    between atoms: N3_10  and  C7_11 
REMARK    4  A    between atoms: C7_11  and  C8_12 
REMARK    5  A    between atoms: C8_12  and  C9_13 
REMARK    6  A    between atoms: C17_21  and  O2_22 
ROOT
HETATM    1  C2  UNL     1      19.793   2.367  51.823  1.00  0.00     0.103 A 
HETATM    2  C3  UNL     1      20.779   3.496  51.431  1.00  0.00     0.072 A 
HETATM    3  C4  UNL     1      21.908   2.967  51.809  1.00  0.00     0.074 A 
HETATM    4  N1  UNL     1      22.622   4.079  51.415  1.00  0.00    -0.241 NA
HETATM    5  C5  UNL     1      23.926   4.192  51.548  1.00  0.00     0.235 A 
HETATM    6  N2  UNL     1      24.555   3.118  52.106  1.00  0.00    -0.229 NA
HETATM    7  C6  UNL     1      23.962   2.004  52.517  1.00  0.00     0.117 A 
HETATM    8  C15 UNL     1      22.534   1.921  52.358  1.00  0.00     0.036 A 
HETATM    9  C16 UNL     1      21.602   0.871  52.718  1.00  0.00     0.057 A 
HETATM   10  C17 UNL     1      20.299   1.175  52.426  1.00  0.00     0.102 A 
ENDROOT
BRANCH   7  11
HETATM   11  N3  UNL     1      24.288   0.796  53.141  1.00  0.00    -0.276 NA
HETATM   12  H6  UNL     1      25.261   1.245  53.218  1.00  0.00     0.129 HD
BRANCH  11  13
HETATM   13  C7  UNL     1      25.004  -0.259  53.801  1.00  0.00     0.098 C 
BRANCH  13  14
HETATM   14  C8  UNL     1      25.943  -0.877  52.770  1.00  0.00     0.053 C 
BRANCH  14  15
HETATM   15  C9  UNL     1      27.372  -0.806  53.075  1.00  0.00    -0.057 A 
HETATM   16  C10 UNL     1      28.052  -2.008  53.006  1.00  0.00     0.007 A 
HETATM   17  C11 UNL     1      29.382  -1.907  53.310  1.00  0.00     0.001 A 
HETATM   18  C12 UNL     1      30.065  -0.755  53.664  1.00  0.00     0.000 A 
HETATM   19  C13 UNL     1      29.285   0.380  53.698  1.00  0.00     0.001 A 
HETATM   20  C14 UNL     1      27.900   0.444  53.411  1.00  0.00     0.007 A 
ENDBRANCH  14  15
ENDBRANCH  13  14
ENDBRANCH  11  13
ENDBRANCH   7  11
BRANCH  10  21
HETATM   21  O2  UNL     1      19.544   0.002  52.878  1.00  0.00    -0.353 OA
HETATM   22  C18 UNL     1      20.328  -0.830  53.737  1.00  0.00     0.210 C 
ENDBRANCH  10  21
BRANCH   1  23
HETATM   23  O1  UNL     1      18.560   2.171  51.770  1.00  0.00    -0.353 OA
HETATM   24  C1  UNL     1      17.264   1.925  51.477  1.00  0.00     0.210 C 
ENDBRANCH   1  23
TORSDOF 6
ENDMDL
MODEL 9
REMARK VINA RESULT:      -6.6      2.699      5.116
REMARK  6 active torsions:
REMARK  status: ('A' for Active; 'I' for Inactive)
REMARK    1  A    between atoms: O1_2  and  C2_3 
REMARK    2  A    between atoms: C6_9  and  N3_10 
REMARK    3  A    between atoms: N3_10  and  C7_11 
REMARK    4  A    between atoms: C7_11  and  C8_12 
REMARK    5  A    between atoms: C8_12  and  C9_13 
REMARK    6  A    between atoms: C17_21  and  O2_22 
ROOT
HETATM    1  C2  UNL     1      26.155   2.800  50.506  1.00  0.00     0.103 A 
HETATM    2  C3  UNL     1      26.731   1.607  51.309  1.00  0.00     0.072 A 
HETATM    3  C4  UNL     1      25.663   1.210  51.941  1.00  0.00     0.074 A 
HETATM    4  N1  UNL     1      26.354   0.205  52.585  1.00  0.00    -0.241 NA
HETATM    5  C5  UNL     1      25.802  -0.621  53.447  1.00  0.00     0.235 A 
HETATM    6  N2  UNL     1      24.470  -0.433  53.673  1.00  0.00    -0.229 NA
HETATM    7  C6  UNL     1      23.716   0.501  53.106  1.00  0.00     0.117 A 
HETATM    8  C15 UNL     1      24.358   1.388  52.172  1.00  0.00     0.036 A 
HETATM    9  C16 UNL     1      23.831   2.505  51.414  1.00  0.00     0.057 A 
HETATM   10  C17 UNL     1      24.771   3.130  50.638  1.00  0.00     0.102 A 
ENDROOT
BRANCH   7  11
HETATM   11  N3  UNL     1      22.401   0.973  53.147  1.00  0.00    -0.276 NA
HETATM   12  H6  UNL     1      22.162  -0.050  52.920  1.00  0.00     0.129 HD
BRANCH  11  13
HETATM   13  C7  UNL     1      20.968   1.052  53.093  1.00  0.00     0.098 C 
BRANCH  13  14
HETATM   14  C8  UNL     1      20.533   0.421  51.774  1.00  0.00     0.053 C 
BRANCH  14  15
HETATM   15  C9  UNL     1      20.723   1.238  50.575  1.00  0.00    -0.057 A 
HETATM   16  C10 UNL     1      20.169   2.503  50.627  1.00  0.00     0.007 A 
HETATM   17  C11 UNL     1      20.353   3.234  49.485  1.00  0.00     0.001 A 
HETATM   18  C12 UNL     1      21.016   2.824  48.339  1.00  0.00     0.000 A 
HETATM   19  C13 UNL     1      21.526   1.546  48.404  1.00  0.00     0.001 A 
HETATM   20  C14 UNL     1      21.423   0.667  49.508  1.00  0.00     0.007 A 
ENDBRANCH  14  15
ENDBRANCH  13  14
ENDBRANCH  11  13
ENDBRANCH   7  11
BRANCH  10  21
HETATM   21  O2  UNL     1      24.036   4.217  49.984  1.00  0.00    -0.353 OA
HETATM   22  C18 UNL     1      23.356   5.040  50.934  1.00  0.00     0.210 C 
ENDBRANCH  10  21
BRANCH   1  23
HETATM   23  O1  UNL     1      26.586   3.651  49.699  1.00  0.00    -0.353 OA
HETATM   24  C1  UNL     1      27.105   4.700  49.024  1.00  0.00     0.210 C 
ENDBRANCH   1  23
TORSDOF 6
ENDMDL
