MODEL 1
REMARK VINA RESULT:      -8.3      0.000      0.000
REMARK  5 active torsions:
REMARK  status: ('A' for Active; 'I' for Inactive)
REMARK    1  A    between atoms: O1_1  and  C1_2 
REMARK    2  A    between atoms: C6_8  and  N1_9 
REMARK    3  A    between atoms: N1_9  and  C7_10 
REMARK    4  A    between atoms: C10_15  and  N4_16 
REMARK    5  A    between atoms: C11_17  and  C12_18 
ROOT
HETATM    1  C7  UNL     1      26.782   0.446  53.491  1.00  0.00     0.099 A 
HETATM    2  C8  UNL     1      27.665   0.262  54.536  1.00  0.00     0.151 A 
HETATM    3  N2  UNL     1      28.703   1.126  54.663  1.00  0.00    -0.252 NA
HETATM    4  C9  UNL     1      28.877   2.143  53.799  1.00  0.00     0.235 A 
HETATM    5  N3  UNL     1      28.013   2.318  52.782  1.00  0.00    -0.220 NA
HETATM    6  C10 UNL     1      26.952   1.487  52.598  1.00  0.00     0.178 A 
ENDROOT
BRANCH   1   7
HETATM    7  N1  UNL     1      25.726  -0.508  53.438  1.00  0.00    -0.350 N 
HETATM    8  H5  UNL     1      25.832  -1.480  53.123  1.00  0.00     0.166 HD
BRANCH   7   9
HETATM    9  C6  UNL     1      24.335  -0.506  53.746  1.00  0.00     0.067 A 
HETATM   10  C1  UNL     1      24.101  -1.112  54.984  1.00  0.00     0.092 A 
HETATM   11  C2  UNL     1      22.815  -1.222  55.490  1.00  0.00     0.040 A 
HETATM   12  C3  UNL     1      21.760  -0.722  54.747  1.00  0.00     0.022 A 
HETATM   13  C4  UNL     1      21.999  -0.129  53.534  1.00  0.00     0.013 A 
HETATM   14 BR1  UNL     1      20.590   0.584  52.456  1.00  0.00    -0.051 Br
HETATM   15  C5  UNL     1      23.271  -0.012  53.019  1.00  0.00     0.051 A 
BRANCH  10  16
HETATM   16  O1  UNL     1      25.076  -1.653  55.823  1.00  0.00    -0.358 OA
HETATM   17  H1  UNL     1      24.849  -2.569  56.204  1.00  0.00     0.217 HD
ENDBRANCH  10  16
ENDBRANCH   7   9
ENDBRANCH   1   7
BRANCH   6  18
HETATM   18  N4  UNL     1      26.003   1.618  51.543  1.00  0.00    -0.239 NA
HETATM   19  C11 UNL     1      25.369   2.757  51.560  1.00  0.00     0.130 C 
BRANCH  19  20
HETATM   20  C12 UNL     1      24.388   2.928  50.493  1.00  0.00    -0.019 A 
HETATM   21  C13 UNL     1      24.463   3.966  49.586  1.00  0.00     0.013 A 
HETATM   22  C14 UNL     1      23.535   4.137  48.568  1.00  0.00     0.001 A 
HETATM   23  C15 UNL     1      22.482   3.239  48.439  1.00  0.00     0.000 A 
HETATM   24  C16 UNL     1      22.379   2.188  49.332  1.00  0.00     0.001 A 
HETATM   25  C17 UNL     1      23.320   2.071  50.312  1.00  0.00     0.013 A 
ENDBRANCH  19  20
ENDBRANCH   6  18
TORSDOF 5
ENDMDL
MODEL 2
REMARK VINA RESULT:      -8.2      2.075      4.812
REMARK  5 active torsions:
REMARK  status: ('A' for Active; 'I' for Inactive)
REMARK    1  A    between atoms: O1_1  and  C1_2 
REMARK    2  A    between atoms: C6_8  and  N1_9 
REMARK    3  A    between atoms: N1_9  and  C7_10 
REMARK    4  A    between atoms: C10_15  and  N4_16 
REMARK    5  A    between atoms: C11_17  and  C12_18 
ROOT
HETATM    1  C7  UNL     1      27.131   1.590  53.616  1.00  0.00     0.099 A 
HETATM    2  C8  UNL     1      28.488   1.770  53.428  1.00  0.00     0.151 A 
HETATM    3  N2  UNL     1      29.319   0.731  53.693  1.00  0.00    -0.252 NA
HETATM    4  C9  UNL     1      28.845  -0.451  54.126  1.00  0.00     0.235 A 
HETATM    5  N3  UNL     1      27.522  -0.621  54.307  1.00  0.00    -0.220 NA
HETATM    6  C10 UNL     1      26.635   0.380  54.060  1.00  0.00     0.178 A 
ENDROOT
BRANCH   1   7
HETATM    7  N1  UNL     1      26.339   2.734  53.313  1.00  0.00    -0.350 N 
HETATM    8  H5  UNL     1      26.446   3.653  53.758  1.00  0.00     0.166 HD
BRANCH   7   9
HETATM    9  C6  UNL     1      25.263   3.021  52.424  1.00  0.00     0.067 A 
HETATM   10  C1  UNL     1      25.735   3.218  51.123  1.00  0.00     0.092 A 
HETATM   11  C2  UNL     1      24.861   3.511  50.086  1.00  0.00     0.040 A 
HETATM   12  C3  UNL     1      23.508   3.607  50.361  1.00  0.00     0.022 A 
HETATM   13  C4  UNL     1      23.055   3.412  51.640  1.00  0.00     0.013 A 
HETATM   14 BR1  UNL     1      21.200   3.528  52.090  1.00  0.00    -0.051 Br
HETATM   15  C5  UNL     1      23.910   3.120  52.679  1.00  0.00     0.051 A 
BRANCH  10  16
HETATM   16  O1  UNL     1      27.069   3.149  50.721  1.00  0.00    -0.358 OA
HETATM   17  H1  UNL     1      27.217   3.242  49.718  1.00  0.00     0.217 HD
ENDBRANCH  10  16
ENDBRANCH   7   9
ENDBRANCH   1   7
BRANCH   6  18
HETATM   18  N4  UNL     1      25.225   0.264  54.230  1.00  0.00    -0.239 NA
HETATM   19  C11 UNL     1      24.658  -0.491  53.331  1.00  0.00     0.130 C 
BRANCH  19  20
HETATM   20  C12 UNL     1      23.213  -0.634  53.474  1.00  0.00    -0.019 A 
HETATM   21  C13 UNL     1      22.642  -1.285  54.549  1.00  0.00     0.013 A 
HETATM   22  C14 UNL     1      21.269  -1.426  54.694  1.00  0.00     0.001 A 
HETATM   23  C15 UNL     1      20.418  -0.898  53.731  1.00  0.00     0.000 A 
HETATM   24  C16 UNL     1      20.958  -0.240  52.641  1.00  0.00     0.001 A 
HETATM   25  C17 UNL     1      22.315  -0.132  52.552  1.00  0.00     0.013 A 
ENDBRANCH  19  20
ENDBRANCH   6  18
TORSDOF 5
ENDMDL
MODEL 3
REMARK VINA RESULT:      -7.9      3.229      6.916
REMARK  5 active torsions:
REMARK  status: ('A' for Active; 'I' for Inactive)
REMARK    1  A    between atoms: O1_1  and  C1_2 
REMARK    2  A    between atoms: C6_8  and  N1_9 
REMARK    3  A    between atoms: N1_9  and  C7_10 
REMARK    4  A    between atoms: C10_15  and  N4_16 
REMARK    5  A    between atoms: C11_17  and  C12_18 
ROOT
HETATM    1  C7  UNL     1      23.724   2.516  52.193  1.00  0.00     0.099 A 
HETATM    2  C8  UNL     1      22.426   2.928  51.960  1.00  0.00     0.151 A 
HETATM    3  N2  UNL     1      21.425   2.029  52.126  1.00  0.00    -0.252 NA
HETATM    4  C9  UNL     1      21.675   0.765  52.510  1.00  0.00     0.235 A 
HETATM    5  N3  UNL     1      22.942   0.368  52.736  1.00  0.00    -0.220 NA
HETATM    6  C10 UNL     1      23.992   1.220  52.588  1.00  0.00     0.178 A 
ENDROOT
BRANCH   1   7
HETATM    7  N1  UNL     1      24.707   3.527  51.993  1.00  0.00    -0.350 N 
HETATM    8  H5  UNL     1      25.268   3.952  52.741  1.00  0.00     0.166 HD
BRANCH   7   9
HETATM    9  C6  UNL     1      25.224   4.238  50.872  1.00  0.00     0.067 A 
HETATM   10  C1  UNL     1      26.351   3.592  50.354  1.00  0.00     0.092 A 
HETATM   11  C2  UNL     1      27.022   4.107  49.254  1.00  0.00     0.040 A 
HETATM   12  C3  UNL     1      26.558   5.275  48.676  1.00  0.00     0.022 A 
HETATM   13  C4  UNL     1      25.452   5.901  49.191  1.00  0.00     0.013 A 
HETATM   14 BR1  UNL     1      24.755   7.516  48.440  1.00  0.00    -0.051 Br
HETATM   15  C5  UNL     1      24.775   5.401  50.281  1.00  0.00     0.051 A 
BRANCH  10  16
HETATM   16  O1  UNL     1      26.914   2.415  50.847  1.00  0.00    -0.358 OA
HETATM   17  H1  UNL     1      27.771   2.125  50.380  1.00  0.00     0.217 HD
ENDBRANCH  10  16
ENDBRANCH   7   9
ENDBRANCH   1   7
BRANCH   6  18
HETATM   18  N4  UNL     1      25.353   0.862  52.812  1.00  0.00    -0.239 NA
HETATM   19  C11 UNL     1      25.560  -0.425  52.781  1.00  0.00     0.130 C 
BRANCH  19  20
HETATM   20  C12 UNL     1      26.943  -0.829  53.006  1.00  0.00    -0.019 A 
HETATM   21  C13 UNL     1      27.895   0.049  53.485  1.00  0.00     0.013 A 
HETATM   22  C14 UNL     1      29.214  -0.326  53.703  1.00  0.00     0.001 A 
HETATM   23  C15 UNL     1      29.612  -1.630  53.436  1.00  0.00     0.000 A 
HETATM   24  C16 UNL     1      28.681  -2.534  52.955  1.00  0.00     0.001 A 
HETATM   25  C17 UNL     1      27.400  -2.108  52.760  1.00  0.00     0.013 A 
ENDBRANCH  19  20
ENDBRANCH   6  18
TORSDOF 5
ENDMDL
MODEL 4
REMARK VINA RESULT:      -7.8      2.501      6.330
REMARK  5 active torsions:
REMARK  status: ('A' for Active; 'I' for Inactive)
REMARK    1  A    between atoms: O1_1  and  C1_2 
REMARK    2  A    between atoms: C6_8  and  N1_9 
REMARK    3  A    between atoms: N1_9  and  C7_10 
REMARK    4  A    between atoms: C10_15  and  N4_16 
REMARK    5  A    between atoms: C11_17  and  C12_18 
ROOT
HETATM    1  C7  UNL     1      22.493   0.611  53.365  1.00  0.00     0.099 A 
HETATM    2  C8  UNL     1      21.136   0.499  53.130  1.00  0.00     0.151 A 
HETATM    3  N2  UNL     1      20.494  -0.609  53.578  1.00  0.00    -0.252 NA
HETATM    4  C9  UNL     1      21.150  -1.580  54.239  1.00  0.00     0.235 A 
HETATM    5  N3  UNL     1      22.473  -1.464  54.466  1.00  0.00    -0.220 NA
HETATM    6  C10 UNL     1      23.176  -0.380  54.043  1.00  0.00     0.178 A 
ENDROOT
BRANCH   1   7
HETATM    7  N1  UNL     1      23.080   1.806  52.858  1.00  0.00    -0.350 N 
HETATM    8  H5  UNL     1      23.369   2.604  53.435  1.00  0.00     0.166 HD
BRANCH   7   9
HETATM    9  C6  UNL     1      23.443   2.295  51.570  1.00  0.00     0.067 A 
HETATM   10  C1  UNL     1      24.702   2.902  51.609  1.00  0.00     0.092 A 
HETATM   11  C2  UNL     1      25.262   3.452  50.465  1.00  0.00     0.040 A 
HETATM   12  C3  UNL     1      24.551   3.391  49.279  1.00  0.00     0.022 A 
HETATM   13  C4  UNL     1      23.317   2.793  49.251  1.00  0.00     0.013 A 
HETATM   14 BR1  UNL     1      22.282   2.673  47.648  1.00  0.00    -0.051 Br
HETATM   15  C5  UNL     1      22.749   2.243  50.379  1.00  0.00     0.051 A 
BRANCH  10  16
HETATM   16  O1  UNL     1      25.513   3.026  52.738  1.00  0.00    -0.358 OA
HETATM   17  H1  UNL     1      25.945   3.940  52.853  1.00  0.00     0.217 HD
ENDBRANCH  10  16
ENDBRANCH   7   9
ENDBRANCH   1   7
BRANCH   6  18
HETATM   18  N4  UNL     1      24.574  -0.198  54.252  1.00  0.00    -0.239 NA
HETATM   19  C11 UNL     1      25.312  -0.859  53.404  1.00  0.00     0.130 C 
BRANCH  19  20
HETATM   20  C12 UNL     1      26.750  -0.698  53.587  1.00  0.00    -0.019 A 
HETATM   21  C13 UNL     1      27.282   0.317  54.357  1.00  0.00     0.013 A 
HETATM   22  C14 UNL     1      28.649   0.479  54.539  1.00  0.00     0.001 A 
HETATM   23  C15 UNL     1      29.532  -0.403  53.930  1.00  0.00     0.000 A 
HETATM   24  C16 UNL     1      29.031  -1.431  53.151  1.00  0.00     0.001 A 
HETATM   25  C17 UNL     1      27.678  -1.540  53.010  1.00  0.00     0.013 A 
ENDBRANCH  19  20
ENDBRANCH   6  18
TORSDOF 5
ENDMDL
MODEL 5
REMARK VINA RESULT:      -7.7      2.299      5.094
REMARK  5 active torsions:
REMARK  status: ('A' for Active; 'I' for Inactive)
REMARK    1  A    between atoms: O1_1  and  C1_2 
REMARK    2  A    between atoms: C6_8  and  N1_9 
REMARK    3  A    between atoms: N1_9  and  C7_10 
REMARK    4  A    between atoms: C10_15  and  N4_16 
REMARK    5  A    between atoms: C11_17  and  C12_18 
ROOT
HETATM    1  C7  UNL     1      22.714   2.629  51.904  1.00  0.00     0.099 A 
HETATM    2  C8  UNL     1      21.654   3.297  51.323  1.00  0.00     0.151 A 
HETATM    3  N2  UNL     1      21.709   4.650  51.245  1.00  0.00    -0.252 NA
HETATM    4  C9  UNL     1      22.765   5.336  51.718  1.00  0.00     0.235 A 
HETATM    5  N3  UNL     1      23.796   4.680  52.283  1.00  0.00    -0.220 NA
HETATM    6  C10 UNL     1      23.804   3.324  52.392  1.00  0.00     0.178 A 
ENDROOT
BRANCH   1   7
HETATM    7  N1  UNL     1      22.568   1.213  51.941  1.00  0.00    -0.350 N 
HETATM    8  H5  UNL     1      23.095   0.556  51.354  1.00  0.00     0.166 HD
BRANCH   7   9
HETATM    9  C6  UNL     1      21.772   0.290  52.679  1.00  0.00     0.067 A 
HETATM   10  C1  UNL     1      22.547  -0.385  53.627  1.00  0.00     0.092 A 
HETATM   11  C2  UNL     1      21.979  -1.335  54.463  1.00  0.00     0.040 A 
HETATM   12  C3  UNL     1      20.628  -1.607  54.344  1.00  0.00     0.022 A 
HETATM   13  C4  UNL     1      19.876  -0.939  53.412  1.00  0.00     0.013 A 
HETATM   14 BR1  UNL     1      18.004  -1.262  53.196  1.00  0.00    -0.051 Br
HETATM   15  C5  UNL     1      20.425   0.007  52.576  1.00  0.00     0.051 A 
BRANCH  10  16
HETATM   16  O1  UNL     1      23.914  -0.202  53.842  1.00  0.00    -0.358 OA
HETATM   17  H1  UNL     1      24.158   0.125  54.774  1.00  0.00     0.217 HD
ENDBRANCH  10  16
ENDBRANCH   7   9
ENDBRANCH   1   7
BRANCH   6  18
HETATM   18  N4  UNL     1      24.863   2.572  52.978  1.00  0.00    -0.239 NA
HETATM   19  C11 UNL     1      25.855   2.355  52.160  1.00  0.00     0.130 C 
BRANCH  19  20
HETATM   20  C12 UNL     1      26.958   1.587  52.726  1.00  0.00    -0.019 A 
HETATM   21  C13 UNL     1      27.068   0.222  52.553  1.00  0.00     0.013 A 
HETATM   22  C14 UNL     1      28.115  -0.518  53.087  1.00  0.00     0.001 A 
HETATM   23  C15 UNL     1      29.100   0.122  53.828  1.00  0.00     0.000 A 
HETATM   24  C16 UNL     1      29.019   1.489  54.021  1.00  0.00     0.001 A 
HETATM   25  C17 UNL     1      27.968   2.163  53.472  1.00  0.00     0.013 A 
ENDBRANCH  19  20
ENDBRANCH   6  18
TORSDOF 5
ENDMDL
MODEL 6
REMARK VINA RESULT:      -7.7      3.942      5.874
REMARK  5 active torsions:
REMARK  status: ('A' for Active; 'I' for Inactive)
REMARK    1  A    between atoms: O1_1  and  C1_2 
REMARK    2  A    between atoms: C6_8  and  N1_9 
REMARK    3  A    between atoms: N1_9  and  C7_10 
REMARK    4  A    between atoms: C10_15  and  N4_16 
REMARK    5  A    between atoms: C11_17  and  C12_18 
ROOT
HETATM    1  C7  UNL     1      23.741   4.912  51.533  1.00  0.00     0.099 A 
HETATM    2  C8  UNL     1      22.448   4.758  51.993  1.00  0.00     0.151 A 
HETATM    3  N2  UNL     1      21.468   5.504  51.424  1.00  0.00    -0.252 NA
HETATM    4  C9  UNL     1      21.737   6.374  50.434  1.00  0.00     0.235 A 
HETATM    5  N3  UNL     1      22.999   6.520  49.989  1.00  0.00    -0.220 NA
HETATM    6  C10 UNL     1      24.027   5.802  50.517  1.00  0.00     0.178 A 
ENDROOT
BRANCH   1   7
HETATM    7  N1  UNL     1      24.700   4.088  52.190  1.00  0.00    -0.350 N 
HETATM    8  H5  UNL     1      25.523   4.439  52.694  1.00  0.00     0.166 HD
BRANCH   7   9
HETATM    9  C6  UNL     1      24.880   2.688  52.381  1.00  0.00     0.067 A 
HETATM   10  C1  UNL     1      26.123   2.277  51.891  1.00  0.00     0.092 A 
HETATM   11  C2  UNL     1      26.515   0.949  51.971  1.00  0.00     0.040 A 
HETATM   12  C3  UNL     1      25.653   0.032  52.545  1.00  0.00     0.022 A 
HETATM   13  C4  UNL     1      24.436   0.445  53.024  1.00  0.00     0.013 A 
HETATM   14 BR1  UNL     1      23.197  -0.768  53.831  1.00  0.00    -0.051 Br
HETATM   15  C5  UNL     1      24.033   1.760  52.952  1.00  0.00     0.051 A 
BRANCH  10  16
HETATM   16  O1  UNL     1      27.076   3.102  51.291  1.00  0.00    -0.358 OA
HETATM   17  H1  UNL     1      27.711   2.625  50.655  1.00  0.00     0.217 HD
ENDBRANCH  10  16
ENDBRANCH   7   9
ENDBRANCH   1   7
BRANCH   6  18
HETATM   18  N4  UNL     1      25.383   5.910  50.091  1.00  0.00    -0.239 NA
HETATM   19  C11 UNL     1      25.504   6.269  48.843  1.00  0.00     0.130 C 
BRANCH  19  20
HETATM   20  C12 UNL     1      26.879   6.390  48.371  1.00  0.00    -0.019 A 
HETATM   21  C13 UNL     1      27.325   7.503  47.687  1.00  0.00     0.013 A 
HETATM   22  C14 UNL     1      28.631   7.627  47.234  1.00  0.00     0.001 A 
HETATM   23  C15 UNL     1      29.540   6.604  47.467  1.00  0.00     0.000 A 
HETATM   24  C16 UNL     1      29.125   5.475  48.150  1.00  0.00     0.001 A 
HETATM   25  C17 UNL     1      27.829   5.408  48.571  1.00  0.00     0.013 A 
ENDBRANCH  19  20
ENDBRANCH   6  18
TORSDOF 5
ENDMDL
MODEL 7
REMARK VINA RESULT:      -7.6      8.496     10.926
REMARK  5 active torsions:
REMARK  status: ('A' for Active; 'I' for Inactive)
REMARK    1  A    between atoms: O1_1  and  C1_2 
REMARK    2  A    between atoms: C6_8  and  N1_9 
REMARK    3  A    between atoms: N1_9  and  C7_10 
REMARK    4  A    between atoms: C10_15  and  N4_16 
REMARK    5  A    between atoms: C11_17  and  C12_18 
ROOT
HETATM    1  C7  UNL     1      33.465   5.641  48.429  1.00  0.00     0.099 A 
HETATM    2  C8  UNL     1      34.735   5.201  48.110  1.00  0.00     0.151 A 
HETATM    3  N2  UNL     1      34.895   3.905  47.744  1.00  0.00    -0.252 NA
HETATM    4  C9  UNL     1      33.851   3.060  47.686  1.00  0.00     0.235 A 
HETATM    5  N3  UNL     1      32.614   3.494  47.997  1.00  0.00    -0.220 NA
HETATM    6  C10 UNL     1      32.385   4.781  48.372  1.00  0.00     0.178 A 
ENDROOT
BRANCH   1   7
HETATM    7  N1  UNL     1      33.395   7.014  48.801  1.00  0.00    -0.350 N 
HETATM    8  H5  UNL     1      33.767   7.401  49.677  1.00  0.00     0.166 HD
BRANCH   7   9
HETATM    9  C6  UNL     1      32.870   8.203  48.216  1.00  0.00     0.067 A 
HETATM   10  C1  UNL     1      31.750   8.649  48.923  1.00  0.00     0.092 A 
HETATM   11  C2  UNL     1      31.073   9.795  48.531  1.00  0.00     0.040 A 
HETATM   12  C3  UNL     1      31.525  10.493  47.426  1.00  0.00     0.022 A 
HETATM   13  C4  UNL     1      32.625  10.047  46.739  1.00  0.00     0.013 A 
HETATM   14 BR1  UNL     1      33.305  10.962  45.204  1.00  0.00    -0.051 Br
HETATM   15  C5  UNL     1      33.308   8.912  47.116  1.00  0.00     0.051 A 
BRANCH  10  16
HETATM   16  O1  UNL     1      31.198   8.036  50.048  1.00  0.00    -0.358 OA
HETATM   17  H1  UNL     1      31.085   8.648  50.854  1.00  0.00     0.217 HD
ENDBRANCH  10  16
ENDBRANCH   7   9
ENDBRANCH   1   7
BRANCH   6  18
HETATM   18  N4  UNL     1      31.104   5.302  48.712  1.00  0.00    -0.239 NA
HETATM   19  C11 UNL     1      30.217   5.148  47.768  1.00  0.00     0.130 C 
BRANCH  19  20
HETATM   20  C12 UNL     1      28.892   5.669  48.081  1.00  0.00    -0.019 A 
HETATM   21  C13 UNL     1      27.884   4.865  48.573  1.00  0.00     0.013 A 
HETATM   22  C14 UNL     1      26.619   5.351  48.875  1.00  0.00     0.001 A 
HETATM   23  C15 UNL     1      26.336   6.697  48.681  1.00  0.00     0.000 A 
HETATM   24  C16 UNL     1      27.325   7.531  48.189  1.00  0.00     0.001 A 
HETATM   25  C17 UNL     1      28.548   6.996  47.911  1.00  0.00     0.013 A 
ENDBRANCH  19  20
ENDBRANCH   6  18
TORSDOF 5
ENDMDL
MODEL 8
REMARK VINA RESULT:      -7.3      2.583      5.063
REMARK  5 active torsions:
REMARK  status: ('A' for Active; 'I' for Inactive)
REMARK    1  A    between atoms: O1_1  and  C1_2 
REMARK    2  A    between atoms: C6_8  and  N1_9 
REMARK    3  A    between atoms: N1_9  and  C7_10 
REMARK    4  A    between atoms: C10_15  and  N4_16 
REMARK    5  A    between atoms: C11_17  and  C12_18 
ROOT
HETATM    1  C7  UNL     1      25.373   1.926  53.413  1.00  0.00     0.099 A 
HETATM    2  C8  UNL     1      26.607   2.107  54.005  1.00  0.00     0.151 A 
HETATM    3  N2  UNL     1      27.208   1.037  54.582  1.00  0.00    -0.252 NA
HETATM    4  C9  UNL     1      26.628  -0.177  54.582  1.00  0.00     0.235 A 
HETATM    5  N3  UNL     1      25.425  -0.348  54.002  1.00  0.00    -0.220 NA
HETATM    6  C10 UNL     1      24.768   0.684  53.406  1.00  0.00     0.178 A 
ENDROOT
BRANCH   1   7
HETATM    7  N1  UNL     1      24.820   3.104  52.834  1.00  0.00    -0.350 N 
HETATM    8  H5  UNL     1      24.722   4.003  53.321  1.00  0.00     0.166 HD
BRANCH   7   9
HETATM    9  C6  UNL     1      24.272   3.456  51.566  1.00  0.00     0.067 A 
HETATM   10  C1  UNL     1      25.289   3.694  50.637  1.00  0.00     0.092 A 
HETATM   11  C2  UNL     1      24.988   4.052  49.331  1.00  0.00     0.040 A 
HETATM   12  C3  UNL     1      23.661   4.171  48.960  1.00  0.00     0.022 A 
HETATM   13  C4  UNL     1      22.671   3.935  49.879  1.00  0.00     0.013 A 
HETATM   14 BR1  UNL     1      20.816   4.080  49.435  1.00  0.00    -0.051 Br
HETATM   15  C5  UNL     1      22.953   3.578  51.179  1.00  0.00     0.051 A 
BRANCH  10  16
HETATM   16  O1  UNL     1      26.659   3.608  50.887  1.00  0.00    -0.358 OA
HETATM   17  H1  UNL     1      26.950   2.763  51.376  1.00  0.00     0.217 HD
ENDBRANCH  10  16
ENDBRANCH   7   9
ENDBRANCH   1   7
BRANCH   6  18
HETATM   18  N4  UNL     1      23.496   0.568  52.776  1.00  0.00    -0.239 NA
HETATM   19  C11 UNL     1      22.540   0.244  53.602  1.00  0.00     0.130 C 
BRANCH  19  20
HETATM   20  C12 UNL     1      21.221   0.116  52.992  1.00  0.00    -0.019 A 
HETATM   21  C13 UNL     1      20.935   0.636  51.745  1.00  0.00     0.013 A 
HETATM   22  C14 UNL     1      19.683   0.520  51.156  1.00  0.00     0.001 A 
HETATM   23  C15 UNL     1      18.665  -0.142  51.830  1.00  0.00     0.000 A 
HETATM   24  C16 UNL     1      18.919  -0.674  53.082  1.00  0.00     0.001 A 
HETATM   25  C17 UNL     1      20.168  -0.529  53.610  1.00  0.00     0.013 A 
ENDBRANCH  19  20
ENDBRANCH   6  18
TORSDOF 5
ENDMDL
MODEL 9
REMARK VINA RESULT:      -7.3      7.546     10.197
REMARK  5 active torsions:
REMARK  status: ('A' for Active; 'I' for Inactive)
REMARK    1  A    between atoms: O1_1  and  C1_2 
REMARK    2  A    between atoms: C6_8  and  N1_9 
REMARK    3  A    between atoms: N1_9  and  C7_10 
REMARK    4  A    between atoms: C10_15  and  N4_16 
REMARK    5  A    between atoms: C11_17  and  C12_18 
ROOT
HETATM    1  C7  UNL     1      29.281   9.082  48.718  1.00  0.00     0.099 A 
HETATM    2  C8  UNL     1      29.755  10.302  48.279  1.00  0.00     0.151 A 
HETATM    3  N2  UNL     1      28.913  11.110  47.588  1.00  0.00    -0.252 NA
HETATM    4  C9  UNL     1      27.644  10.744  47.332  1.00  0.00     0.235 A 
HETATM    5  N3  UNL     1      27.187   9.553  47.764  1.00  0.00    -0.220 NA
HETATM    6  C10 UNL     1      27.980   8.696  48.462  1.00  0.00     0.178 A 
ENDROOT
BRANCH   1   7
HETATM    7  N1  UNL     1      30.236   8.303  49.433  1.00  0.00    -0.350 N 
HETATM    8  H5  UNL     1      30.181   8.089  50.436  1.00  0.00     0.166 HD
BRANCH   7   9
HETATM    9  C6  UNL     1      31.445   7.623  49.107  1.00  0.00     0.067 A 
HETATM   10  C1  UNL     1      31.237   6.241  49.057  1.00  0.00     0.092 A 
HETATM   11  C2  UNL     1      32.278   5.376  48.756  1.00  0.00     0.040 A 
HETATM   12  C3  UNL     1      33.532   5.903  48.505  1.00  0.00     0.022 A 
HETATM   13  C4  UNL     1      33.726   7.260  48.556  1.00  0.00     0.013 A 
HETATM   14 BR1  UNL     1      35.432   8.056  48.218  1.00  0.00    -0.051 Br
HETATM   15  C5  UNL     1      32.702   8.131  48.853  1.00  0.00     0.051 A 
BRANCH  10  16
HETATM   16  O1  UNL     1      30.025   5.590  49.291  1.00  0.00    -0.358 OA
HETATM   17  H1  UNL     1      30.108   4.690  49.759  1.00  0.00     0.217 HD
ENDBRANCH  10  16
ENDBRANCH   7   9
ENDBRANCH   1   7
BRANCH   6  18
HETATM   18  N4  UNL     1      27.557   7.424  48.945  1.00  0.00    -0.239 NA
HETATM   19  C11 UNL     1      26.512   6.957  48.321  1.00  0.00     0.130 C 
BRANCH  19  20
HETATM   20  C12 UNL     1      26.049   5.655  48.789  1.00  0.00    -0.019 A 
HETATM   21  C13 UNL     1      26.922   4.621  49.063  1.00  0.00     0.013 A 
HETATM   22  C14 UNL     1      26.492   3.379  49.510  1.00  0.00     0.001 A 
HETATM   23  C15 UNL     1      25.135   3.147  49.694  1.00  0.00     0.000 A 
HETATM   24  C16 UNL     1      24.234   4.163  49.429  1.00  0.00     0.001 A 
HETATM   25  C17 UNL     1      24.715   5.362  48.992  1.00  0.00     0.013 A 
ENDBRANCH  19  20
ENDBRANCH   6  18
TORSDOF 5
ENDMDL
