MODEL 1
REMARK VINA RESULT:      -7.3      0.000      0.000
REMARK  2 active torsions:
REMARK  status: ('A' for Active; 'I' for Inactive)
REMARK    1  A    between atoms: C2_2  and  C3_3 
REMARK    2  A    between atoms: C13_18  and  C14_19 
ROOT
HETATM    1  C3  UNL     1      22.509   0.281  53.399  1.00  0.00    -0.025 C 
HETATM    2  C4  UNL     1      23.421  -0.630  53.799  1.00  0.00     0.076 C 
HETATM    3  C5  UNL     1      24.823  -0.982  53.605  1.00  0.00     0.097 C 
HETATM    4  N1  UNL     1      25.975  -0.645  53.004  1.00  0.00    -0.258 NA
HETATM    5  C6  UNL     1      25.918   0.550  52.185  1.00  0.00     0.228 C 
HETATM    6  N2  UNL     1      25.748   1.298  53.210  1.00  0.00    -0.257 NA
HETATM    7  C7  UNL     1      25.607   2.733  53.034  1.00  0.00     0.319 C 
HETATM    8  O1  UNL     1      24.501   3.101  52.593  1.00  0.00    -0.357 OA
HETATM    9  C8  UNL     1      23.420   3.384  52.033  1.00  0.00     0.181 A 
HETATM   10  C9  UNL     1      23.726   3.677  50.550  1.00  0.00     0.053 A 
HETATM   11  C10 UNL     1      23.167   2.880  49.662  1.00  0.00     0.137 A 
HETATM   12  F1  UNL     1      23.371   3.046  48.340  1.00  0.00    -0.205 F 
HETATM   13  C11 UNL     1      22.403   1.975  50.503  1.00  0.00     0.078 A 
HETATM   14 CL1  UNL     1      21.501   0.742  49.593  1.00  0.00    -0.081 Cl
HETATM   15  C12 UNL     1      22.492   2.202  51.835  1.00  0.00    -0.015 A 
HETATM   16  C13 UNL     1      21.708   1.365  52.807  1.00  0.00     0.047 C 
ENDROOT
BRANCH  16  17
HETATM   17  C14 UNL     1      20.482   0.835  52.129  1.00  0.00    -0.022 C 
HETATM   18  C15 UNL     1      19.168   0.744  51.985  1.00  0.00    -0.034 C 
HETATM   19  C16 UNL     1      18.349  -0.050  50.995  1.00  0.00     0.036 C 
ENDBRANCH  16  17
BRANCH   1  20
HETATM   20  C2  UNL     1      21.523  -0.404  54.267  1.00  0.00    -0.004 C 
HETATM   21  C1  UNL     1      21.148  -1.647  54.579  1.00  0.00     0.006 C 
ENDBRANCH   1  20
TORSDOF 2
ENDMDL
MODEL 2
REMARK VINA RESULT:      -7.0      2.802      4.184
REMARK  2 active torsions:
REMARK  status: ('A' for Active; 'I' for Inactive)
REMARK    1  A    between atoms: C2_2  and  C3_3 
REMARK    2  A    between atoms: C13_18  and  C14_19 
ROOT
HETATM    1  C3  UNL     1      25.193   2.565  51.943  1.00  0.00    -0.025 C 
HETATM    2  C4  UNL     1      26.233   2.722  51.098  1.00  0.00     0.076 C 
HETATM    3  C5  UNL     1      26.613   3.471  49.904  1.00  0.00     0.097 C 
HETATM    4  N1  UNL     1      26.231   4.396  49.011  1.00  0.00    -0.258 NA
HETATM    5  C6  UNL     1      24.909   4.954  49.226  1.00  0.00     0.228 C 
HETATM    6  N2  UNL     1      25.284   5.541  50.300  1.00  0.00    -0.257 NA
HETATM    7  C7  UNL     1      24.328   6.334  51.053  1.00  0.00     0.319 C 
HETATM    8  O1  UNL     1      23.502   5.673  51.712  1.00  0.00    -0.357 OA
HETATM    9  C8  UNL     1      22.632   4.949  52.244  1.00  0.00     0.181 A 
HETATM   10  C9  UNL     1      21.358   5.038  51.380  1.00  0.00     0.053 A 
HETATM   11  C10 UNL     1      20.942   3.919  50.823  1.00  0.00     0.137 A 
HETATM   12  F1  UNL     1      19.841   3.886  50.046  1.00  0.00    -0.205 F 
HETATM   13  C11 UNL     1      21.921   2.958  51.301  1.00  0.00     0.078 A 
HETATM   14 CL1  UNL     1      21.640   1.301  50.719  1.00  0.00    -0.081 Cl
HETATM   15  C12 UNL     1      22.889   3.461  52.104  1.00  0.00    -0.015 A 
HETATM   16  C13 UNL     1      23.931   2.559  52.701  1.00  0.00     0.047 C 
ENDROOT
BRANCH  16  17
HETATM   17  C14 UNL     1      23.373   1.174  52.831  1.00  0.00    -0.022 C 
HETATM   18  C15 UNL     1      23.004   0.121  53.543  1.00  0.00    -0.034 C 
HETATM   19  C16 UNL     1      22.423  -1.200  53.099  1.00  0.00     0.036 C 
ENDBRANCH  16  17
BRANCH   1  20
HETATM   20  C2  UNL     1      26.020   1.592  52.694  1.00  0.00    -0.004 C 
HETATM   21  C1  UNL     1      26.974   0.689  52.459  1.00  0.00     0.006 C 
ENDBRANCH   1  20
TORSDOF 2
ENDMDL
MODEL 3
REMARK VINA RESULT:      -7.0      3.207      5.762
REMARK  2 active torsions:
REMARK  status: ('A' for Active; 'I' for Inactive)
REMARK    1  A    between atoms: C2_2  and  C3_3 
REMARK    2  A    between atoms: C13_18  and  C14_19 
ROOT
HETATM    1  C3  UNL     1      23.525   2.637  51.171  1.00  0.00    -0.025 C 
HETATM    2  C4  UNL     1      23.352   2.701  49.834  1.00  0.00     0.076 C 
HETATM    3  C5  UNL     1      22.524   2.131  48.776  1.00  0.00     0.097 C 
HETATM    4  N1  UNL     1      21.506   1.304  48.493  1.00  0.00    -0.258 NA
HETATM    5  C6  UNL     1      20.899   0.656  49.639  1.00  0.00     0.228 C 
HETATM    6  N2  UNL     1      20.428   1.764  50.072  1.00  0.00    -0.257 NA
HETATM    7  C7  UNL     1      19.653   1.782  51.301  1.00  0.00     0.319 C 
HETATM    8  O1  UNL     1      20.323   1.668  52.345  1.00  0.00    -0.357 OA
HETATM    9  C8  UNL     1      21.043   1.425  53.339  1.00  0.00     0.181 A 
HETATM   10  C9  UNL     1      20.811  -0.048  53.732  1.00  0.00     0.053 A 
HETATM   11  C10 UNL     1      21.854  -0.850  53.662  1.00  0.00     0.137 A 
HETATM   12  F1  UNL     1      21.761  -2.156  53.981  1.00  0.00    -0.205 F 
HETATM   13  C11 UNL     1      22.904   0.053  53.222  1.00  0.00     0.078 A 
HETATM   14 CL1  UNL     1      24.487  -0.733  53.025  1.00  0.00    -0.081 Cl
HETATM   15  C12 UNL     1      22.524   1.339  53.028  1.00  0.00    -0.015 A 
HETATM   16  C13 UNL     1      23.529   2.378  52.621  1.00  0.00     0.047 C 
ENDROOT
BRANCH  16  17
HETATM   17  C14 UNL     1      24.888   1.971  53.103  1.00  0.00    -0.022 C 
HETATM   18  C15 UNL     1      25.951   2.123  53.879  1.00  0.00    -0.034 C 
HETATM   19  C16 UNL     1      27.220   1.309  53.961  1.00  0.00     0.036 C 
ENDBRANCH  16  17
BRANCH   1  20
HETATM   20  C2  UNL     1      24.602   3.643  51.025  1.00  0.00    -0.004 C 
HETATM   21  C1  UNL     1      25.511   4.022  50.124  1.00  0.00     0.006 C 
ENDBRANCH   1  20
TORSDOF 2
ENDMDL
MODEL 4
REMARK VINA RESULT:      -6.7      3.028      4.676
REMARK  2 active torsions:
REMARK  status: ('A' for Active; 'I' for Inactive)
REMARK    1  A    between atoms: C2_2  and  C3_3 
REMARK    2  A    between atoms: C13_18  and  C14_19 
ROOT
HETATM    1  C3  UNL     1      21.878   0.815  52.210  1.00  0.00    -0.025 C 
HETATM    2  C4  UNL     1      20.605   0.981  52.624  1.00  0.00     0.076 C 
HETATM    3  C5  UNL     1      19.514   1.947  52.556  1.00  0.00     0.097 C 
HETATM    4  N1  UNL     1      19.114   3.132  52.068  1.00  0.00    -0.258 NA
HETATM    5  C6  UNL     1      20.093   3.826  51.253  1.00  0.00     0.228 C 
HETATM    6  N2  UNL     1      20.012   2.945  50.328  1.00  0.00    -0.257 NA
HETATM    7  C7  UNL     1      20.825   3.086  49.132  1.00  0.00     0.319 C 
HETATM    8  O1  UNL     1      22.030   2.808  49.281  1.00  0.00    -0.357 OA
HETATM    9  C8  UNL     1      23.242   2.634  49.534  1.00  0.00     0.181 A 
HETATM   10  C9  UNL     1      23.905   4.024  49.616  1.00  0.00     0.053 A 
HETATM   11  C10 UNL     1      24.434   4.360  50.775  1.00  0.00     0.137 A 
HETATM   12  F1  UNL     1      25.035   5.553  50.954  1.00  0.00    -0.205 F 
HETATM   13  C11 UNL     1      24.178   3.178  51.580  1.00  0.00     0.078 A 
HETATM   14 CL1  UNL     1      24.785   3.305  53.247  1.00  0.00    -0.081 Cl
HETATM   15  C12 UNL     1      23.524   2.174  50.950  1.00  0.00    -0.015 A 
HETATM   16  C13 UNL     1      23.244   0.881  51.663  1.00  0.00     0.047 C 
ENDROOT
BRANCH  16  17
HETATM   17  C14 UNL     1      24.275   0.668  52.729  1.00  0.00    -0.022 C 
HETATM   18  C15 UNL     1      25.274  -0.007  53.276  1.00  0.00    -0.034 C 
HETATM   19  C16 UNL     1      26.058   0.264  54.538  1.00  0.00     0.036 C 
ENDBRANCH  16  17
BRANCH   1  20
HETATM   20  C2  UNL     1      21.868  -0.506  52.880  1.00  0.00    -0.004 C 
HETATM   21  C1  UNL     1      21.390  -1.067  53.993  1.00  0.00     0.006 C 
ENDBRANCH   1  20
TORSDOF 2
ENDMDL
MODEL 5
REMARK VINA RESULT:      -6.7      3.439      5.098
REMARK  2 active torsions:
REMARK  status: ('A' for Active; 'I' for Inactive)
REMARK    1  A    between atoms: C2_2  and  C3_3 
REMARK    2  A    between atoms: C13_18  and  C14_19 
ROOT
HETATM    1  C3  UNL     1      19.649   0.909  51.457  1.00  0.00    -0.025 C 
HETATM    2  C4  UNL     1      18.537   1.646  51.660  1.00  0.00     0.076 C 
HETATM    3  C5  UNL     1      17.968   2.946  51.321  1.00  0.00     0.097 C 
HETATM    4  N1  UNL     1      18.150   4.089  50.643  1.00  0.00    -0.258 NA
HETATM    5  C6  UNL     1      19.392   4.177  49.901  1.00  0.00     0.228 C 
HETATM    6  N2  UNL     1      19.021   3.263  49.085  1.00  0.00    -0.257 NA
HETATM    7  C7  UNL     1      19.911   2.857  48.011  1.00  0.00     0.319 C 
HETATM    8  O1  UNL     1      20.868   2.142  48.365  1.00  0.00    -0.357 OA
HETATM    9  C8  UNL     1      21.868   1.536  48.808  1.00  0.00     0.181 A 
HETATM   10  C9  UNL     1      23.048   2.528  48.819  1.00  0.00     0.053 A 
HETATM   11  C10 UNL     1      23.573   2.810  49.993  1.00  0.00     0.137 A 
HETATM   12  F1  UNL     1      24.607   3.666  50.114  1.00  0.00    -0.205 F 
HETATM   13  C11 UNL     1      22.777   1.989  50.888  1.00  0.00     0.078 A 
HETATM   14 CL1  UNL     1      23.242   2.137  52.599  1.00  0.00    -0.081 Cl
HETATM   15  C12 UNL     1      21.811   1.247  50.295  1.00  0.00    -0.015 A 
HETATM   16  C13 UNL     1      20.953   0.320  51.109  1.00  0.00     0.047 C 
ENDROOT
BRANCH  16  17
HETATM   17  C14 UNL     1      21.707  -0.110  52.331  1.00  0.00    -0.022 C 
HETATM   18  C15 UNL     1      22.295  -1.027  53.083  1.00  0.00    -0.034 C 
HETATM   19  C16 UNL     1      22.999  -0.892  54.412  1.00  0.00     0.036 C 
ENDBRANCH  16  17
BRANCH   1  20
HETATM   20  C2  UNL     1      19.025  -0.159  52.271  1.00  0.00    -0.004 C 
HETATM   21  C1  UNL     1      17.862  -0.808  52.361  1.00  0.00     0.006 C 
ENDBRANCH   1  20
TORSDOF 2
ENDMDL
MODEL 6
REMARK VINA RESULT:      -6.5      3.408      6.451
REMARK  2 active torsions:
REMARK  status: ('A' for Active; 'I' for Inactive)
REMARK    1  A    between atoms: C2_2  and  C3_3 
REMARK    2  A    between atoms: C13_18  and  C14_19 
ROOT
HETATM    1  C3  UNL     1      23.262   4.525  48.946  1.00  0.00    -0.025 C 
HETATM    2  C4  UNL     1      22.348   3.954  48.134  1.00  0.00     0.076 C 
HETATM    3  C5  UNL     1      21.546   2.741  48.016  1.00  0.00     0.097 C 
HETATM    4  N1  UNL     1      21.218   1.572  48.589  1.00  0.00    -0.258 NA
HETATM    5  C6  UNL     1      21.869   1.300  49.855  1.00  0.00     0.228 C 
HETATM    6  N2  UNL     1      21.229   2.244  50.437  1.00  0.00    -0.257 NA
HETATM    7  C7  UNL     1      21.462   2.504  51.847  1.00  0.00     0.319 C 
HETATM    8  O1  UNL     1      22.535   3.084  52.103  1.00  0.00    -0.357 OA
HETATM    9  C8  UNL     1      23.679   3.552  52.294  1.00  0.00     0.181 A 
HETATM   10  C9  UNL     1      24.571   2.405  52.810  1.00  0.00     0.053 A 
HETATM   11  C10 UNL     1      25.599   2.072  52.057  1.00  0.00     0.137 A 
HETATM   12  F1  UNL     1      26.441   1.082  52.414  1.00  0.00    -0.205 F 
HETATM   13  C11 UNL     1      25.486   3.010  50.954  1.00  0.00     0.078 A 
HETATM   14 CL1  UNL     1      26.759   2.826  49.725  1.00  0.00    -0.081 Cl
HETATM   15  C12 UNL     1      24.442   3.870  51.024  1.00  0.00    -0.015 A 
HETATM   16  C13 UNL     1      24.246   4.921  49.968  1.00  0.00     0.047 C 
ENDROOT
BRANCH  16  17
HETATM   17  C14 UNL     1      25.570   5.261  49.355  1.00  0.00    -0.022 C 
HETATM   18  C15 UNL     1      26.527   6.118  49.032  1.00  0.00    -0.034 C 
HETATM   19  C16 UNL     1      27.836   5.891  48.313  1.00  0.00     0.036 C 
ENDBRANCH  16  17
BRANCH   1  20
HETATM   20  C2  UNL     1      23.280   5.683  48.023  1.00  0.00    -0.004 C 
HETATM   21  C1  UNL     1      22.602   6.140  46.968  1.00  0.00     0.006 C 
ENDBRANCH   1  20
TORSDOF 2
ENDMDL
MODEL 7
REMARK VINA RESULT:      -6.5      7.964      9.979
REMARK  2 active torsions:
REMARK  status: ('A' for Active; 'I' for Inactive)
REMARK    1  A    between atoms: C2_2  and  C3_3 
REMARK    2  A    between atoms: C13_18  and  C14_19 
ROOT
HETATM    1  C3  UNL     1      28.284   6.420  48.326  1.00  0.00    -0.025 C 
HETATM    2  C4  UNL     1      29.131   5.389  48.124  1.00  0.00     0.076 C 
HETATM    3  C5  UNL     1      30.527   5.126  47.792  1.00  0.00     0.097 C 
HETATM    4  N1  UNL     1      31.727   5.672  47.542  1.00  0.00    -0.258 NA
HETATM    5  C6  UNL     1      31.770   7.121  47.600  1.00  0.00     0.228 C 
HETATM    6  N2  UNL     1      31.568   7.119  48.864  1.00  0.00    -0.257 NA
HETATM    7  C7  UNL     1      31.497   8.382  49.580  1.00  0.00     0.319 C 
HETATM    8  O1  UNL     1      30.437   9.017  49.419  1.00  0.00    -0.357 OA
HETATM    9  C8  UNL     1      29.405   9.653  49.113  1.00  0.00     0.181 A 
HETATM   10  C9  UNL     1      29.814  10.750  48.109  1.00  0.00     0.053 A 
HETATM   11  C10 UNL     1      29.279  10.680  46.907  1.00  0.00     0.137 A 
HETATM   12  F1  UNL     1      29.570  11.587  45.954  1.00  0.00    -0.205 F 
HETATM   13  C11 UNL     1      28.427   9.509  47.020  1.00  0.00     0.078 A 
HETATM   14 CL1  UNL     1      27.534   9.128  45.530  1.00  0.00    -0.081 Cl
HETATM   15  C12 UNL     1      28.442   8.890  48.225  1.00  0.00    -0.015 A 
HETATM   16  C13 UNL     1      27.567   7.697  48.481  1.00  0.00     0.047 C 
ENDROOT
BRANCH  16  17
HETATM   17  C14 UNL     1      26.364   7.763  47.591  1.00  0.00    -0.022 C 
HETATM   18  C15 UNL     1      25.056   7.818  47.389  1.00  0.00    -0.034 C 
HETATM   19  C16 UNL     1      24.271   7.876  46.100  1.00  0.00     0.036 C 
ENDBRANCH  16  17
BRANCH   1  20
HETATM   20  C2  UNL     1      27.219   5.424  48.586  1.00  0.00    -0.004 C 
HETATM   21  C1  UNL     1      27.080   4.221  49.148  1.00  0.00     0.006 C 
ENDBRANCH   1  20
TORSDOF 2
ENDMDL
MODEL 8
REMARK VINA RESULT:      -6.4      3.759      5.860
REMARK  2 active torsions:
REMARK  status: ('A' for Active; 'I' for Inactive)
REMARK    1  A    between atoms: C2_2  and  C3_3 
REMARK    2  A    between atoms: C13_18  and  C14_19 
ROOT
HETATM    1  C3  UNL     1      23.188   4.301  48.412  1.00  0.00    -0.025 C 
HETATM    2  C4  UNL     1      23.038   5.625  48.197  1.00  0.00     0.076 C 
HETATM    3  C5  UNL     1      23.626   6.903  48.583  1.00  0.00     0.097 C 
HETATM    4  N1  UNL     1      24.597   7.507  49.286  1.00  0.00    -0.258 NA
HETATM    5  C6  UNL     1      25.493   6.614  49.993  1.00  0.00     0.228 C 
HETATM    6  N2  UNL     1      25.986   6.170  48.899  1.00  0.00    -0.257 NA
HETATM    7  C7  UNL     1      27.026   5.157  48.940  1.00  0.00     0.319 C 
HETATM    8  O1  UNL     1      26.628   4.009  49.218  1.00  0.00    -0.357 OA
HETATM    9  C8  UNL     1      26.178   2.914  49.622  1.00  0.00     0.181 A 
HETATM   10  C9  UNL     1      26.583   2.762  51.102  1.00  0.00     0.053 A 
HETATM   11  C10 UNL     1      25.603   2.690  51.979  1.00  0.00     0.137 A 
HETATM   12  F1  UNL     1      25.847   2.558  53.298  1.00  0.00    -0.205 F 
HETATM   13  C11 UNL     1      24.427   2.768  51.129  1.00  0.00     0.078 A 
HETATM   14 CL1  UNL     1      22.892   2.694  52.024  1.00  0.00    -0.081 Cl
HETATM   15  C12 UNL     1      24.673   2.888  49.803  1.00  0.00    -0.015 A 
HETATM   16  C13 UNL     1      23.540   2.930  48.817  1.00  0.00     0.047 C 
ENDROOT
BRANCH  16  17
HETATM   17  C14 UNL     1      22.360   2.204  49.387  1.00  0.00    -0.022 C 
HETATM   18  C15 UNL     1      21.495   1.201  49.400  1.00  0.00    -0.034 C 
HETATM   19  C16 UNL     1      20.338   0.925  50.330  1.00  0.00     0.036 C 
ENDBRANCH  16  17
BRANCH   1  20
HETATM   20  C2  UNL     1      22.048   4.077  47.492  1.00  0.00    -0.004 C 
HETATM   21  C1  UNL     1      21.818   3.968  46.182  1.00  0.00     0.006 C 
ENDBRANCH   1  20
TORSDOF 2
ENDMDL
MODEL 9
REMARK VINA RESULT:      -6.3      7.314      9.094
REMARK  2 active torsions:
REMARK  status: ('A' for Active; 'I' for Inactive)
REMARK    1  A    between atoms: C2_2  and  C3_3 
REMARK    2  A    between atoms: C13_18  and  C14_19 
ROOT
HETATM    1  C3  UNL     1      27.327   6.288  48.595  1.00  0.00    -0.025 C 
HETATM    2  C4  UNL     1      28.381   5.474  48.378  1.00  0.00     0.076 C 
HETATM    3  C5  UNL     1      29.768   5.522  47.926  1.00  0.00     0.097 C 
HETATM    4  N1  UNL     1      30.772   6.314  47.520  1.00  0.00    -0.258 NA
HETATM    5  C6  UNL     1      30.462   7.730  47.476  1.00  0.00     0.228 C 
HETATM    6  N2  UNL     1      30.371   7.795  48.751  1.00  0.00    -0.257 NA
HETATM    7  C7  UNL     1      30.050   9.063  49.382  1.00  0.00     0.319 C 
HETATM    8  O1  UNL     1      28.857   9.410  49.287  1.00  0.00    -0.357 OA
HETATM    9  C8  UNL     1      27.679   9.752  49.045  1.00  0.00     0.181 A 
HETATM   10  C9  UNL     1      27.723  10.819  47.932  1.00  0.00     0.053 A 
HETATM   11  C10 UNL     1      27.126  10.517  46.798  1.00  0.00     0.137 A 
HETATM   12  F1  UNL     1      27.107  11.377  45.761  1.00  0.00    -0.205 F 
HETATM   13  C11 UNL     1      26.600   9.191  47.075  1.00  0.00     0.078 A 
HETATM   14 CL1  UNL     1      25.709   8.476  45.712  1.00  0.00    -0.081 Cl
HETATM   15  C12 UNL     1      26.865   8.705  48.311  1.00  0.00    -0.015 A 
HETATM   16  C13 UNL     1      26.333   7.365  48.734  1.00  0.00     0.047 C 
ENDROOT
BRANCH  16  17
HETATM   17  C14 UNL     1      25.082   7.062  47.967  1.00  0.00    -0.022 C 
HETATM   18  C15 UNL     1      23.786   6.799  47.894  1.00  0.00    -0.034 C 
HETATM   19  C16 UNL     1      22.911   6.540  46.691  1.00  0.00     0.036 C 
ENDBRANCH  16  17
BRANCH   1  20
HETATM   20  C2  UNL     1      26.564   5.094  49.028  1.00  0.00    -0.004 C 
HETATM   21  C1  UNL     1      26.793   3.833  49.401  1.00  0.00     0.006 C 
ENDBRANCH   1  20
TORSDOF 2
ENDMDL
