MODEL 1
REMARK VINA RESULT:     -10.3      0.000      0.000
REMARK  2 active torsions:
REMARK  status: ('A' for Active; 'I' for Inactive)
REMARK       I    between atoms: N1_1  and  C1_2 
REMARK    1  A    between atoms: N4_14  and  C10_15 
REMARK    2  A    between atoms: C10_15  and  C11_16 
ROOT
HETATM    1  N1  UNL     1      22.584  -0.885  55.293  1.00  0.00    -0.230 N 
HETATM    2  C1  UNL     1      21.787  -0.374  54.220  1.00  0.00     0.738 C 
HETATM    3  N2  UNL     1      20.878  -1.203  54.580  1.00  0.00     0.018 NA
HETATM    4  N3  UNL     1      19.656  -1.236  53.849  1.00  0.00    -0.266 N 
HETATM    5  C2  UNL     1      19.350  -0.436  52.663  1.00  0.00     0.033 C 
HETATM    6  C3  UNL     1      20.613  -0.423  52.189  1.00  0.00     0.036 C 
HETATM    7  C4  UNL     1      20.794   0.928  51.562  1.00  0.00    -0.027 C 
HETATM    8  C5  UNL     1      19.639   1.584  51.675  1.00  0.00     0.002 C 
HETATM    9 BR1  UNL     1      19.842   3.483  51.820  1.00  0.00    -0.055 Br
HETATM   10  C6  UNL     1      18.676   0.380  51.622  1.00  0.00     0.105 C 
HETATM   11  C7  UNL     1      22.205   0.900  51.240  1.00  0.00     0.114 A 
HETATM   12  C8  UNL     1      22.888   1.872  50.458  1.00  0.00     0.007 A 
HETATM   13  C9  UNL     1      23.878   2.463  51.131  1.00  0.00     0.090 A 
HETATM   14  N4  UNL     1      23.993   1.989  52.491  1.00  0.00    -0.340 N 
HETATM   15  C21 UNL     1      22.936   1.045  52.612  1.00  0.00     0.138 A 
HETATM   16  N5  UNL     1      22.724   0.544  53.780  1.00  0.00    -0.047 NA
HETATM   17  H1  UNL     1      22.919  -0.940  56.282  1.00  0.00     0.174 HD
HETATM   18  H2  UNL     1      23.181  -1.285  56.042  1.00  0.00     0.174 HD
HETATM   19  H3  UNL     1      18.727  -1.681  53.818  1.00  0.00     0.189 HD
ENDROOT
BRANCH  14  20
HETATM   20  C10 UNL     1      25.005   2.475  53.369  1.00  0.00     0.168 C 
BRANCH  20  21
HETATM   21  C11 UNL     1      26.240   1.649  53.408  1.00  0.00    -0.039 A 
HETATM   22  C12 UNL     1      27.475   2.168  53.739  1.00  0.00     0.010 A 
HETATM   23  C13 UNL     1      28.572   1.308  53.747  1.00  0.00     0.013 A 
HETATM   24  C14 UNL     1      28.417  -0.029  53.428  1.00  0.00    -0.026 A 
HETATM   25  C15 UNL     1      29.531  -0.849  53.447  1.00  0.00     0.012 A 
HETATM   26  C19 UNL     1      27.161  -0.528  53.097  1.00  0.00    -0.025 A 
HETATM   27  C16 UNL     1      29.397  -2.192  53.132  1.00  0.00     0.001 A 
HETATM   28  C17 UNL     1      28.151  -2.720  52.796  1.00  0.00     0.001 A 
HETATM   29  C18 UNL     1      27.032  -1.882  52.780  1.00  0.00     0.012 A 
HETATM   30  C20 UNL     1      26.064   0.308  53.085  1.00  0.00     0.021 A 
ENDBRANCH  20  21
ENDBRANCH  14  20
TORSDOF 2
ENDMDL
MODEL 2
REMARK VINA RESULT:     -10.0      0.917      1.745
REMARK  2 active torsions:
REMARK  status: ('A' for Active; 'I' for Inactive)
REMARK       I    between atoms: N1_1  and  C1_2 
REMARK    1  A    between atoms: N4_14  and  C10_15 
REMARK    2  A    between atoms: C10_15  and  C11_16 
ROOT
HETATM    1  N1  UNL     1      21.324  -1.013  54.742  1.00  0.00    -0.230 N 
HETATM    2  C1  UNL     1      20.653  -0.364  53.657  1.00  0.00     0.738 C 
HETATM    3  N2  UNL     1      19.614  -1.049  53.969  1.00  0.00     0.018 NA
HETATM    4  N3  UNL     1      18.427  -0.877  53.200  1.00  0.00    -0.266 N 
HETATM    5  C2  UNL     1      18.290  -0.017  52.025  1.00  0.00     0.033 C 
HETATM    6  C3  UNL     1      19.554  -0.192  51.590  1.00  0.00     0.036 C 
HETATM    7  C4  UNL     1      19.964   1.126  51.002  1.00  0.00    -0.027 C 
HETATM    8  C5  UNL     1      18.921   1.952  51.095  1.00  0.00     0.002 C 
HETATM    9 BR1  UNL     1      19.412   3.793  51.292  1.00  0.00    -0.055 Br
HETATM   10  C6  UNL     1      17.786   0.914  50.983  1.00  0.00     0.105 C 
HETATM   11  C7  UNL     1      21.364   0.885  50.722  1.00  0.00     0.114 A 
HETATM   12  C8  UNL     1      22.215   1.753  49.985  1.00  0.00     0.007 A 
HETATM   13  C9  UNL     1      23.262   2.170  50.702  1.00  0.00     0.090 A 
HETATM   14  N4  UNL     1      23.255   1.658  52.053  1.00  0.00    -0.340 N 
HETATM   15  C21 UNL     1      22.061   0.888  52.119  1.00  0.00     0.138 A 
HETATM   16  N5  UNL     1      21.735   0.404  53.268  1.00  0.00    -0.047 NA
HETATM   17  H1  UNL     1      21.612  -1.139  55.739  1.00  0.00     0.174 HD
HETATM   18  H2  UNL     1      21.826  -1.516  55.498  1.00  0.00     0.174 HD
HETATM   19  H3  UNL     1      17.442  -1.171  53.130  1.00  0.00     0.189 HD
ENDROOT
BRANCH  14  20
HETATM   20  C10 UNL     1      24.300   1.963  52.973  1.00  0.00     0.168 C 
BRANCH  20  21
HETATM   21  C11 UNL     1      25.400   0.966  53.015  1.00  0.00    -0.039 A 
HETATM   22  C12 UNL     1      25.197  -0.381  52.795  1.00  0.00     0.010 A 
HETATM   23  C13 UNL     1      26.298  -1.235  52.857  1.00  0.00     0.013 A 
HETATM   24  C14 UNL     1      27.557  -0.734  53.133  1.00  0.00    -0.026 A 
HETATM   25  C15 UNL     1      28.623  -1.615  53.185  1.00  0.00     0.012 A 
HETATM   26  C19 UNL     1      27.737   0.627  53.352  1.00  0.00    -0.025 A 
HETATM   27  C16 UNL     1      29.893  -1.135  53.460  1.00  0.00     0.001 A 
HETATM   28  C17 UNL     1      30.104   0.225  53.684  1.00  0.00     0.001 A 
HETATM   29  C18 UNL     1      29.019   1.106  53.628  1.00  0.00     0.012 A 
HETATM   30  C20 UNL     1      26.659   1.487  53.295  1.00  0.00     0.021 A 
ENDBRANCH  20  21
ENDBRANCH  14  20
TORSDOF 2
ENDMDL
MODEL 3
REMARK VINA RESULT:      -9.9      3.517      5.836
REMARK  2 active torsions:
REMARK  status: ('A' for Active; 'I' for Inactive)
REMARK       I    between atoms: N1_1  and  C1_2 
REMARK    1  A    between atoms: N4_14  and  C10_15 
REMARK    2  A    between atoms: C10_15  and  C11_16 
ROOT
HETATM    1  N1  UNL     1      26.869   2.377  54.011  1.00  0.00    -0.230 N 
HETATM    2  C1  UNL     1      25.763   1.470  54.058  1.00  0.00     0.738 C 
HETATM    3  N2  UNL     1      26.433   0.792  54.917  1.00  0.00     0.018 NA
HETATM    4  N3  UNL     1      25.852  -0.391  55.454  1.00  0.00    -0.266 N 
HETATM    5  C2  UNL     1      24.559  -0.957  55.070  1.00  0.00     0.033 C 
HETATM    6  C3  UNL     1      24.624  -0.563  53.781  1.00  0.00     0.036 C 
HETATM    7  C4  UNL     1      23.218  -0.211  53.396  1.00  0.00    -0.027 C 
HETATM    8  C5  UNL     1      22.437  -0.455  54.448  1.00  0.00     0.002 C 
HETATM    9 BR1  UNL     1      20.909   0.695  54.558  1.00  0.00    -0.055 Br
HETATM   10  C6  UNL     1      23.232  -1.623  55.068  1.00  0.00     0.105 C 
HETATM   11  C7  UNL     1      23.421   0.347  52.076  1.00  0.00     0.114 A 
HETATM   12  C8  UNL     1      22.387   0.687  51.160  1.00  0.00     0.007 A 
HETATM   13  C9  UNL     1      22.407   1.980  50.828  1.00  0.00     0.090 A 
HETATM   14  N4  UNL     1      23.452   2.716  51.499  1.00  0.00    -0.340 N 
HETATM   15  C21 UNL     1      24.080   1.740  52.322  1.00  0.00     0.138 A 
HETATM   16  N5  UNL     1      24.988   2.153  53.138  1.00  0.00    -0.047 NA
HETATM   17  H1  UNL     1      27.438   3.195  54.326  1.00  0.00     0.174 HD
HETATM   18  H2  UNL     1      27.688   3.011  53.940  1.00  0.00     0.174 HD
HETATM   19  H3  UNL     1      26.009  -1.151  56.133  1.00  0.00     0.189 HD
ENDROOT
BRANCH  14  20
HETATM   20  C10 UNL     1      23.660   4.106  51.262  1.00  0.00     0.168 C 
BRANCH  20  21
HETATM   21  C11 UNL     1      24.865   4.423  50.452  1.00  0.00    -0.039 A 
HETATM   22  C12 UNL     1      25.751   3.457  50.020  1.00  0.00     0.010 A 
HETATM   23  C13 UNL     1      26.851   3.860  49.265  1.00  0.00     0.013 A 
HETATM   24  C14 UNL     1      27.042   5.197  48.962  1.00  0.00    -0.026 A 
HETATM   25  C15 UNL     1      28.147   5.554  48.210  1.00  0.00     0.012 A 
HETATM   26  C19 UNL     1      26.135   6.152  49.409  1.00  0.00    -0.025 A 
HETATM   27  C16 UNL     1      28.356   6.888  47.895  1.00  0.00     0.001 A 
HETATM   28  C17 UNL     1      27.464   7.867  48.330  1.00  0.00     0.001 A 
HETATM   29  C18 UNL     1      26.351   7.494  49.089  1.00  0.00     0.012 A 
HETATM   30  C20 UNL     1      25.040   5.771  50.157  1.00  0.00     0.021 A 
ENDBRANCH  20  21
ENDBRANCH  14  20
TORSDOF 2
ENDMDL
MODEL 4
REMARK VINA RESULT:      -9.9      2.244      3.131
REMARK  2 active torsions:
REMARK  status: ('A' for Active; 'I' for Inactive)
REMARK       I    between atoms: N1_1  and  C1_2 
REMARK    1  A    between atoms: N4_14  and  C10_15 
REMARK    2  A    between atoms: C10_15  and  C11_16 
ROOT
HETATM    1  N1  UNL     1      21.539   0.034  51.606  1.00  0.00    -0.230 N 
HETATM    2  C1  UNL     1      21.649   1.101  50.659  1.00  0.00     0.738 C 
HETATM    3  N2  UNL     1      20.586   0.641  50.107  1.00  0.00     0.018 NA
HETATM    4  N3  UNL     1      20.070   1.308  48.961  1.00  0.00    -0.266 N 
HETATM    5  C2  UNL     1      20.678   2.462  48.298  1.00  0.00     0.033 C 
HETATM    6  C3  UNL     1      21.952   2.100  48.557  1.00  0.00     0.036 C 
HETATM    7  C4  UNL     1      22.692   3.382  48.801  1.00  0.00    -0.027 C 
HETATM    8  C5  UNL     1      21.830   4.385  48.632  1.00  0.00     0.002 C 
HETATM    9 BR1  UNL     1      22.212   5.919  49.715  1.00  0.00    -0.055 Br
HETATM   10  C6  UNL     1      20.915   3.736  47.574  1.00  0.00     0.105 C 
HETATM   11  C7  UNL     1      23.983   2.883  49.226  1.00  0.00     0.114 A 
HETATM   12  C8  UNL     1      25.147   3.677  49.419  1.00  0.00     0.007 A 
HETATM   13  C9  UNL     1      25.610   3.606  50.670  1.00  0.00     0.090 A 
HETATM   14  N4  UNL     1      24.800   2.764  51.520  1.00  0.00    -0.340 N 
HETATM   15  C21 UNL     1      23.749   2.330  50.666  1.00  0.00     0.138 A 
HETATM   16  N5  UNL     1      22.796   1.650  51.204  1.00  0.00    -0.047 NA
HETATM   17  H1  UNL     1      21.194  -0.427  52.479  1.00  0.00     0.174 HD
HETATM   18  H2  UNL     1      21.487  -0.765  52.266  1.00  0.00     0.174 HD
HETATM   19  H3  UNL     1      19.291   1.301  48.285  1.00  0.00     0.189 HD
ENDROOT
BRANCH  14  20
HETATM   20  C10 UNL     1      25.139   2.535  52.885  1.00  0.00     0.168 C 
BRANCH  20  21
HETATM   21  C11 UNL     1      26.343   1.690  53.092  1.00  0.00    -0.039 A 
HETATM   22  C12 UNL     1      27.542   2.196  53.550  1.00  0.00     0.010 A 
HETATM   23  C13 UNL     1      28.613   1.318  53.710  1.00  0.00     0.013 A 
HETATM   24  C14 UNL     1      28.468  -0.026  53.413  1.00  0.00    -0.026 A 
HETATM   25  C15 UNL     1      29.555  -0.863  53.586  1.00  0.00     0.012 A 
HETATM   26  C19 UNL     1      27.249  -0.512  52.952  1.00  0.00    -0.025 A 
HETATM   27  C16 UNL     1      29.431  -2.212  53.295  1.00  0.00     0.001 A 
HETATM   28  C17 UNL     1      28.222  -2.729  52.831  1.00  0.00     0.001 A 
HETATM   29  C18 UNL     1      27.130  -1.873  52.661  1.00  0.00     0.012 A 
HETATM   30  C20 UNL     1      26.178   0.342  52.788  1.00  0.00     0.021 A 
ENDBRANCH  20  21
ENDBRANCH  14  20
TORSDOF 2
ENDMDL
MODEL 5
REMARK VINA RESULT:      -9.6      8.345     11.923
REMARK  2 active torsions:
REMARK  status: ('A' for Active; 'I' for Inactive)
REMARK       I    between atoms: N1_1  and  C1_2 
REMARK    1  A    between atoms: N4_14  and  C10_15 
REMARK    2  A    between atoms: C10_15  and  C11_16 
ROOT
HETATM    1  N1  UNL     1      31.609   3.568  46.945  1.00  0.00    -0.230 N 
HETATM    2  C1  UNL     1      32.433   4.636  47.422  1.00  0.00     0.738 C 
HETATM    3  N2  UNL     1      33.409   3.803  47.423  1.00  0.00     0.018 NA
HETATM    4  N3  UNL     1      34.693   4.256  47.840  1.00  0.00    -0.266 N 
HETATM    5  C2  UNL     1      35.005   5.596  48.335  1.00  0.00     0.033 C 
HETATM    6  C3  UNL     1      33.810   5.794  48.929  1.00  0.00     0.036 C 
HETATM    7  C4  UNL     1      33.506   7.252  48.746  1.00  0.00    -0.027 C 
HETATM    8  C5  UNL     1      34.538   7.803  48.107  1.00  0.00     0.002 C 
HETATM    9 BR1  UNL     1      34.052   9.285  46.994  1.00  0.00    -0.055 Br
HETATM   10  C6  UNL     1      35.662   6.892  48.641  1.00  0.00     0.105 C 
HETATM   11  C7  UNL     1      32.155   7.323  49.261  1.00  0.00     0.114 A 
HETATM   12  C8  UNL     1      31.427   8.522  49.494  1.00  0.00     0.007 A 
HETATM   13  C9  UNL     1      30.297   8.578  48.785  1.00  0.00     0.090 A 
HETATM   14  N4  UNL     1      30.109   7.423  47.938  1.00  0.00    -0.340 N 
HETATM   15  C21 UNL     1      31.271   6.636  48.173  1.00  0.00     0.138 A 
HETATM   16  N5  UNL     1      31.428   5.585  47.445  1.00  0.00    -0.047 NA
HETATM   17  H1  UNL     1      31.184   2.952  46.215  1.00  0.00     0.174 HD
HETATM   18  H2  UNL     1      31.000   2.784  46.644  1.00  0.00     0.174 HD
HETATM   19  H3  UNL     1      35.674   3.960  47.952  1.00  0.00     0.189 HD
ENDROOT
BRANCH  14  20
HETATM   20  C10 UNL     1      28.952   7.276  47.119  1.00  0.00     0.168 C 
BRANCH  20  21
HETATM   21  C11 UNL     1      27.746   6.781  47.833  1.00  0.00    -0.039 A 
HETATM   22  C12 UNL     1      26.609   7.546  47.999  1.00  0.00     0.010 A 
HETATM   23  C13 UNL     1      25.531   6.987  48.685  1.00  0.00     0.013 A 
HETATM   24  C14 UNL     1      25.610   5.698  49.183  1.00  0.00    -0.026 A 
HETATM   25  C15 UNL     1      24.518   5.181  49.857  1.00  0.00     0.012 A 
HETATM   26  C19 UNL     1      26.767   4.948  49.002  1.00  0.00    -0.025 A 
HETATM   27  C16 UNL     1      24.576   3.893  50.363  1.00  0.00     0.001 A 
HETATM   28  C17 UNL     1      25.722   3.117  50.198  1.00  0.00     0.001 A 
HETATM   29  C18 UNL     1      26.819   3.650  49.515  1.00  0.00     0.012 A 
HETATM   30  C20 UNL     1      27.843   5.485  48.326  1.00  0.00     0.021 A 
ENDBRANCH  20  21
ENDBRANCH  14  20
TORSDOF 2
ENDMDL
MODEL 6
REMARK VINA RESULT:      -9.6      3.518      6.531
REMARK  2 active torsions:
REMARK  status: ('A' for Active; 'I' for Inactive)
REMARK       I    between atoms: N1_1  and  C1_2 
REMARK    1  A    between atoms: N4_14  and  C10_15 
REMARK    2  A    between atoms: C10_15  and  C11_16 
ROOT
HETATM    1  N1  UNL     1      21.902   6.980  51.535  1.00  0.00    -0.230 N 
HETATM    2  C1  UNL     1      22.986   6.329  50.864  1.00  0.00     0.738 C 
HETATM    3  N2  UNL     1      23.566   7.472  50.818  1.00  0.00     0.018 NA
HETATM    4  N3  UNL     1      24.848   7.562  50.205  1.00  0.00    -0.266 N 
HETATM    5  C2  UNL     1      25.562   6.463  49.554  1.00  0.00     0.033 C 
HETATM    6  C3  UNL     1      24.454   5.844  49.098  1.00  0.00     0.036 C 
HETATM    7  C4  UNL     1      24.749   4.375  49.184  1.00  0.00    -0.027 C 
HETATM    8  C5  UNL     1      25.995   4.239  49.637  1.00  0.00     0.002 C 
HETATM    9 BR1  UNL     1      26.273   2.645  50.662  1.00  0.00    -0.055 Br
HETATM   10  C6  UNL     1      26.603   5.531  49.053  1.00  0.00     0.105 C 
HETATM   11  C7  UNL     1      23.462   3.811  48.837  1.00  0.00     0.114 A 
HETATM   12  C8  UNL     1      23.210   2.433  48.587  1.00  0.00     0.007 A 
HETATM   13  C9  UNL     1      22.304   1.922  49.424  1.00  0.00     0.090 A 
HETATM   14  N4  UNL     1      21.826   2.884  50.389  1.00  0.00    -0.340 N 
HETATM   15  C21 UNL     1      22.559   4.064  50.084  1.00  0.00     0.138 A 
HETATM   16  N5  UNL     1      22.417   5.068  50.880  1.00  0.00    -0.047 NA
HETATM   17  H1  UNL     1      21.392   7.358  52.365  1.00  0.00     0.174 HD
HETATM   18  H2  UNL     1      21.096   7.459  51.980  1.00  0.00     0.174 HD
HETATM   19  H3  UNL     1      25.618   8.216  49.999  1.00  0.00     0.189 HD
ENDROOT
BRANCH  14  20
HETATM   20  C10 UNL     1      20.834   2.545  51.355  1.00  0.00     0.168 C 
BRANCH  20  21
HETATM   21  C11 UNL     1      21.272   1.554  52.372  1.00  0.00    -0.039 A 
HETATM   22  C12 UNL     1      20.386   0.866  53.175  1.00  0.00     0.010 A 
HETATM   23  C13 UNL     1      20.901  -0.043  54.099  1.00  0.00     0.013 A 
HETATM   24  C14 UNL     1      22.266  -0.241  54.201  1.00  0.00    -0.026 A 
HETATM   25  C15 UNL     1      22.736  -1.152  55.130  1.00  0.00     0.012 A 
HETATM   26  C19 UNL     1      23.139   0.465  53.380  1.00  0.00    -0.025 A 
HETATM   27  C16 UNL     1      24.100  -1.366  55.248  1.00  0.00     0.001 A 
HETATM   28  C17 UNL     1      24.998  -0.673  54.439  1.00  0.00     0.001 A 
HETATM   29  C18 UNL     1      24.513   0.245  53.503  1.00  0.00     0.012 A 
HETATM   30  C20 UNL     1      22.648   1.368  52.460  1.00  0.00     0.021 A 
ENDBRANCH  20  21
ENDBRANCH  14  20
TORSDOF 2
ENDMDL
MODEL 7
REMARK VINA RESULT:      -9.6      4.431      6.505
REMARK  2 active torsions:
REMARK  status: ('A' for Active; 'I' for Inactive)
REMARK       I    between atoms: N1_1  and  C1_2 
REMARK    1  A    between atoms: N4_14  and  C10_15 
REMARK    2  A    between atoms: C10_15  and  C11_16 
ROOT
HETATM    1  N1  UNL     1      22.023   1.982  50.031  1.00  0.00    -0.230 N 
HETATM    2  C1  UNL     1      22.704   1.359  51.124  1.00  0.00     0.738 C 
HETATM    3  N2  UNL     1      21.566   0.894  51.491  1.00  0.00     0.018 NA
HETATM    4  N3  UNL     1      21.505   0.081  52.658  1.00  0.00    -0.266 N 
HETATM    5  C2  UNL     1      22.631  -0.238  53.535  1.00  0.00     0.033 C 
HETATM    6  C3  UNL     1      23.263   0.941  53.365  1.00  0.00     0.036 C 
HETATM    7  C4  UNL     1      24.728   0.618  53.382  1.00  0.00    -0.027 C 
HETATM    8  C5  UNL     1      24.851  -0.692  53.596  1.00  0.00     0.002 C 
HETATM    9 BR1  UNL     1      26.405  -1.464  52.784  1.00  0.00    -0.055 Br
HETATM   10  C6  UNL     1      23.586  -0.913  54.450  1.00  0.00     0.105 C 
HETATM   11  C7  UNL     1      25.302   1.900  53.031  1.00  0.00     0.114 A 
HETATM   12  C8  UNL     1      26.687   2.219  53.074  1.00  0.00     0.007 A 
HETATM   13  C9  UNL     1      27.162   2.589  51.882  1.00  0.00     0.090 A 
HETATM   14  N4  UNL     1      26.161   2.546  50.842  1.00  0.00    -0.340 N 
HETATM   15  C21 UNL     1      24.996   2.077  51.510  1.00  0.00     0.138 A 
HETATM   16  N5  UNL     1      23.961   1.825  50.785  1.00  0.00    -0.047 NA
HETATM   17  H1  UNL     1      21.611   2.025  49.071  1.00  0.00     0.174 HD
HETATM   18  H2  UNL     1      21.524   2.473  49.264  1.00  0.00     0.174 HD
HETATM   19  H3  UNL     1      20.862  -0.477  53.239  1.00  0.00     0.189 HD
ENDROOT
BRANCH  14  20
HETATM   20  C10 UNL     1      26.458   2.929  49.501  1.00  0.00     0.168 C 
BRANCH  20  21
HETATM   21  C11 UNL     1      26.590   4.393  49.290  1.00  0.00    -0.039 A 
HETATM   22  C12 UNL     1      25.651   5.301  49.734  1.00  0.00     0.010 A 
HETATM   23  C13 UNL     1      25.870   6.655  49.484  1.00  0.00     0.013 A 
HETATM   24  C14 UNL     1      27.003   7.068  48.806  1.00  0.00    -0.026 A 
HETATM   25  C15 UNL     1      27.183   8.420  48.579  1.00  0.00     0.012 A 
HETATM   26  C19 UNL     1      27.936   6.134  48.368  1.00  0.00    -0.025 A 
HETATM   27  C16 UNL     1      28.311   8.855  47.902  1.00  0.00     0.001 A 
HETATM   28  C17 UNL     1      29.263   7.942  47.451  1.00  0.00     0.001 A 
HETATM   29  C18 UNL     1      29.071   6.578  47.687  1.00  0.00     0.012 A 
HETATM   30  C20 UNL     1      27.735   4.789  48.607  1.00  0.00     0.021 A 
ENDBRANCH  20  21
ENDBRANCH  14  20
TORSDOF 2
ENDMDL
MODEL 8
REMARK VINA RESULT:      -9.5      3.438      5.707
REMARK  2 active torsions:
REMARK  status: ('A' for Active; 'I' for Inactive)
REMARK       I    between atoms: N1_1  and  C1_2 
REMARK    1  A    between atoms: N4_14  and  C10_15 
REMARK    2  A    between atoms: C10_15  and  C11_16 
ROOT
HETATM    1  N1  UNL     1      27.216   4.714  49.133  1.00  0.00    -0.230 N 
HETATM    2  C1  UNL     1      25.987   5.385  49.431  1.00  0.00     0.738 C 
HETATM    3  N2  UNL     1      26.445   6.388  48.776  1.00  0.00     0.018 NA
HETATM    4  N3  UNL     1      25.635   7.553  48.659  1.00  0.00    -0.266 N 
HETATM    5  C2  UNL     1      24.323   7.746  49.276  1.00  0.00     0.033 C 
HETATM    6  C3  UNL     1      24.592   7.018  50.379  1.00  0.00     0.036 C 
HETATM    7  C4  UNL     1      23.308   6.325  50.728  1.00  0.00    -0.027 C 
HETATM    8  C5  UNL     1      22.385   6.718  49.849  1.00  0.00     0.002 C 
HETATM    9 BR1  UNL     1      21.046   5.394  49.495  1.00  0.00    -0.055 Br
HETATM   10  C6  UNL     1      22.919   8.136  49.562  1.00  0.00     0.105 C 
HETATM   11  C7  UNL     1      23.741   5.458  51.803  1.00  0.00     0.114 A 
HETATM   12  C8  UNL     1      22.881   4.691  52.637  1.00  0.00     0.007 A 
HETATM   13  C9  UNL     1      23.133   3.382  52.562  1.00  0.00     0.090 A 
HETATM   14  N4  UNL     1      24.195   3.068  51.635  1.00  0.00    -0.340 N 
HETATM   15  C21 UNL     1      24.571   4.334  51.107  1.00  0.00     0.138 A 
HETATM   16  N5  UNL     1      25.433   4.341  50.149  1.00  0.00    -0.047 NA
HETATM   17  H1  UNL     1      27.863   4.136  48.550  1.00  0.00     0.174 HD
HETATM   18  H2  UNL     1      28.124   4.244  48.957  1.00  0.00     0.174 HD
HETATM   19  H3  UNL     1      25.598   8.491  48.231  1.00  0.00     0.189 HD
ENDROOT
BRANCH  14  20
HETATM   20  C10 UNL     1      24.636   1.729  51.429  1.00  0.00     0.168 C 
BRANCH  20  21
HETATM   21  C11 UNL     1      25.944   1.403  52.056  1.00  0.00    -0.039 A 
HETATM   22  C12 UNL     1      26.792   2.368  52.560  1.00  0.00     0.010 A 
HETATM   23  C13 UNL     1      27.997   1.957  53.128  1.00  0.00     0.013 A 
HETATM   24  C14 UNL     1      28.325   0.614  53.179  1.00  0.00    -0.026 A 
HETATM   25  C15 UNL     1      29.530   0.248  53.752  1.00  0.00     0.012 A 
HETATM   26  C19 UNL     1      27.454  -0.340  52.664  1.00  0.00    -0.025 A 
HETATM   27  C16 UNL     1      29.879  -1.092  53.813  1.00  0.00     0.001 A 
HETATM   28  C17 UNL     1      29.026  -2.069  53.304  1.00  0.00     0.001 A 
HETATM   29  C18 UNL     1      27.810  -1.688  52.729  1.00  0.00     0.012 A 
HETATM   30  C20 UNL     1      26.257   0.049  52.098  1.00  0.00     0.021 A 
ENDBRANCH  20  21
ENDBRANCH  14  20
TORSDOF 2
ENDMDL
MODEL 9
REMARK VINA RESULT:      -9.2      4.149      5.977
REMARK  2 active torsions:
REMARK  status: ('A' for Active; 'I' for Inactive)
REMARK       I    between atoms: N1_1  and  C1_2 
REMARK    1  A    between atoms: N4_14  and  C10_15 
REMARK    2  A    between atoms: C10_15  and  C11_16 
ROOT
HETATM    1  N1  UNL     1      20.965   1.604  48.687  1.00  0.00    -0.230 N 
HETATM    2  C1  UNL     1      21.176   1.355  50.080  1.00  0.00     0.738 C 
HETATM    3  N2  UNL     1      19.978   0.900  50.120  1.00  0.00     0.018 NA
HETATM    4  N3  UNL     1      19.471   0.420  51.361  1.00  0.00    -0.266 N 
HETATM    5  C2  UNL     1      20.180   0.448  52.640  1.00  0.00     0.033 C 
HETATM    6  C3  UNL     1      20.846   1.594  52.391  1.00  0.00     0.036 C 
HETATM    7  C4  UNL     1      22.193   1.424  53.031  1.00  0.00    -0.027 C 
HETATM    8  C5  UNL     1      22.208   0.234  53.631  1.00  0.00     0.002 C 
HETATM    9 BR1  UNL     1      23.943  -0.576  53.690  1.00  0.00    -0.055 Br
HETATM   10  C6  UNL     1      20.711   0.129  53.989  1.00  0.00     0.105 C 
HETATM   11  C7  UNL     1      22.873   2.617  52.571  1.00  0.00     0.114 A 
HETATM   12  C8  UNL     1      24.144   3.063  53.026  1.00  0.00     0.007 A 
HETATM   13  C9  UNL     1      25.038   3.149  52.038  1.00  0.00     0.090 A 
HETATM   14  N4  UNL     1      24.501   2.742  50.760  1.00  0.00    -0.340 N 
HETATM   15  C21 UNL     1      23.164   2.359  51.060  1.00  0.00     0.138 A 
HETATM   16  N5  UNL     1      22.475   1.831  50.108  1.00  0.00    -0.047 NA
HETATM   17  H1  UNL     1      20.944   1.354  47.672  1.00  0.00     0.174 HD
HETATM   18  H2  UNL     1      20.798   1.827  47.687  1.00  0.00     0.174 HD
HETATM   19  H3  UNL     1      18.650  -0.023  51.798  1.00  0.00     0.189 HD
ENDROOT
BRANCH  14  20
HETATM   20  C10 UNL     1      25.285   2.785  49.571  1.00  0.00     0.168 C 
BRANCH  20  21
HETATM   21  C11 UNL     1      25.722   4.146  49.165  1.00  0.00    -0.039 A 
HETATM   22  C12 UNL     1      24.846   5.204  49.034  1.00  0.00     0.010 A 
HETATM   23  C13 UNL     1      25.358   6.442  48.648  1.00  0.00     0.013 A 
HETATM   24  C14 UNL     1      26.710   6.595  48.403  1.00  0.00    -0.026 A 
HETATM   25  C15 UNL     1      27.177   7.840  48.021  1.00  0.00     0.012 A 
HETATM   26  C19 UNL     1      27.574   5.514  48.541  1.00  0.00    -0.025 A 
HETATM   27  C16 UNL     1      28.529   8.016  47.772  1.00  0.00     0.001 A 
HETATM   28  C17 UNL     1      29.418   6.950  47.902  1.00  0.00     0.001 A 
HETATM   29  C18 UNL     1      28.935   5.696  48.288  1.00  0.00     0.012 A 
HETATM   30  C20 UNL     1      27.085   4.281  48.923  1.00  0.00     0.021 A 
ENDBRANCH  20  21
ENDBRANCH  14  20
TORSDOF 2
ENDMDL
