MODEL 1
REMARK VINA RESULT:      -7.5      0.000      0.000
REMARK  6 active torsions:
REMARK  status: ('A' for Active; 'I' for Inactive)
REMARK    1  A    between atoms: C2_2  and  C3_3 
REMARK    2  A    between atoms: C7_8  and  C8_9 
REMARK    3  A    between atoms: C9_10  and  O1_11 
REMARK    4  A    between atoms: O1_11  and  C10_12 
REMARK    5  A    between atoms: C10_12  and  C12_14 
REMARK    6  A    between atoms: C12_14  and  C13_16 
ROOT
HETATM    1  O1  UNL     1      24.598   3.142  51.864  1.00  0.00    -0.355 OA
ENDROOT
BRANCH   1   2
HETATM    2  C9  UNL     1      25.590   2.576  51.092  1.00  0.00     0.150 C 
HETATM    3  C8  UNL     1      26.673   1.940  51.544  1.00  0.00     0.030 C 
BRANCH   3   4
HETATM    4  C7  UNL     1      27.481   1.486  52.505  1.00  0.00     0.079 A 
HETATM    5  C3  UNL     1      27.423   0.151  52.817  1.00  0.00    -0.011 A 
HETATM    6  C4  UNL     1      28.300  -0.251  53.831  1.00  0.00     0.015 A 
HETATM    7  C5  UNL     1      29.129   0.707  54.417  1.00  0.00     0.020 A 
HETATM    8  C6  UNL     1      29.151   2.045  54.067  1.00  0.00     0.117 A 
HETATM    9  N1  UNL     1      28.290   2.390  53.086  1.00  0.00    -0.259 NA
BRANCH   5  10
HETATM   10  C2  UNL     1      26.612  -0.709  52.223  1.00  0.00    -0.017 C 
HETATM   11  C1  UNL     1      26.905  -2.157  52.368  1.00  0.00     0.037 C 
ENDBRANCH   5  10
ENDBRANCH   3   4
ENDBRANCH   1   2
BRANCH   1  12
HETATM   12  C10 UNL     1      23.414   2.585  52.309  1.00  0.00     0.145 C 
HETATM   13  C11 UNL     1      22.247   3.542  52.069  1.00  0.00     0.042 C 
BRANCH  12  14
HETATM   14  C12 UNL     1      23.118   1.359  51.478  1.00  0.00     0.135 C 
HETATM   15 CL1  UNL     1      22.590   1.897  49.867  1.00  0.00    -0.118 Cl
BRANCH  14  16
HETATM   16  C13 UNL     1      22.083   0.484  52.079  1.00  0.00     0.012 C 
HETATM   17  C14 UNL     1      22.154  -0.312  53.103  1.00  0.00     0.027 A 
HETATM   18  C15 UNL     1      21.910  -1.265  54.174  1.00  0.00     0.150 A 
HETATM   19  C16 UNL     1      23.137  -0.750  54.110  1.00  0.00     0.086 A 
HETATM   20  F1  UNL     1      20.863  -2.025  54.628  1.00  0.00    -0.203 F 
HETATM   21 CL2  UNL     1      24.638  -0.894  54.997  1.00  0.00    -0.080 Cl
ENDBRANCH  14  16
ENDBRANCH  12  14
ENDBRANCH   1  12
TORSDOF 6
ENDMDL
MODEL 2
REMARK VINA RESULT:      -7.3      3.489      5.325
REMARK  6 active torsions:
REMARK  status: ('A' for Active; 'I' for Inactive)
REMARK    1  A    between atoms: C2_2  and  C3_3 
REMARK    2  A    between atoms: C7_8  and  C8_9 
REMARK    3  A    between atoms: C9_10  and  O1_11 
REMARK    4  A    between atoms: O1_11  and  C10_12 
REMARK    5  A    between atoms: C10_12  and  C12_14 
REMARK    6  A    between atoms: C12_14  and  C13_16 
ROOT
HETATM    1  O1  UNL     1      24.624   1.100  52.070  1.00  0.00    -0.355 OA
ENDROOT
BRANCH   1   2
HETATM    2  C9  UNL     1      24.606   0.012  52.916  1.00  0.00     0.150 C 
HETATM    3  C8  UNL     1      25.667  -0.695  53.313  1.00  0.00     0.030 C 
BRANCH   3   4
HETATM    4  C7  UNL     1      26.968  -0.994  53.329  1.00  0.00     0.079 A 
HETATM    5  C3  UNL     1      27.850  -0.012  53.706  1.00  0.00    -0.011 A 
HETATM    6  C4  UNL     1      29.195  -0.401  53.701  1.00  0.00     0.015 A 
HETATM    7  C5  UNL     1      29.512  -1.707  53.326  1.00  0.00     0.020 A 
HETATM    8  C6  UNL     1      28.584  -2.664  52.954  1.00  0.00     0.117 A 
HETATM    9  N1  UNL     1      27.300  -2.248  52.972  1.00  0.00    -0.259 NA
BRANCH   5  10
HETATM   10  C2  UNL     1      27.486   1.211  54.051  1.00  0.00    -0.017 C 
HETATM   11  C1  UNL     1      28.199   2.354  53.427  1.00  0.00     0.037 C 
ENDBRANCH   5  10
ENDBRANCH   3   4
ENDBRANCH   1   2
BRANCH   1  12
HETATM   12  C10 UNL     1      23.908   2.279  52.150  1.00  0.00     0.145 C 
HETATM   13  C11 UNL     1      24.480   3.182  53.243  1.00  0.00     0.042 C 
BRANCH  12  14
HETATM   14  C12 UNL     1      24.084   3.037  50.856  1.00  0.00     0.135 C 
HETATM   15 CL1  UNL     1      23.045   2.280  49.627  1.00  0.00    -0.118 Cl
BRANCH  14  16
HETATM   16  C13 UNL     1      25.488   3.059  50.380  1.00  0.00     0.012 C 
HETATM   17  C14 UNL     1      26.110   3.940  49.655  1.00  0.00     0.027 A 
HETATM   18  C15 UNL     1      27.067   4.716  48.883  1.00  0.00     0.150 A 
HETATM   19  C16 UNL     1      25.841   5.225  48.986  1.00  0.00     0.086 A 
HETATM   20  F1  UNL     1      28.384   4.612  48.512  1.00  0.00    -0.203 F 
HETATM   21 CL2  UNL     1      24.990   6.648  48.426  1.00  0.00    -0.080 Cl
ENDBRANCH  14  16
ENDBRANCH  12  14
ENDBRANCH   1  12
TORSDOF 6
ENDMDL
MODEL 3
REMARK VINA RESULT:      -7.1      3.534      5.323
REMARK  6 active torsions:
REMARK  status: ('A' for Active; 'I' for Inactive)
REMARK    1  A    between atoms: C2_2  and  C3_3 
REMARK    2  A    between atoms: C7_8  and  C8_9 
REMARK    3  A    between atoms: C9_10  and  O1_11 
REMARK    4  A    between atoms: O1_11  and  C10_12 
REMARK    5  A    between atoms: C10_12  and  C12_14 
REMARK    6  A    between atoms: C12_14  and  C13_16 
ROOT
HETATM    1  O1  UNL     1      27.064   2.613  51.279  1.00  0.00    -0.355 OA
ENDROOT
BRANCH   1   2
HETATM    2  C9  UNL     1      26.396   2.872  50.102  1.00  0.00     0.150 C 
HETATM    3  C8  UNL     1      26.669   3.855  49.241  1.00  0.00     0.030 C 
BRANCH   3   4
HETATM    4  C7  UNL     1      27.340   4.933  48.829  1.00  0.00     0.079 A 
HETATM    5  C3  UNL     1      26.669   6.128  48.775  1.00  0.00    -0.011 A 
HETATM    6  C4  UNL     1      27.439   7.212  48.338  1.00  0.00     0.015 A 
HETATM    7  C5  UNL     1      28.776   6.992  48.004  1.00  0.00     0.020 A 
HETATM    8  C6  UNL     1      29.410   5.764  48.075  1.00  0.00     0.117 A 
HETATM    9  N1  UNL     1      28.632   4.746  48.501  1.00  0.00    -0.259 NA
BRANCH   5  10
HETATM   10  C2  UNL     1      25.397   6.273  49.106  1.00  0.00    -0.017 C 
HETATM   11  C1  UNL     1      25.081   6.943  50.393  1.00  0.00     0.037 C 
ENDBRANCH   5  10
ENDBRANCH   3   4
ENDBRANCH   1   2
BRANCH   1  12
HETATM   12  C10 UNL     1      26.811   1.643  52.230  1.00  0.00     0.145 C 
HETATM   13  C11 UNL     1      27.364   2.068  53.591  1.00  0.00     0.042 C 
BRANCH  12  14
HETATM   14  C12 UNL     1      25.317   1.526  52.413  1.00  0.00     0.135 C 
HETATM   15 CL1  UNL     1      24.750   2.972  53.279  1.00  0.00    -0.118 Cl
BRANCH  14  16
HETATM   16  C13 UNL     1      24.913   0.307  53.154  1.00  0.00     0.012 C 
HETATM   17  C14 UNL     1      23.736  -0.085  53.537  1.00  0.00     0.027 A 
HETATM   18  C15 UNL     1      22.589  -0.789  54.089  1.00  0.00     0.150 A 
HETATM   19  C16 UNL     1      22.334   0.365  53.475  1.00  0.00     0.086 A 
HETATM   20  F1  UNL     1      22.355  -1.953  54.776  1.00  0.00    -0.203 F 
HETATM   21 CL2  UNL     1      20.930   1.346  53.116  1.00  0.00    -0.080 Cl
ENDBRANCH  14  16
ENDBRANCH  12  14
ENDBRANCH   1  12
TORSDOF 6
ENDMDL
MODEL 4
REMARK VINA RESULT:      -7.0      4.147      6.324
REMARK  6 active torsions:
REMARK  status: ('A' for Active; 'I' for Inactive)
REMARK    1  A    between atoms: C2_2  and  C3_3 
REMARK    2  A    between atoms: C7_8  and  C8_9 
REMARK    3  A    between atoms: C9_10  and  O1_11 
REMARK    4  A    between atoms: O1_11  and  C10_12 
REMARK    5  A    between atoms: C10_12  and  C12_14 
REMARK    6  A    between atoms: C12_14  and  C13_16 
ROOT
HETATM    1  O1  UNL     1      25.736   2.550  51.233  1.00  0.00    -0.355 OA
ENDROOT
BRANCH   1   2
HETATM    2  C9  UNL     1      26.656   2.721  50.220  1.00  0.00     0.150 C 
HETATM    3  C8  UNL     1      26.765   3.789  49.427  1.00  0.00     0.030 C 
BRANCH   3   4
HETATM    4  C7  UNL     1      26.393   4.991  48.980  1.00  0.00     0.079 A 
HETATM    5  C3  UNL     1      27.366   5.820  48.481  1.00  0.00    -0.011 A 
HETATM    6  C4  UNL     1      26.900   7.061  48.029  1.00  0.00     0.015 A 
HETATM    7  C5  UNL     1      25.535   7.337  48.121  1.00  0.00     0.020 A 
HETATM    8  C6  UNL     1      24.591   6.465  48.632  1.00  0.00     0.117 A 
HETATM    9  N1  UNL     1      25.082   5.281  49.057  1.00  0.00    -0.259 NA
BRANCH   5  10
HETATM   10  C2  UNL     1      28.647   5.500  48.421  1.00  0.00    -0.017 C 
HETATM   11  C1  UNL     1      29.563   6.416  47.695  1.00  0.00     0.037 C 
ENDBRANCH   5  10
ENDBRANCH   3   4
ENDBRANCH   1   2
BRANCH   1  12
HETATM   12  C10 UNL     1      25.890   1.924  52.455  1.00  0.00     0.145 C 
HETATM   13  C11 UNL     1      24.935   2.523  53.488  1.00  0.00     0.042 C 
BRANCH  12  14
HETATM   14  C12 UNL     1      25.483   0.477  52.308  1.00  0.00     0.135 C 
HETATM   15 CL1  UNL     1      24.147   0.162  53.440  1.00  0.00    -0.118 Cl
BRANCH  14  16
HETATM   16  C13 UNL     1      26.594  -0.470  52.568  1.00  0.00     0.012 C 
HETATM   17  C14 UNL     1      27.787  -0.250  53.032  1.00  0.00     0.027 A 
HETATM   18  C15 UNL     1      29.156  -0.339  53.515  1.00  0.00     0.150 A 
HETATM   19  C16 UNL     1      28.612   0.877  53.500  1.00  0.00     0.086 A 
HETATM   20  F1  UNL     1      30.095  -1.320  53.708  1.00  0.00    -0.203 F 
HETATM   21 CL2  UNL     1      29.097   2.505  53.920  1.00  0.00    -0.080 Cl
ENDBRANCH  14  16
ENDBRANCH  12  14
ENDBRANCH   1  12
TORSDOF 6
ENDMDL
MODEL 5
REMARK VINA RESULT:      -6.8      4.468      6.168
REMARK  6 active torsions:
REMARK  status: ('A' for Active; 'I' for Inactive)
REMARK    1  A    between atoms: C2_2  and  C3_3 
REMARK    2  A    between atoms: C7_8  and  C8_9 
REMARK    3  A    between atoms: C9_10  and  O1_11 
REMARK    4  A    between atoms: O1_11  and  C10_12 
REMARK    5  A    between atoms: C10_12  and  C12_14 
REMARK    6  A    between atoms: C12_14  and  C13_16 
ROOT
HETATM    1  O1  UNL     1      25.370   3.702  51.045  1.00  0.00    -0.355 OA
ENDROOT
BRANCH   1   2
HETATM    2  C9  UNL     1      25.550   2.345  50.885  1.00  0.00     0.150 C 
HETATM    3  C8  UNL     1      26.346   1.564  51.619  1.00  0.00     0.030 C 
BRANCH   3   4
HETATM    4  C7  UNL     1      27.242   1.336  52.582  1.00  0.00     0.079 A 
HETATM    5  C3  UNL     1      27.233   0.107  53.191  1.00  0.00    -0.011 A 
HETATM    6  C4  UNL     1      28.202  -0.059  54.188  1.00  0.00     0.015 A 
HETATM    7  C5  UNL     1      29.064   1.003  54.466  1.00  0.00     0.020 A 
HETATM    8  C6  UNL     1      29.034   2.227  53.822  1.00  0.00     0.117 A 
HETATM    9  N1  UNL     1      28.085   2.345  52.869  1.00  0.00    -0.259 NA
BRANCH   5  10
HETATM   10  C2  UNL     1      26.388  -0.862  52.882  1.00  0.00    -0.017 C 
HETATM   11  C1  UNL     1      26.948  -2.146  52.390  1.00  0.00     0.037 C 
ENDBRANCH   5  10
ENDBRANCH   3   4
ENDBRANCH   1   2
BRANCH   1  12
HETATM   12  C10 UNL     1      24.706   4.596  50.228  1.00  0.00     0.145 C 
HETATM   13  C11 UNL     1      23.785   5.496  51.052  1.00  0.00     0.042 C 
BRANCH  12  14
HETATM   14  C12 UNL     1      25.723   5.517  49.597  1.00  0.00     0.135 C 
HETATM   15 CL1  UNL     1      24.904   6.464  48.334  1.00  0.00    -0.118 Cl
BRANCH  14  16
HETATM   16  C13 UNL     1      26.879   4.796  49.012  1.00  0.00     0.012 C 
HETATM   17  C14 UNL     1      28.013   5.253  48.574  1.00  0.00     0.027 A 
HETATM   18  C15 UNL     1      29.345   5.439  48.019  1.00  0.00     0.150 A 
HETATM   19  C16 UNL     1      28.714   6.540  48.421  1.00  0.00     0.086 A 
HETATM   20  F1  UNL     1      30.338   4.650  47.497  1.00  0.00    -0.203 F 
HETATM   21 CL2  UNL     1      29.041   8.258  48.481  1.00  0.00    -0.080 Cl
ENDBRANCH  14  16
ENDBRANCH  12  14
ENDBRANCH   1  12
TORSDOF 6
ENDMDL
MODEL 6
REMARK VINA RESULT:      -6.8      4.028      5.875
REMARK  6 active torsions:
REMARK  status: ('A' for Active; 'I' for Inactive)
REMARK    1  A    between atoms: C2_2  and  C3_3 
REMARK    2  A    between atoms: C7_8  and  C8_9 
REMARK    3  A    between atoms: C9_10  and  O1_11 
REMARK    4  A    between atoms: O1_11  and  C10_12 
REMARK    5  A    between atoms: C10_12  and  C12_14 
REMARK    6  A    between atoms: C12_14  and  C13_16 
ROOT
HETATM    1  O1  UNL     1      23.444   3.232  51.472  1.00  0.00    -0.355 OA
ENDROOT
BRANCH   1   2
HETATM    2  C9  UNL     1      23.924   3.476  52.740  1.00  0.00     0.150 C 
HETATM    3  C8  UNL     1      24.833   2.748  53.392  1.00  0.00     0.030 C 
BRANCH   3   4
HETATM    4  C7  UNL     1      25.670   1.716  53.524  1.00  0.00     0.079 A 
HETATM    5  C3  UNL     1      25.177   0.456  53.294  1.00  0.00    -0.011 A 
HETATM    6  C4  UNL     1      26.113  -0.574  53.448  1.00  0.00     0.015 A 
HETATM    7  C5  UNL     1      27.420  -0.243  53.808  1.00  0.00     0.020 A 
HETATM    8  C6  UNL     1      27.869   1.047  54.029  1.00  0.00     0.117 A 
HETATM    9  N1  UNL     1      26.936   2.009  53.871  1.00  0.00    -0.259 NA
BRANCH   5  10
HETATM   10  C2  UNL     1      23.924   0.206  52.954  1.00  0.00    -0.017 C 
HETATM   11  C1  UNL     1      23.073  -0.537  53.918  1.00  0.00     0.037 C 
ENDBRANCH   5  10
ENDBRANCH   3   4
ENDBRANCH   1   2
BRANCH   1  12
HETATM   12  C10 UNL     1      24.144   2.988  50.306  1.00  0.00     0.145 C 
HETATM   13  C11 UNL     1      23.182   2.771  49.137  1.00  0.00     0.042 C 
BRANCH  12  14
HETATM   14  C12 UNL     1      24.943   4.221  49.958  1.00  0.00     0.135 C 
HETATM   15 CL1  UNL     1      24.054   5.121  48.707  1.00  0.00    -0.118 Cl
BRANCH  14  16
HETATM   16  C13 UNL     1      26.311   3.913  49.477  1.00  0.00     0.012 C 
HETATM   17  C14 UNL     1      27.195   4.688  48.925  1.00  0.00     0.027 A 
HETATM   18  C15 UNL     1      28.372   5.273  48.302  1.00  0.00     0.150 A 
HETATM   19  C16 UNL     1      27.346   6.095  48.514  1.00  0.00     0.086 A 
HETATM   20  F1  UNL     1      29.615   4.853  47.901  1.00  0.00    -0.203 F 
HETATM   21 CL2  UNL     1      26.977   7.784  48.246  1.00  0.00    -0.080 Cl
ENDBRANCH  14  16
ENDBRANCH  12  14
ENDBRANCH   1  12
TORSDOF 6
ENDMDL
MODEL 7
REMARK VINA RESULT:      -6.8      3.441      6.530
REMARK  6 active torsions:
REMARK  status: ('A' for Active; 'I' for Inactive)
REMARK    1  A    between atoms: C2_2  and  C3_3 
REMARK    2  A    between atoms: C7_8  and  C8_9 
REMARK    3  A    between atoms: C9_10  and  O1_11 
REMARK    4  A    between atoms: O1_11  and  C10_12 
REMARK    5  A    between atoms: C10_12  and  C12_14 
REMARK    6  A    between atoms: C12_14  and  C13_16 
ROOT
HETATM    1  O1  UNL     1      24.097   1.212  51.886  1.00  0.00    -0.355 OA
ENDROOT
BRANCH   1   2
HETATM    2  C9  UNL     1      23.145   2.129  52.279  1.00  0.00     0.150 C 
HETATM    3  C8  UNL     1      21.845   1.887  52.458  1.00  0.00     0.030 C 
BRANCH   3   4
HETATM    4  C7  UNL     1      20.759   1.110  52.444  1.00  0.00     0.079 A 
HETATM    5  C3  UNL     1      20.650   0.140  53.408  1.00  0.00    -0.011 A 
HETATM    6  C4  UNL     1      19.483  -0.631  53.332  1.00  0.00     0.015 A 
HETATM    7  C5  UNL     1      18.565  -0.356  52.318  1.00  0.00     0.020 A 
HETATM    8  C6  UNL     1      18.721   0.637  51.367  1.00  0.00     0.117 A 
HETATM    9  N1  UNL     1      19.858   1.356  51.476  1.00  0.00    -0.259 NA
BRANCH   5  10
HETATM   10  C2  UNL     1      21.558  -0.072  54.346  1.00  0.00    -0.017 C 
HETATM   11  C1  UNL     1      21.837  -1.475  54.742  1.00  0.00     0.037 C 
ENDBRANCH   5  10
ENDBRANCH   3   4
ENDBRANCH   1   2
BRANCH   1  12
HETATM   12  C10 UNL     1      25.331   0.940  52.445  1.00  0.00     0.145 C 
HETATM   13  C11 UNL     1      25.641   1.932  53.567  1.00  0.00     0.042 C 
BRANCH  12  14
HETATM   14  C12 UNL     1      25.272  -0.418  53.102  1.00  0.00     0.135 C 
HETATM   15 CL1  UNL     1      25.196  -0.179  54.863  1.00  0.00    -0.118 Cl
BRANCH  14  16
HETATM   16  C13 UNL     1      26.429  -1.281  52.763  1.00  0.00     0.012 C 
HETATM   17  C14 UNL     1      27.684  -1.154  53.074  1.00  0.00     0.027 A 
HETATM   18  C15 UNL     1      29.121  -1.299  53.245  1.00  0.00     0.150 A 
HETATM   19  C16 UNL     1      28.561  -0.236  53.821  1.00  0.00     0.086 A 
HETATM   20  F1  UNL     1      30.098  -2.181  52.861  1.00  0.00    -0.203 F 
HETATM   21 CL2  UNL     1      29.085   1.125  54.787  1.00  0.00    -0.080 Cl
ENDBRANCH  14  16
ENDBRANCH  12  14
ENDBRANCH   1  12
TORSDOF 6
ENDMDL
MODEL 8
REMARK VINA RESULT:      -6.8      4.004      7.331
REMARK  6 active torsions:
REMARK  status: ('A' for Active; 'I' for Inactive)
REMARK    1  A    between atoms: C2_2  and  C3_3 
REMARK    2  A    between atoms: C7_8  and  C8_9 
REMARK    3  A    between atoms: C9_10  and  O1_11 
REMARK    4  A    between atoms: O1_11  and  C10_12 
REMARK    5  A    between atoms: C10_12  and  C12_14 
REMARK    6  A    between atoms: C12_14  and  C13_16 
ROOT
HETATM    1  O1  UNL     1      22.990  -0.808  53.732  1.00  0.00    -0.355 OA
ENDROOT
BRANCH   1   2
HETATM    2  C9  UNL     1      21.980  -0.140  54.389  1.00  0.00     0.150 C 
HETATM    3  C8  UNL     1      20.722   0.000  53.965  1.00  0.00     0.030 C 
BRANCH   3   4
HETATM    4  C7  UNL     1      19.730  -0.163  53.087  1.00  0.00     0.079 A 
HETATM    5  C3  UNL     1      19.847   0.446  51.863  1.00  0.00    -0.011 A 
HETATM    6  C4  UNL     1      18.771   0.227  50.995  1.00  0.00     0.015 A 
HETATM    7  C5  UNL     1      17.708  -0.564  51.434  1.00  0.00     0.020 A 
HETATM    8  C6  UNL     1      17.636  -1.158  52.681  1.00  0.00     0.117 A 
HETATM    9  N1  UNL     1      18.693  -0.921  53.486  1.00  0.00    -0.259 NA
BRANCH   5  10
HETATM   10  C2  UNL     1      20.884   1.186  51.505  1.00  0.00    -0.017 C 
HETATM   11  C1  UNL     1      21.574   0.852  50.233  1.00  0.00     0.037 C 
ENDBRANCH   5  10
ENDBRANCH   3   4
ENDBRANCH   1   2
BRANCH   1  12
HETATM   12  C10 UNL     1      24.169  -0.312  53.209  1.00  0.00     0.145 C 
HETATM   13  C11 UNL     1      24.142   1.217  53.179  1.00  0.00     0.042 C 
BRANCH  12  14
HETATM   14  C12 UNL     1      25.301  -0.685  54.136  1.00  0.00     0.135 C 
HETATM   15 CL1  UNL     1      24.596  -1.309  55.645  1.00  0.00    -0.118 Cl
BRANCH  14  16
HETATM   16  C13 UNL     1      26.207   0.449  54.437  1.00  0.00     0.012 C 
HETATM   17  C14 UNL     1      27.502   0.525  54.365  1.00  0.00     0.027 A 
HETATM   18  C15 UNL     1      28.899   0.928  54.390  1.00  0.00     0.150 A 
HETATM   19  C16 UNL     1      28.651  -0.322  54.003  1.00  0.00     0.086 A 
HETATM   20  F1  UNL     1      29.619   2.053  54.702  1.00  0.00    -0.203 F 
HETATM   21 CL2  UNL     1      29.577  -1.713  53.482  1.00  0.00    -0.080 Cl
ENDBRANCH  14  16
ENDBRANCH  12  14
ENDBRANCH   1  12
TORSDOF 6
ENDMDL
MODEL 9
REMARK VINA RESULT:      -6.7      3.964      5.903
REMARK  6 active torsions:
REMARK  status: ('A' for Active; 'I' for Inactive)
REMARK    1  A    between atoms: C2_2  and  C3_3 
REMARK    2  A    between atoms: C7_8  and  C8_9 
REMARK    3  A    between atoms: C9_10  and  O1_11 
REMARK    4  A    between atoms: O1_11  and  C10_12 
REMARK    5  A    between atoms: C10_12  and  C12_14 
REMARK    6  A    between atoms: C12_14  and  C13_16 
ROOT
HETATM    1  O1  UNL     1      23.291   3.495  51.807  1.00  0.00    -0.355 OA
ENDROOT
BRANCH   1   2
HETATM    2  C9  UNL     1      24.116   3.506  52.911  1.00  0.00     0.150 C 
HETATM    3  C8  UNL     1      24.936   2.524  53.292  1.00  0.00     0.030 C 
BRANCH   3   4
HETATM    4  C7  UNL     1      25.480   1.309  53.184  1.00  0.00     0.079 A 
HETATM    5  C3  UNL     1      26.817   1.227  52.888  1.00  0.00    -0.011 A 
HETATM    6  C4  UNL     1      27.316  -0.078  52.794  1.00  0.00     0.015 A 
HETATM    7  C5  UNL     1      26.441  -1.145  53.003  1.00  0.00     0.020 A 
HETATM    8  C6  UNL     1      25.097  -1.010  53.300  1.00  0.00     0.117 A 
HETATM    9  N1  UNL     1      24.657   0.263  53.381  1.00  0.00    -0.259 NA
BRANCH   5  10
HETATM   10  C2  UNL     1      27.596   2.279  52.701  1.00  0.00    -0.017 C 
HETATM   11  C1  UNL     1      28.709   2.502  53.657  1.00  0.00     0.037 C 
ENDBRANCH   5  10
ENDBRANCH   3   4
ENDBRANCH   1   2
BRANCH   1  12
HETATM   12  C10 UNL     1      23.593   3.182  50.495  1.00  0.00     0.145 C 
HETATM   13  C11 UNL     1      22.315   3.060  49.665  1.00  0.00     0.042 C 
BRANCH  12  14
HETATM   14  C12 UNL     1      24.367   4.331  49.893  1.00  0.00     0.135 C 
HETATM   15 CL1  UNL     1      23.499   4.880  48.441  1.00  0.00    -0.118 Cl
BRANCH  14  16
HETATM   16  C13 UNL     1      25.761   3.973  49.539  1.00  0.00     0.012 C 
HETATM   17  C14 UNL     1      26.698   4.696  49.003  1.00  0.00     0.027 A 
HETATM   18  C15 UNL     1      27.928   5.221  48.431  1.00  0.00     0.150 A 
HETATM   19  C16 UNL     1      26.903   6.069  48.510  1.00  0.00     0.086 A 
HETATM   20  F1  UNL     1      29.189   4.758  48.154  1.00  0.00    -0.203 F 
HETATM   21 CL2  UNL     1      26.586   7.740  48.099  1.00  0.00    -0.080 Cl
ENDBRANCH  14  16
ENDBRANCH  12  14
ENDBRANCH   1  12
TORSDOF 6
ENDMDL
