MODEL 1
REMARK VINA RESULT:      -9.0      0.000      0.000
REMARK  4 active torsions:
REMARK  status: ('A' for Active; 'I' for Inactive)
REMARK    1  A    between atoms: C7_7  and  C8_8 
REMARK    2  A    between atoms: C8_8  and  C9_9 
REMARK    3  A    between atoms: C9_9  and  O1_10 
REMARK    4  A    between atoms: O1_10  and  C10_11 
ROOT
HETATM    1  C10 UNL     1      22.662   1.206  52.807  1.00  0.00     0.143 C 
HETATM    2  C11 UNL     1      22.145   0.432  53.794  1.00  0.00     0.049 C 
HETATM    3  C12 UNL     1      21.510  -0.462  54.765  1.00  0.00     0.151 C 
HETATM    4  N1  UNL     1      20.531  -1.399  54.186  1.00  0.00    -0.389 N 
HETATM    5  C13 UNL     1      19.437  -1.041  53.341  1.00  0.00     0.018 A 
HETATM    6  C14 UNL     1      18.083  -1.275  53.420  1.00  0.00     0.025 A 
HETATM    7  C15 UNL     1      17.162  -0.804  52.515  1.00  0.00     0.003 A 
HETATM    8  C16 UNL     1      17.602  -0.045  51.450  1.00  0.00     0.009 A 
HETATM    9  C17 UNL     1      18.818   0.326  51.132  1.00  0.00    -0.034 A 
HETATM   10  C18 UNL     1      19.580  -0.266  52.185  1.00  0.00     0.104 A 
HETATM   11  C19 UNL     1      20.055   0.699  50.818  1.00  0.00    -0.011 A 
HETATM   12  C20 UNL     1      21.074   1.000  50.579  1.00  0.00     0.048 A 
HETATM   13  C21 UNL     1      22.317   1.360  50.312  1.00  0.00     0.172 A 
HETATM   14  N2  UNL     1      22.425   1.272  51.498  1.00  0.00    -0.316 N 
HETATM   15  H15 UNL     1      20.313  -2.410  54.164  1.00  0.00     0.159 HD
ENDROOT
BRANCH   1  16
HETATM   16  O1  UNL     1      23.575   2.212  52.605  1.00  0.00    -0.335 OA
BRANCH  16  17
HETATM   17  C9  UNL     1      24.816   2.230  53.270  1.00  0.00     0.182 C 
BRANCH  17  18
HETATM   18  C8  UNL     1      26.004   2.057  52.361  1.00  0.00     0.066 C 
BRANCH  18  19
HETATM   19  C7  UNL     1      26.834   0.874  52.679  1.00  0.00    -0.050 A 
HETATM   20  C2  UNL     1      28.062   1.119  53.246  1.00  0.00    -0.056 A 
HETATM   21  C1  UNL     1      28.627   2.441  53.553  1.00  0.00     0.049 C 
HETATM   22  C3  UNL     1      28.835   0.007  53.550  1.00  0.00     0.007 A 
HETATM   23  C4  UNL     1      28.368  -1.267  53.285  1.00  0.00     0.001 A 
HETATM   24  C5  UNL     1      27.115  -1.466  52.707  1.00  0.00     0.001 A 
HETATM   25  C6  UNL     1      26.310  -0.366  52.388  1.00  0.00     0.007 A 
ENDBRANCH  18  19
ENDBRANCH  17  18
ENDBRANCH  16  17
ENDBRANCH   1  16
TORSDOF 4
ENDMDL
MODEL 2
REMARK VINA RESULT:      -9.0      1.245      2.685
REMARK  4 active torsions:
REMARK  status: ('A' for Active; 'I' for Inactive)
REMARK    1  A    between atoms: C7_7  and  C8_8 
REMARK    2  A    between atoms: C8_8  and  C9_9 
REMARK    3  A    between atoms: C9_9  and  O1_10 
REMARK    4  A    between atoms: O1_10  and  C10_11 
ROOT
HETATM    1  C10 UNL     1      22.851   0.203  52.721  1.00  0.00     0.143 C 
HETATM    2  C11 UNL     1      22.544   0.866  51.578  1.00  0.00     0.049 C 
HETATM    3  C12 UNL     1      22.088   1.595  50.393  1.00  0.00     0.151 C 
HETATM    4  N1  UNL     1      20.685   2.045  50.453  1.00  0.00    -0.389 N 
HETATM    5  C13 UNL     1      19.560   1.219  50.753  1.00  0.00     0.018 A 
HETATM    6  C14 UNL     1      18.383   0.968  50.086  1.00  0.00     0.025 A 
HETATM    7  C15 UNL     1      17.419   0.090  50.520  1.00  0.00     0.003 A 
HETATM    8  C16 UNL     1      17.623  -0.595  51.699  1.00  0.00     0.009 A 
HETATM    9  C17 UNL     1      18.639  -0.552  52.528  1.00  0.00    -0.034 A 
HETATM   10  C18 UNL     1      19.487   0.401  51.887  1.00  0.00     0.104 A 
HETATM   11  C19 UNL     1      19.673  -0.502  53.362  1.00  0.00    -0.011 A 
HETATM   12  C20 UNL     1      20.532  -0.453  54.030  1.00  0.00     0.048 A 
HETATM   13  C21 UNL     1      21.585  -0.384  54.824  1.00  0.00     0.172 A 
HETATM   14  N2  UNL     1      22.135  -0.111  53.800  1.00  0.00    -0.316 N 
HETATM   15  H15 UNL     1      20.118   2.903  50.338  1.00  0.00     0.159 HD
ENDROOT
BRANCH   1  16
HETATM   16  O1  UNL     1      23.900  -0.433  53.338  1.00  0.00    -0.335 OA
BRANCH  16  17
HETATM   17  C9  UNL     1      25.076   0.253  53.695  1.00  0.00     0.182 C 
BRANCH  17  18
HETATM   18  C8  UNL     1      26.087   0.360  52.583  1.00  0.00     0.066 C 
BRANCH  18  19
HETATM   19  C7  UNL     1      27.433  -0.136  52.947  1.00  0.00    -0.050 A 
HETATM   20  C2  UNL     1      28.350   0.809  53.343  1.00  0.00    -0.056 A 
HETATM   21  C1  UNL     1      28.119   2.258  53.427  1.00  0.00     0.049 C 
HETATM   22  C3  UNL     1      29.608   0.340  53.692  1.00  0.00     0.007 A 
HETATM   23  C4  UNL     1      29.896  -1.011  53.633  1.00  0.00     0.001 A 
HETATM   24  C5  UNL     1      28.933  -1.933  53.223  1.00  0.00     0.001 A 
HETATM   25  C6  UNL     1      27.654  -1.493  52.865  1.00  0.00     0.007 A 
ENDBRANCH  18  19
ENDBRANCH  17  18
ENDBRANCH  16  17
ENDBRANCH   1  16
TORSDOF 4
ENDMDL
MODEL 3
REMARK VINA RESULT:      -8.9      2.043      4.211
REMARK  4 active torsions:
REMARK  status: ('A' for Active; 'I' for Inactive)
REMARK    1  A    between atoms: C7_7  and  C8_8 
REMARK    2  A    between atoms: C8_8  and  C9_9 
REMARK    3  A    between atoms: C9_9  and  O1_10 
REMARK    4  A    between atoms: O1_10  and  C10_11 
ROOT
HETATM    1  C10 UNL     1      23.662   0.723  53.091  1.00  0.00     0.143 C 
HETATM    2  C11 UNL     1      24.271   1.809  52.554  1.00  0.00     0.049 C 
HETATM    3  C12 UNL     1      24.817   3.003  51.905  1.00  0.00     0.151 C 
HETATM    4  N1  UNL     1      23.877   3.693  51.003  1.00  0.00    -0.389 N 
HETATM    5  C13 UNL     1      23.141   3.080  49.943  1.00  0.00     0.018 A 
HETATM    6  C14 UNL     1      23.038   3.355  48.599  1.00  0.00     0.025 A 
HETATM    7  C15 UNL     1      22.298   2.611  47.711  1.00  0.00     0.003 A 
HETATM    8  C16 UNL     1      21.604   1.514  48.177  1.00  0.00     0.009 A 
HETATM    9  C17 UNL     1      21.523   1.028  49.392  1.00  0.00    -0.034 A 
HETATM   10  C18 UNL     1      22.347   1.941  50.118  1.00  0.00     0.104 A 
HETATM   11  C19 UNL     1      21.447   0.542  50.627  1.00  0.00    -0.011 A 
HETATM   12  C20 UNL     1      21.401   0.154  51.644  1.00  0.00     0.048 A 
HETATM   13  C21 UNL     1      21.365  -0.304  52.883  1.00  0.00     0.172 A 
HETATM   14  N2  UNL     1      22.447   0.199  52.927  1.00  0.00    -0.316 N 
HETATM   15  H15 UNL     1      23.483   4.634  50.831  1.00  0.00     0.159 HD
ENDROOT
BRANCH   1  16
HETATM   16  O1  UNL     1      23.892  -0.307  53.970  1.00  0.00    -0.335 OA
BRANCH  16  17
HETATM   17  C9  UNL     1      25.193  -0.646  54.389  1.00  0.00     0.182 C 
BRANCH  17  18
HETATM   18  C8  UNL     1      26.119  -1.036  53.267  1.00  0.00     0.066 C 
BRANCH  18  19
HETATM   19  C7  UNL     1      27.495  -0.513  53.418  1.00  0.00    -0.050 A 
HETATM   20  C2  UNL     1      28.518  -1.418  53.256  1.00  0.00    -0.056 A 
HETATM   21  C1  UNL     1      28.369  -2.849  52.959  1.00  0.00     0.049 C 
HETATM   22  C3  UNL     1      29.807  -0.923  53.390  1.00  0.00     0.007 A 
HETATM   23  C4  UNL     1      30.022   0.413  53.673  1.00  0.00     0.001 A 
HETATM   24  C5  UNL     1      28.952   1.294  53.831  1.00  0.00     0.001 A 
HETATM   25  C6  UNL     1      27.639   0.827  53.702  1.00  0.00     0.007 A 
ENDBRANCH  18  19
ENDBRANCH  17  18
ENDBRANCH  16  17
ENDBRANCH   1  16
TORSDOF 4
ENDMDL
MODEL 4
REMARK VINA RESULT:      -8.7      3.483      5.202
REMARK  4 active torsions:
REMARK  status: ('A' for Active; 'I' for Inactive)
REMARK    1  A    between atoms: C7_7  and  C8_8 
REMARK    2  A    between atoms: C8_8  and  C9_9 
REMARK    3  A    between atoms: C9_9  and  O1_10 
REMARK    4  A    between atoms: O1_10  and  C10_11 
ROOT
HETATM    1  C10 UNL     1      23.459   3.632  51.974  1.00  0.00     0.143 C 
HETATM    2  C11 UNL     1      24.446   2.809  52.410  1.00  0.00     0.049 C 
HETATM    3  C12 UNL     1      25.423   1.820  52.870  1.00  0.00     0.151 C 
HETATM    4  N1  UNL     1      24.922   0.434  52.903  1.00  0.00    -0.389 N 
HETATM    5  C13 UNL     1      23.724  -0.002  53.545  1.00  0.00     0.018 A 
HETATM    6  C14 UNL     1      23.471  -0.969  54.490  1.00  0.00     0.025 A 
HETATM    7  C15 UNL     1      22.232  -1.219  55.030  1.00  0.00     0.003 A 
HETATM    8  C16 UNL     1      21.157  -0.462  54.612  1.00  0.00     0.009 A 
HETATM    9  C17 UNL     1      21.109   0.512  53.736  1.00  0.00    -0.034 A 
HETATM   10  C18 UNL     1      22.474   0.587  53.320  1.00  0.00     0.104 A 
HETATM   11  C19 UNL     1      21.070   1.499  52.846  1.00  0.00    -0.011 A 
HETATM   12  C20 UNL     1      21.059   2.311  52.119  1.00  0.00     0.048 A 
HETATM   13  C21 UNL     1      21.068   3.296  51.239  1.00  0.00     0.172 A 
HETATM   14  N2  UNL     1      22.193   3.411  51.623  1.00  0.00    -0.316 N 
HETATM   15  H15 UNL     1      25.171  -0.511  52.562  1.00  0.00     0.159 HD
ENDROOT
BRANCH   1  16
HETATM   16  O1  UNL     1      23.218   4.953  51.688  1.00  0.00    -0.335 OA
BRANCH  16  17
HETATM   17  C9  UNL     1      24.130   5.730  50.949  1.00  0.00     0.182 C 
BRANCH  17  18
HETATM   18  C8  UNL     1      24.423   5.191  49.574  1.00  0.00     0.066 C 
BRANCH  18  19
HETATM   19  C7  UNL     1      25.751   5.581  49.049  1.00  0.00    -0.050 A 
HETATM   20  C2  UNL     1      26.726   4.612  49.062  1.00  0.00    -0.056 A 
HETATM   21  C1  UNL     1      26.574   3.237  49.558  1.00  0.00     0.049 C 
HETATM   22  C3  UNL     1      27.967   4.978  48.561  1.00  0.00     0.007 A 
HETATM   23  C4  UNL     1      28.182   6.257  48.082  1.00  0.00     0.001 A 
HETATM   24  C5  UNL     1      27.162   7.207  48.089  1.00  0.00     0.001 A 
HETATM   25  C6  UNL     1      25.898   6.870  48.587  1.00  0.00     0.007 A 
ENDBRANCH  18  19
ENDBRANCH  17  18
ENDBRANCH  16  17
ENDBRANCH   1  16
TORSDOF 4
ENDMDL
MODEL 5
REMARK VINA RESULT:      -8.6      3.914      5.329
REMARK  4 active torsions:
REMARK  status: ('A' for Active; 'I' for Inactive)
REMARK    1  A    between atoms: C7_7  and  C8_8 
REMARK    2  A    between atoms: C8_8  and  C9_9 
REMARK    3  A    between atoms: C9_9  and  O1_10 
REMARK    4  A    between atoms: O1_10  and  C10_11 
ROOT
HETATM    1  C10 UNL     1      24.550   2.481  51.608  1.00  0.00     0.143 C 
HETATM    2  C11 UNL     1      25.096   1.770  52.627  1.00  0.00     0.049 C 
HETATM    3  C12 UNL     1      25.598   0.906  53.698  1.00  0.00     0.151 C 
HETATM    4  N1  UNL     1      24.934  -0.407  53.786  1.00  0.00    -0.389 N 
HETATM    5  C13 UNL     1      23.525  -0.623  53.857  1.00  0.00     0.018 A 
HETATM    6  C14 UNL     1      22.729  -1.301  54.751  1.00  0.00     0.025 A 
HETATM    7  C15 UNL     1      21.358  -1.363  54.676  1.00  0.00     0.003 A 
HETATM    8  C16 UNL     1      20.717  -0.709  53.644  1.00  0.00     0.009 A 
HETATM    9  C17 UNL     1      21.218   0.004  52.664  1.00  0.00    -0.034 A 
HETATM   10  C18 UNL     1      22.617  -0.075  52.943  1.00  0.00     0.104 A 
HETATM   11  C19 UNL     1      21.735   0.725  51.675  1.00  0.00    -0.011 A 
HETATM   12  C20 UNL     1      22.177   1.318  50.874  1.00  0.00     0.048 A 
HETATM   13  C21 UNL     1      22.731   2.038  49.916  1.00  0.00     0.172 A 
HETATM   14  N2  UNL     1      23.563   2.215  50.754  1.00  0.00    -0.316 N 
HETATM   15  H15 UNL     1      25.165  -1.415  53.818  1.00  0.00     0.159 HD
ENDROOT
BRANCH   1  16
HETATM   16  O1  UNL     1      24.666   3.688  50.964  1.00  0.00    -0.335 OA
BRANCH  16  17
HETATM   17  C9  UNL     1      25.811   4.022  50.217  1.00  0.00     0.182 C 
BRANCH  17  18
HETATM   18  C8  UNL     1      25.562   5.031  49.127  1.00  0.00     0.066 C 
BRANCH  18  19
HETATM   19  C7  UNL     1      26.795   5.651  48.592  1.00  0.00    -0.050 A 
HETATM   20  C2  UNL     1      26.674   6.925  48.089  1.00  0.00    -0.056 A 
HETATM   21  C1  UNL     1      25.438   7.718  48.025  1.00  0.00     0.049 C 
HETATM   22  C3  UNL     1      27.833   7.507  47.595  1.00  0.00     0.007 A 
HETATM   23  C4  UNL     1      29.031   6.817  47.620  1.00  0.00     0.001 A 
HETATM   24  C5  UNL     1      29.105   5.525  48.139  1.00  0.00     0.001 A 
HETATM   25  C6  UNL     1      27.954   4.910  48.645  1.00  0.00     0.007 A 
ENDBRANCH  18  19
ENDBRANCH  17  18
ENDBRANCH  16  17
ENDBRANCH   1  16
TORSDOF 4
ENDMDL
MODEL 6
REMARK VINA RESULT:      -8.3      4.442      6.531
REMARK  4 active torsions:
REMARK  status: ('A' for Active; 'I' for Inactive)
REMARK    1  A    between atoms: C7_7  and  C8_8 
REMARK    2  A    between atoms: C8_8  and  C9_9 
REMARK    3  A    between atoms: C9_9  and  O1_10 
REMARK    4  A    between atoms: O1_10  and  C10_11 
ROOT
HETATM    1  C10 UNL     1      25.135   3.027  51.149  1.00  0.00     0.143 C 
HETATM    2  C11 UNL     1      26.026   3.500  50.241  1.00  0.00     0.049 C 
HETATM    3  C12 UNL     1      26.958   4.132  49.304  1.00  0.00     0.151 C 
HETATM    4  N1  UNL     1      27.047   5.599  49.427  1.00  0.00    -0.389 N 
HETATM    5  C13 UNL     1      25.942   6.503  49.413  1.00  0.00     0.018 A 
HETATM    6  C14 UNL     1      25.649   7.607  48.646  1.00  0.00     0.025 A 
HETATM    7  C15 UNL     1      24.492   8.339  48.753  1.00  0.00     0.003 A 
HETATM    8  C16 UNL     1      23.547   7.961  49.684  1.00  0.00     0.009 A 
HETATM    9  C17 UNL     1      23.562   6.965  50.536  1.00  0.00    -0.034 A 
HETATM   10  C18 UNL     1      24.827   6.366  50.249  1.00  0.00     0.104 A 
HETATM   11  C19 UNL     1      23.587   5.952  51.396  1.00  0.00    -0.011 A 
HETATM   12  C20 UNL     1      23.622   5.113  52.090  1.00  0.00     0.048 A 
HETATM   13  C21 UNL     1      23.681   4.086  52.919  1.00  0.00     0.172 A 
HETATM   14  N2  UNL     1      24.363   3.632  52.050  1.00  0.00    -0.316 N 
HETATM   15  H15 UNL     1      27.752   6.346  49.544  1.00  0.00     0.159 HD
ENDROOT
BRANCH   1  16
HETATM   16  O1  UNL     1      24.592   1.850  51.600  1.00  0.00    -0.335 OA
BRANCH  16  17
HETATM   17  C9  UNL     1      25.397   0.764  51.990  1.00  0.00     0.182 C 
BRANCH  17  18
HETATM   18  C8  UNL     1      26.190   1.006  53.248  1.00  0.00     0.066 C 
BRANCH  18  19
HETATM   19  C7  UNL     1      27.472   0.268  53.299  1.00  0.00    -0.050 A 
HETATM   20  C2  UNL     1      28.602   1.015  53.531  1.00  0.00    -0.056 A 
HETATM   21  C1  UNL     1      28.654   2.472  53.720  1.00  0.00     0.049 C 
HETATM   22  C3  UNL     1      29.802   0.320  53.587  1.00  0.00     0.007 A 
HETATM   23  C4  UNL     1      29.827  -1.052  53.414  1.00  0.00     0.001 A 
HETATM   24  C5  UNL     1      28.654  -1.768  53.180  1.00  0.00     0.001 A 
HETATM   25  C6  UNL     1      27.427  -1.097  53.118  1.00  0.00     0.007 A 
ENDBRANCH  18  19
ENDBRANCH  17  18
ENDBRANCH  16  17
ENDBRANCH   1  16
TORSDOF 4
ENDMDL
MODEL 7
REMARK VINA RESULT:      -8.3      4.416      8.147
REMARK  4 active torsions:
REMARK  status: ('A' for Active; 'I' for Inactive)
REMARK    1  A    between atoms: C7_7  and  C8_8 
REMARK    2  A    between atoms: C8_8  and  C9_9 
REMARK    3  A    between atoms: C9_9  and  O1_10 
REMARK    4  A    between atoms: O1_10  and  C10_11 
ROOT
HETATM    1  C10 UNL     1      24.561   4.507  50.793  1.00  0.00     0.143 C 
HETATM    2  C11 UNL     1      24.069   5.659  50.273  1.00  0.00     0.049 C 
HETATM    3  C12 UNL     1      23.621   6.885  49.609  1.00  0.00     0.151 C 
HETATM    4  N1  UNL     1      24.252   7.138  48.301  1.00  0.00    -0.389 N 
HETATM    5  C13 UNL     1      25.656   7.149  48.044  1.00  0.00     0.018 A 
HETATM    6  C14 UNL     1      26.495   8.085  47.484  1.00  0.00     0.025 A 
HETATM    7  C15 UNL     1      27.854   7.931  47.358  1.00  0.00     0.003 A 
HETATM    8  C16 UNL     1      28.438   6.768  47.816  1.00  0.00     0.009 A 
HETATM    9  C17 UNL     1      27.889   5.722  48.385  1.00  0.00    -0.034 A 
HETATM   10  C18 UNL     1      26.512   6.101  48.405  1.00  0.00     0.104 A 
HETATM   11  C19 UNL     1      27.323   4.667  48.961  1.00  0.00    -0.011 A 
HETATM   12  C20 UNL     1      26.843   3.813  49.438  1.00  0.00     0.048 A 
HETATM   13  C21 UNL     1      26.242   2.790  50.019  1.00  0.00     0.172 A 
HETATM   14  N2  UNL     1      25.477   3.642  50.358  1.00  0.00    -0.316 N 
HETATM   15  H15 UNL     1      23.996   7.345  47.320  1.00  0.00     0.159 HD
ENDROOT
BRANCH   1  16
HETATM   16  O1  UNL     1      24.433   3.688  51.888  1.00  0.00    -0.335 OA
BRANCH  16  17
HETATM   17  C9  UNL     1      23.191   3.144  52.265  1.00  0.00     0.182 C 
BRANCH  17  18
HETATM   18  C8  UNL     1      22.977   1.724  51.809  1.00  0.00     0.066 C 
BRANCH  18  19
HETATM   19  C7  UNL     1      22.530   0.811  52.884  1.00  0.00    -0.050 A 
HETATM   20  C2  UNL     1      23.485  -0.017  53.424  1.00  0.00    -0.056 A 
HETATM   21  C1  UNL     1      24.899  -0.085  53.026  1.00  0.00     0.049 C 
HETATM   22  C3  UNL     1      23.066  -0.867  54.438  1.00  0.00     0.007 A 
HETATM   23  C4  UNL     1      21.749  -0.860  54.860  1.00  0.00     0.001 A 
HETATM   24  C5  UNL     1      20.814  -0.002  54.281  1.00  0.00     0.001 A 
HETATM   25  C6  UNL     1      21.205   0.867  53.256  1.00  0.00     0.007 A 
ENDBRANCH  18  19
ENDBRANCH  17  18
ENDBRANCH  16  17
ENDBRANCH   1  16
TORSDOF 4
ENDMDL
MODEL 8
REMARK VINA RESULT:      -8.1      1.592      7.963
REMARK  4 active torsions:
REMARK  status: ('A' for Active; 'I' for Inactive)
REMARK    1  A    between atoms: C7_7  and  C8_8 
REMARK    2  A    between atoms: C8_8  and  C9_9 
REMARK    3  A    between atoms: C9_9  and  O1_10 
REMARK    4  A    between atoms: O1_10  and  C10_11 
ROOT
HETATM    1  C10 UNL     1      23.091   1.657  52.663  1.00  0.00     0.143 C 
HETATM    2  C11 UNL     1      23.994   2.539  52.167  1.00  0.00     0.049 C 
HETATM    3  C12 UNL     1      25.061   3.395  51.644  1.00  0.00     0.151 C 
HETATM    4  N1  UNL     1      26.375   2.736  51.534  1.00  0.00    -0.389 N 
HETATM    5  C13 UNL     1      27.040   2.028  52.580  1.00  0.00     0.018 A 
HETATM    6  C14 UNL     1      28.289   2.151  53.144  1.00  0.00     0.025 A 
HETATM    7  C15 UNL     1      28.744   1.390  54.193  1.00  0.00     0.003 A 
HETATM    8  C16 UNL     1      27.910   0.433  54.733  1.00  0.00     0.009 A 
HETATM    9  C17 UNL     1      26.686   0.103  54.399  1.00  0.00    -0.034 A 
HETATM   10  C18 UNL     1      26.436   1.001  53.316  1.00  0.00     0.104 A 
HETATM   11  C19 UNL     1      25.445  -0.224  54.053  1.00  0.00    -0.011 A 
HETATM   12  C20 UNL     1      24.426  -0.474  53.759  1.00  0.00     0.048 A 
HETATM   13  C21 UNL     1      23.189  -0.757  53.392  1.00  0.00     0.172 A 
HETATM   14  N2  UNL     1      23.196   0.391  53.065  1.00  0.00    -0.316 N 
HETATM   15  H15 UNL     1      27.127   2.570  50.843  1.00  0.00     0.159 HD
ENDROOT
BRANCH   1  16
HETATM   16  O1  UNL     1      21.761   1.560  52.993  1.00  0.00    -0.335 OA
BRANCH  16  17
HETATM   17  C9  UNL     1      20.745   1.869  52.069  1.00  0.00     0.182 C 
BRANCH  17  18
HETATM   18  C8  UNL     1      20.294   0.698  51.236  1.00  0.00     0.066 C 
BRANCH  18  19
HETATM   19  C7  UNL     1      19.131  -0.025  51.797  1.00  0.00    -0.050 A 
HETATM   20  C2  UNL     1      17.951   0.074  51.099  1.00  0.00    -0.056 A 
HETATM   21  C1  UNL     1      17.738   0.836  49.860  1.00  0.00     0.049 C 
HETATM   22  C3  UNL     1      16.864  -0.611  51.623  1.00  0.00     0.007 A 
HETATM   23  C4  UNL     1      16.991  -1.345  52.788  1.00  0.00     0.001 A 
HETATM   24  C5  UNL     1      18.209  -1.415  53.463  1.00  0.00     0.001 A 
HETATM   25  C6  UNL     1      19.325  -0.736  52.961  1.00  0.00     0.007 A 
ENDBRANCH  18  19
ENDBRANCH  17  18
ENDBRANCH  16  17
ENDBRANCH   1  16
TORSDOF 4
ENDMDL
MODEL 9
REMARK VINA RESULT:      -8.0      3.345      5.517
REMARK  4 active torsions:
REMARK  status: ('A' for Active; 'I' for Inactive)
REMARK    1  A    between atoms: C7_7  and  C8_8 
REMARK    2  A    between atoms: C8_8  and  C9_9 
REMARK    3  A    between atoms: C9_9  and  O1_10 
REMARK    4  A    between atoms: O1_10  and  C10_11 
ROOT
HETATM    1  C10 UNL     1      22.831   2.199  51.056  1.00  0.00     0.143 C 
HETATM    2  C11 UNL     1      24.074   1.995  51.561  1.00  0.00     0.049 C 
HETATM    3  C12 UNL     1      25.374   1.653  52.142  1.00  0.00     0.151 C 
HETATM    4  N1  UNL     1      25.464   0.282  52.675  1.00  0.00    -0.389 N 
HETATM    5  C13 UNL     1      24.553  -0.312  53.600  1.00  0.00     0.018 A 
HETATM    6  C14 UNL     1      24.727  -0.917  54.823  1.00  0.00     0.025 A 
HETATM    7  C15 UNL     1      23.702  -1.399  55.602  1.00  0.00     0.003 A 
HETATM    8  C16 UNL     1      22.406  -1.280  55.146  1.00  0.00     0.009 A 
HETATM    9  C17 UNL     1      21.954  -0.754  54.033  1.00  0.00    -0.034 A 
HETATM   10  C18 UNL     1      23.167  -0.335  53.405  1.00  0.00     0.104 A 
HETATM   11  C19 UNL     1      21.506  -0.219  52.902  1.00  0.00    -0.011 A 
HETATM   12  C20 UNL     1      21.156   0.230  51.973  1.00  0.00     0.048 A 
HETATM   13  C21 UNL     1      20.752   0.784  50.844  1.00  0.00     0.172 A 
HETATM   14  N2  UNL     1      21.748   1.426  50.992  1.00  0.00    -0.316 N 
HETATM   15  H15 UNL     1      26.058  -0.562  52.606  1.00  0.00     0.159 HD
ENDROOT
BRANCH   1  16
HETATM   16  O1  UNL     1      22.079   3.156  50.421  1.00  0.00    -0.335 OA
BRANCH  16  17
HETATM   17  C9  UNL     1      22.590   4.439  50.149  1.00  0.00     0.182 C 
BRANCH  17  18
HETATM   18  C8  UNL     1      23.199   4.581  48.778  1.00  0.00     0.066 C 
BRANCH  18  19
HETATM   19  C7  UNL     1      24.630   4.959  48.795  1.00  0.00    -0.050 A 
HETATM   20  C2  UNL     1      24.928   6.253  48.441  1.00  0.00    -0.056 A 
HETATM   21  C1  UNL     1      23.962   7.286  48.039  1.00  0.00     0.049 C 
HETATM   22  C3  UNL     1      26.269   6.607  48.466  1.00  0.00     0.007 A 
HETATM   23  C4  UNL     1      27.233   5.684  48.830  1.00  0.00     0.001 A 
HETATM   24  C5  UNL     1      26.882   4.381  49.180  1.00  0.00     0.001 A 
HETATM   25  C6  UNL     1      25.538   3.992  49.166  1.00  0.00     0.007 A 
ENDBRANCH  18  19
ENDBRANCH  17  18
ENDBRANCH  16  17
ENDBRANCH   1  16
TORSDOF 4
ENDMDL
