MODEL 1
REMARK VINA RESULT:      -8.2      0.000      0.000
REMARK  2 active torsions:
REMARK  status: ('A' for Active; 'I' for Inactive)
REMARK    1  A    between atoms: C3_3  and  C4_5 
REMARK    2  A    between atoms: C4_5  and  N1_6 
ROOT
HETATM    1  N1  UNL     1      25.592   2.428  52.009  1.00  0.00    -0.335 N 
HETATM    2  C5  UNL     1      26.637   2.687  51.002  1.00  0.00     0.292 A 
HETATM    3  C6  UNL     1      26.088   2.981  49.662  1.00  0.00     0.047 A 
HETATM    4  C7  UNL     1      26.419   4.281  49.405  1.00  0.00     0.165 A 
HETATM    5  F1  UNL     1      26.335   3.083  50.098  1.00  0.00    -0.364 F 
HETATM    6  C8  UNL     1      26.686   5.721  49.173  1.00  0.00     0.066 A 
HETATM    7 CL2  UNL     1      28.069   4.900  48.512  1.00  0.00    -0.168 Cl
HETATM    8  C9  UNL     1      25.519   6.093  49.754  1.00  0.00     0.106 C 
HETATM    9  C10 UNL     1      24.412   5.351  50.359  1.00  0.00     0.277 C 
HETATM   10  N2  UNL     1      24.342   5.559  51.784  1.00  0.00     0.087 N 
HETATM   11  C11 UNL     1      23.175   4.865  52.328  1.00  0.00     0.308 C 
HETATM   12  C12 UNL     1      23.231   3.399  52.216  1.00  0.00    -0.001 C 
HETATM   13  C13 UNL     1      24.142   2.438  52.092  1.00  0.00     0.146 C 
HETATM   14  O1  UNL     1      23.950   1.080  51.999  1.00  0.00    -0.336 OA
HETATM   15  C14 UNL     1      22.613   0.558  51.883  1.00  0.00     0.177 C 
HETATM   16  C15 UNL     1      21.860   1.432  52.901  1.00  0.00     0.031 C 
HETATM   17  C16 UNL     1      21.871   2.803  52.259  1.00  0.00     0.042 C 
HETATM   18  H13 UNL     1      24.161   6.566  51.949  1.00  0.00     0.316 HD
ENDROOT
BRANCH   1  19
HETATM   19  C4  UNL     1      26.320   2.088  53.250  1.00  0.00     0.178 C 
BRANCH  19  20
HETATM   20  C3  UNL     1      27.220   0.944  53.093  1.00  0.00     0.025 C 
HETATM   21  C2  UNL     1      28.440   0.945  53.643  1.00  0.00    -0.010 C 
HETATM   22  C1  UNL     1      29.421  -0.156  53.531  1.00  0.00     0.037 C 
HETATM   23 CL1  UNL     1      26.897  -0.511  52.214  1.00  0.00    -0.087 Cl
ENDBRANCH  19  20
ENDBRANCH   1  19
TORSDOF 2
ENDMDL
MODEL 2
REMARK VINA RESULT:      -7.4      3.189      5.105
REMARK  2 active torsions:
REMARK  status: ('A' for Active; 'I' for Inactive)
REMARK    1  A    between atoms: C3_3  and  C4_5 
REMARK    2  A    between atoms: C4_5  and  N1_6 
ROOT
HETATM    1  N1  UNL     1      24.243  -0.288  53.628  1.00  0.00    -0.335 N 
HETATM    2  C5  UNL     1      25.450  -1.131  53.557  1.00  0.00     0.292 A 
HETATM    3  C6  UNL     1      26.294  -0.834  52.381  1.00  0.00     0.047 A 
HETATM    4  C7  UNL     1      27.458  -0.325  52.882  1.00  0.00     0.165 A 
HETATM    5  F1  UNL     1      26.179  -0.858  52.878  1.00  0.00    -0.364 F 
HETATM    6  C8  UNL     1      28.678   0.325  53.421  1.00  0.00     0.066 A 
HETATM    7 CL2  UNL     1      29.063  -1.371  53.367  1.00  0.00    -0.168 Cl
HETATM    8  C9  UNL     1      28.121   1.558  53.358  1.00  0.00     0.106 C 
HETATM    9  C10 UNL     1      26.820   2.057  52.908  1.00  0.00     0.277 C 
HETATM   10  N2  UNL     1      26.029   2.556  54.005  1.00  0.00     0.087 N 
HETATM   11  C11 UNL     1      24.776   3.115  53.496  1.00  0.00     0.308 C 
HETATM   12  C12 UNL     1      23.880   2.132  52.869  1.00  0.00    -0.001 C 
HETATM   13  C13 UNL     1      23.653   0.821  52.899  1.00  0.00     0.146 C 
HETATM   14  O1  UNL     1      22.724   0.095  52.193  1.00  0.00    -0.336 OA
HETATM   15  C14 UNL     1      21.943   0.743  51.170  1.00  0.00     0.177 C 
HETATM   16  C15 UNL     1      21.604   2.079  51.853  1.00  0.00     0.031 C 
HETATM   17  C16 UNL     1      22.940   2.785  51.923  1.00  0.00     0.042 C 
HETATM   18  H13 UNL     1      26.535   3.357  54.423  1.00  0.00     0.316 HD
ENDROOT
BRANCH   1  19
HETATM   19  C4  UNL     1      23.497  -0.770  54.810  1.00  0.00     0.178 C 
BRANCH  19  20
HETATM   20  C3  UNL     1      22.046  -0.746  54.622  1.00  0.00     0.025 C 
HETATM   21  C2  UNL     1      21.397  -1.808  54.130  1.00  0.00    -0.010 C 
HETATM   22  C1  UNL     1      19.939  -1.875  53.895  1.00  0.00     0.037 C 
HETATM   23 CL1  UNL     1      20.981   0.574  54.964  1.00  0.00    -0.087 Cl
ENDBRANCH  19  20
ENDBRANCH   1  19
TORSDOF 2
ENDMDL
MODEL 3
REMARK VINA RESULT:      -7.2      2.733      5.188
REMARK  2 active torsions:
REMARK  status: ('A' for Active; 'I' for Inactive)
REMARK    1  A    between atoms: C3_3  and  C4_5 
REMARK    2  A    between atoms: C4_5  and  N1_6 
ROOT
HETATM    1  N1  UNL     1      22.761   1.510  51.961  1.00  0.00    -0.335 N 
HETATM    2  C5  UNL     1      23.559   0.697  52.897  1.00  0.00     0.292 A 
HETATM    3  C6  UNL     1      24.728   0.059  52.256  1.00  0.00     0.047 A 
HETATM    4  C7  UNL     1      25.824   0.637  52.829  1.00  0.00     0.165 A 
HETATM    5  F1  UNL     1      24.487   0.378  52.574  1.00  0.00    -0.364 F 
HETATM    6  C8  UNL     1      27.011   1.340  53.376  1.00  0.00     0.066 A 
HETATM    7 CL2  UNL     1      26.761  -0.009  54.444  1.00  0.00    -0.168 Cl
HETATM    8  C9  UNL     1      26.971   2.287  52.406  1.00  0.00     0.106 C 
HETATM    9  C10 UNL     1      26.101   2.512  51.251  1.00  0.00     0.277 C 
HETATM   10  N2  UNL     1      25.286   3.689  51.415  1.00  0.00     0.087 N 
HETATM   11  C11 UNL     1      24.496   3.916  50.205  1.00  0.00     0.308 C 
HETATM   12  C12 UNL     1      23.502   2.871  49.920  1.00  0.00    -0.001 C 
HETATM   13  C13 UNL     1      22.820   1.932  50.572  1.00  0.00     0.146 C 
HETATM   14  O1  UNL     1      21.910   1.031  50.075  1.00  0.00    -0.336 OA
HETATM   15  C14 UNL     1      21.708   0.936  48.651  1.00  0.00     0.177 C 
HETATM   16  C15 UNL     1      21.706   2.422  48.250  1.00  0.00     0.031 C 
HETATM   17  C16 UNL     1      23.139   2.848  48.480  1.00  0.00     0.042 C 
HETATM   18  H13 UNL     1      25.918   4.506  51.485  1.00  0.00     0.316 HD
ENDROOT
BRANCH   1  19
HETATM   19  C4  UNL     1      21.613   2.003  52.751  1.00  0.00     0.178 C 
BRANCH  19  20
HETATM   20  C3  UNL     1      20.791   0.925  53.303  1.00  0.00     0.025 C 
HETATM   21  C2  UNL     1      19.798   0.380  52.588  1.00  0.00    -0.010 C 
HETATM   22  C1  UNL     1      18.910  -0.703  53.061  1.00  0.00     0.037 C 
HETATM   23 CL1  UNL     1      20.932   0.218  54.875  1.00  0.00    -0.087 Cl
ENDBRANCH  19  20
ENDBRANCH   1  19
TORSDOF 2
ENDMDL
MODEL 4
REMARK VINA RESULT:      -7.0      2.065      5.011
REMARK  2 active torsions:
REMARK  status: ('A' for Active; 'I' for Inactive)
REMARK    1  A    between atoms: C3_3  and  C4_5 
REMARK    2  A    between atoms: C4_5  and  N1_6 
ROOT
HETATM    1  N1  UNL     1      24.305   2.580  51.581  1.00  0.00    -0.335 N 
HETATM    2  C5  UNL     1      25.622   2.477  52.235  1.00  0.00     0.292 A 
HETATM    3  C6  UNL     1      25.531   2.402  53.709  1.00  0.00     0.047 A 
HETATM    4  C7  UNL     1      25.984   1.158  54.042  1.00  0.00     0.165 A 
HETATM    5  F1  UNL     1      25.635   2.231  53.238  1.00  0.00    -0.364 F 
HETATM    6  C8  UNL     1      26.374  -0.229  54.394  1.00  0.00     0.066 A 
HETATM    7 CL2  UNL     1      27.856   0.679  54.453  1.00  0.00    -0.168 Cl
HETATM    8  C9  UNL     1      25.103  -0.682  54.273  1.00  0.00     0.106 C 
HETATM    9  C10 UNL     1      23.830  -0.039  53.943  1.00  0.00     0.277 C 
HETATM   10  N2  UNL     1      23.329  -0.470  52.662  1.00  0.00     0.087 N 
HETATM   11  C11 UNL     1      22.020   0.136  52.414  1.00  0.00     0.308 C 
HETATM   12  C12 UNL     1      22.042   1.600  52.278  1.00  0.00    -0.001 C 
HETATM   13  C13 UNL     1      22.902   2.565  51.962  1.00  0.00     0.146 C 
HETATM   14  O1  UNL     1      22.689   3.920  51.904  1.00  0.00    -0.336 OA
HETATM   15  C14 UNL     1      21.432   4.462  52.355  1.00  0.00     0.177 C 
HETATM   16  C15 UNL     1      20.439   3.441  51.770  1.00  0.00     0.031 C 
HETATM   17  C16 UNL     1      20.711   2.190  52.576  1.00  0.00     0.042 C 
HETATM   18  H13 UNL     1      23.151  -1.489  52.716  1.00  0.00     0.316 HD
ENDROOT
BRANCH   1  19
HETATM   19  C4  UNL     1      24.593   2.716  50.138  1.00  0.00     0.178 C 
BRANCH  19  20
HETATM   20  C3  UNL     1      25.449   3.862  49.829  1.00  0.00     0.025 C 
HETATM   21  C2  UNL     1      26.599   3.704  49.162  1.00  0.00    -0.010 C 
HETATM   22  C1  UNL     1      27.532   4.797  48.814  1.00  0.00     0.037 C 
HETATM   23 CL1  UNL     1      25.157   5.514  50.254  1.00  0.00    -0.087 Cl
ENDBRANCH  19  20
ENDBRANCH   1  19
TORSDOF 2
ENDMDL
MODEL 5
REMARK VINA RESULT:      -7.0      2.688      4.623
REMARK  2 active torsions:
REMARK  status: ('A' for Active; 'I' for Inactive)
REMARK    1  A    between atoms: C3_3  and  C4_5 
REMARK    2  A    between atoms: C4_5  and  N1_6 
ROOT
HETATM    1  N1  UNL     1      23.550   2.571  51.896  1.00  0.00    -0.335 N 
HETATM    2  C5  UNL     1      22.578   3.677  51.972  1.00  0.00     0.292 A 
HETATM    3  C6  UNL     1      23.190   4.957  52.386  1.00  0.00     0.047 A 
HETATM    4  C7  UNL     1      23.078   5.785  51.307  1.00  0.00     0.165 A 
HETATM    5  F1  UNL     1      22.955   4.633  52.068  1.00  0.00    -0.364 F 
HETATM    6  C8  UNL     1      23.052   6.647  50.100  1.00  0.00     0.066 A 
HETATM    7 CL2  UNL     1      21.565   6.999  50.932  1.00  0.00    -0.168 Cl
HETATM    8  C9  UNL     1      24.253   6.189  49.672  1.00  0.00     0.106 C 
HETATM    9  C10 UNL     1      25.216   5.226  50.211  1.00  0.00     0.277 C 
HETATM   10  N2  UNL     1      25.295   4.037  49.400  1.00  0.00     0.087 N 
HETATM   11  C11 UNL     1      26.325   3.144  49.931  1.00  0.00     0.308 C 
HETATM   12  C12 UNL     1      26.034   2.606  51.269  1.00  0.00    -0.001 C 
HETATM   13  C13 UNL     1      24.982   2.376  52.049  1.00  0.00     0.146 C 
HETATM   14  O1  UNL     1      24.952   1.847  53.317  1.00  0.00    -0.336 OA
HETATM   15  C14 UNL     1      26.189   1.605  54.015  1.00  0.00     0.177 C 
HETATM   16  C15 UNL     1      27.057   1.013  52.891  1.00  0.00     0.031 C 
HETATM   17  C16 UNL     1      27.278   2.188  51.964  1.00  0.00     0.042 C 
HETATM   18  H13 UNL     1      25.633   4.314  48.461  1.00  0.00     0.316 HD
ENDROOT
BRANCH   1  19
HETATM   19  C4  UNL     1      22.756   1.375  51.542  1.00  0.00     0.178 C 
BRANCH  19  20
HETATM   20  C3  UNL     1      21.759   1.029  52.555  1.00  0.00     0.025 C 
HETATM   21  C2  UNL     1      22.093   0.312  53.636  1.00  0.00    -0.010 C 
HETATM   22  C1  UNL     1      21.157  -0.094  54.705  1.00  0.00     0.037 C 
HETATM   23 CL1  UNL     1      20.078   1.440  52.535  1.00  0.00    -0.087 Cl
ENDBRANCH  19  20
ENDBRANCH   1  19
TORSDOF 2
ENDMDL
MODEL 6
REMARK VINA RESULT:      -6.9      2.937      5.289
REMARK  2 active torsions:
REMARK  status: ('A' for Active; 'I' for Inactive)
REMARK    1  A    between atoms: C3_3  and  C4_5 
REMARK    2  A    between atoms: C4_5  and  N1_6 
ROOT
HETATM    1  N1  UNL     1      22.664   2.247  51.815  1.00  0.00    -0.335 N 
HETATM    2  C5  UNL     1      23.352   1.573  52.931  1.00  0.00     0.292 A 
HETATM    3  C6  UNL     1      24.391   0.623  52.478  1.00  0.00     0.047 A 
HETATM    4  C7  UNL     1      25.578   1.145  52.905  1.00  0.00     0.165 A 
HETATM    5  F1  UNL     1      24.210   1.044  52.707  1.00  0.00    -0.364 F 
HETATM    6  C8  UNL     1      26.874   1.766  53.275  1.00  0.00     0.066 A 
HETATM    7 CL2  UNL     1      26.449   0.774  54.640  1.00  0.00    -0.168 Cl
HETATM    8  C9  UNL     1      26.953   2.441  52.103  1.00  0.00     0.106 C 
HETATM    9  C10 UNL     1      26.097   2.511  50.918  1.00  0.00     0.277 C 
HETATM   10  N2  UNL     1      25.478   3.805  50.779  1.00  0.00     0.087 N 
HETATM   11  C11 UNL     1      24.699   3.851  49.541  1.00  0.00     0.308 C 
HETATM   12  C12 UNL     1      23.549   2.936  49.511  1.00  0.00    -0.001 C 
HETATM   13  C13 UNL     1      22.748   2.303  50.366  1.00  0.00     0.146 C 
HETATM   14  O1  UNL     1      21.697   1.461  50.095  1.00  0.00    -0.336 OA
HETATM   15  C14 UNL     1      21.444   1.055  48.736  1.00  0.00     0.177 C 
HETATM   16  C15 UNL     1      21.659   2.379  47.982  1.00  0.00     0.031 C 
HETATM   17  C16 UNL     1      23.147   2.619  48.116  1.00  0.00     0.042 C 
HETATM   18  H13 UNL     1      26.231   4.506  50.653  1.00  0.00     0.316 HD
ENDROOT
BRANCH   1  19
HETATM   19  C4  UNL     1      21.628   3.091  52.447  1.00  0.00     0.178 C 
BRANCH  19  20
HETATM   20  C3  UNL     1      21.314   4.292  51.670  1.00  0.00     0.025 C 
HETATM   21  C2  UNL     1      22.078   5.387  51.756  1.00  0.00    -0.010 C 
HETATM   22  C1  UNL     1      21.837   6.647  51.020  1.00  0.00     0.037 C 
HETATM   23 CL1  UNL     1      19.981   4.503  50.588  1.00  0.00    -0.087 Cl
ENDBRANCH  19  20
ENDBRANCH   1  19
TORSDOF 2
ENDMDL
MODEL 7
REMARK VINA RESULT:      -6.9      2.107      2.472
REMARK  2 active torsions:
REMARK  status: ('A' for Active; 'I' for Inactive)
REMARK    1  A    between atoms: C3_3  and  C4_5 
REMARK    2  A    between atoms: C4_5  and  N1_6 
ROOT
HETATM    1  N1  UNL     1      23.849   3.643  51.605  1.00  0.00    -0.335 N 
HETATM    2  C5  UNL     1      25.136   3.445  50.914  1.00  0.00     0.292 A 
HETATM    3  C6  UNL     1      25.033   3.597  49.447  1.00  0.00     0.047 A 
HETATM    4  C7  UNL     1      25.771   4.704  49.139  1.00  0.00     0.165 A 
HETATM    5  F1  UNL     1      25.187   3.719  49.919  1.00  0.00    -0.364 F 
HETATM    6  C8  UNL     1      26.483   5.966  48.820  1.00  0.00     0.066 A 
HETATM    7 CL2  UNL     1      27.694   4.725  48.685  1.00  0.00    -0.168 Cl
HETATM    8  C9  UNL     1      25.365   6.712  48.995  1.00  0.00     0.106 C 
HETATM    9  C10 UNL     1      23.980   6.388  49.345  1.00  0.00     0.277 C 
HETATM   10  N2  UNL     1      23.630   6.878  50.654  1.00  0.00     0.087 N 
HETATM   11  C11 UNL     1      22.218   6.603  50.923  1.00  0.00     0.308 C 
HETATM   12  C12 UNL     1      21.882   5.174  51.011  1.00  0.00    -0.001 C 
HETATM   13  C13 UNL     1      22.486   4.016  51.269  1.00  0.00     0.146 C 
HETATM   14  O1  UNL     1      21.946   2.753  51.290  1.00  0.00    -0.336 OA
HETATM   15  C14 UNL     1      20.585   2.554  50.862  1.00  0.00     0.177 C 
HETATM   16  C15 UNL     1      19.888   3.764  51.510  1.00  0.00     0.031 C 
HETATM   17  C16 UNL     1      20.441   4.941  50.737  1.00  0.00     0.042 C 
HETATM   18  H13 UNL     1      23.707   7.911  50.638  1.00  0.00     0.316 HD
ENDROOT
BRANCH   1  19
HETATM   19  C4  UNL     1      24.128   3.385  53.033  1.00  0.00     0.178 C 
BRANCH  19  20
HETATM   20  C3  UNL     1      24.850   2.132  53.260  1.00  0.00     0.025 C 
HETATM   21  C2  UNL     1      24.251   0.948  53.081  1.00  0.00    -0.010 C 
HETATM   22  C1  UNL     1      24.893  -0.366  53.294  1.00  0.00     0.037 C 
HETATM   23 CL1  UNL     1      26.493   1.965  53.777  1.00  0.00    -0.087 Cl
ENDBRANCH  19  20
ENDBRANCH   1  19
TORSDOF 2
ENDMDL
MODEL 8
REMARK VINA RESULT:      -6.8      3.074      5.390
REMARK  2 active torsions:
REMARK  status: ('A' for Active; 'I' for Inactive)
REMARK    1  A    between atoms: C3_3  and  C4_5 
REMARK    2  A    between atoms: C4_5  and  N1_6 
ROOT
HETATM    1  N1  UNL     1      23.649   2.397  51.348  1.00  0.00    -0.335 N 
HETATM    2  C5  UNL     1      22.819   2.644  50.155  1.00  0.00     0.292 A 
HETATM    3  C6  UNL     1      22.321   1.400  49.531  1.00  0.00     0.047 A 
HETATM    4  C7  UNL     1      20.965   1.425  49.690  1.00  0.00     0.165 A 
HETATM    5  F1  UNL     1      22.283   1.846  49.778  1.00  0.00    -0.364 F 
HETATM    6  C8  UNL     1      19.506   1.403  49.958  1.00  0.00     0.066 A 
HETATM    7 CL2  UNL     1      19.665   2.203  48.421  1.00  0.00    -0.168 Cl
HETATM    8  C9  UNL     1      19.672   0.765  51.142  1.00  0.00     0.106 C 
HETATM    9  C10 UNL     1      20.844   0.270  51.866  1.00  0.00     0.277 C 
HETATM   10  N2  UNL     1      21.088   1.023  53.071  1.00  0.00     0.087 N 
HETATM   11  C11 UNL     1      22.216   0.441  53.798  1.00  0.00     0.308 C 
HETATM   12  C12 UNL     1      23.504   0.528  53.095  1.00  0.00    -0.001 C 
HETATM   13  C13 UNL     1      24.083   1.266  52.151  1.00  0.00     0.146 C 
HETATM   14  O1  UNL     1      25.350   1.156  51.630  1.00  0.00    -0.336 OA
HETATM   15  C14 UNL     1      26.179   0.040  52.010  1.00  0.00     0.177 C 
HETATM   16  C15 UNL     1      25.893  -0.045  53.520  1.00  0.00     0.031 C 
HETATM   17  C16 UNL     1      24.454  -0.508  53.577  1.00  0.00     0.042 C 
HETATM   18  H13 UNL     1      20.269   0.899  53.694  1.00  0.00     0.316 HD
ENDROOT
BRANCH   1  19
HETATM   19  C4  UNL     1      24.110   3.731  51.788  1.00  0.00     0.178 C 
BRANCH  19  20
HETATM   20  C3  UNL     1      24.683   4.527  50.701  1.00  0.00     0.025 C 
HETATM   21  C2  UNL     1      25.855   4.194  50.147  1.00  0.00    -0.010 C 
HETATM   22  C1  UNL     1      26.517   4.940  49.055  1.00  0.00     0.037 C 
HETATM   23 CL1  UNL     1      24.004   5.953  49.995  1.00  0.00    -0.087 Cl
ENDBRANCH  19  20
ENDBRANCH   1  19
TORSDOF 2
ENDMDL
MODEL 9
REMARK VINA RESULT:      -6.7      3.325      6.242
REMARK  2 active torsions:
REMARK  status: ('A' for Active; 'I' for Inactive)
REMARK    1  A    between atoms: C3_3  and  C4_5 
REMARK    2  A    between atoms: C4_5  and  N1_6 
ROOT
HETATM    1  N1  UNL     1      21.508   2.249  51.757  1.00  0.00    -0.335 N 
HETATM    2  C5  UNL     1      21.269   1.218  52.783  1.00  0.00     0.292 A 
HETATM    3  C6  UNL     1      21.827  -0.101  52.417  1.00  0.00     0.047 A 
HETATM    4  C7  UNL     1      22.820  -0.345  53.322  1.00  0.00     0.165 A 
HETATM    5  F1  UNL     1      21.786   0.329  52.691  1.00  0.00    -0.364 F 
HETATM    6  C8  UNL     1      23.967  -0.559  54.238  1.00  0.00     0.066 A 
HETATM    7 CL2  UNL     1      22.606  -1.273  55.054  1.00  0.00    -0.168 Cl
HETATM    8  C9  UNL     1      24.831   0.061  53.399  1.00  0.00     0.106 C 
HETATM    9  C10 UNL     1      24.687   0.684  52.081  1.00  0.00     0.277 C 
HETATM   10  N2  UNL     1      24.862   2.113  52.142  1.00  0.00     0.087 N 
HETATM   11  C11 UNL     1      24.790   2.678  50.794  1.00  0.00     0.308 C 
HETATM   12  C12 UNL     1      23.478   2.539  50.145  1.00  0.00    -0.001 C 
HETATM   13  C13 UNL     1      22.203   2.372  50.487  1.00  0.00     0.146 C 
HETATM   14  O1  UNL     1      21.103   2.261  49.672  1.00  0.00    -0.336 OA
HETATM   15  C14 UNL     1      21.282   2.173  48.245  1.00  0.00     0.177 C 
HETATM   16  C15 UNL     1      22.380   3.227  48.015  1.00  0.00     0.031 C 
HETATM   17  C16 UNL     1      23.598   2.609  48.666  1.00  0.00     0.042 C 
HETATM   18  H13 UNL     1      25.829   2.301  52.465  1.00  0.00     0.316 HD
ENDROOT
BRANCH   1  19
HETATM   19  C4  UNL     1      20.828   3.463  52.256  1.00  0.00     0.178 C 
BRANCH  19  20
HETATM   20  C3  UNL     1      21.606   4.684  52.044  1.00  0.00     0.025 C 
HETATM   21  C2  UNL     1      21.211   5.609  51.160  1.00  0.00    -0.010 C 
HETATM   22  C1  UNL     1      21.934   6.866  50.871  1.00  0.00     0.037 C 
HETATM   23 CL1  UNL     1      23.085   5.117  52.830  1.00  0.00    -0.087 Cl
ENDBRANCH  19  20
ENDBRANCH   1  19
TORSDOF 2
ENDMDL
