MODEL 1
REMARK VINA RESULT:      -7.3      0.000      0.000
REMARK  4 active torsions:
REMARK  status: ('A' for Active; 'I' for Inactive)
REMARK    1  A    between atoms: O1_1  and  C1_2 
REMARK    2  A    between atoms: C2_3  and  C3_4 
REMARK    3  A    between atoms: C5_8  and  C6_9 
REMARK    4  A    between atoms: C13_17  and  C14_18 
ROOT
HETATM    1  C3  UNL     1      22.456  -0.680  54.458  1.00  0.00     0.075 A 
HETATM    2  N1  UNL     1      22.760  -1.340  55.566  1.00  0.00    -0.241 NA
HETATM    3  C4  UNL     1      24.016  -1.641  55.903  1.00  0.00     0.234 A 
HETATM    4  N2  UNL     1      24.932  -1.217  55.027  1.00  0.00    -0.243 NA
HETATM    5  C5  UNL     1      24.684  -0.548  53.898  1.00  0.00     0.079 A 
HETATM    6  C13 UNL     1      23.387  -0.247  53.564  1.00  0.00     0.056 A 
ENDROOT
BRANCH   5   7
HETATM    7  C6  UNL     1      25.840  -0.149  53.017  1.00  0.00     0.183 C 
HETATM    8  C7  UNL     1      26.679  -1.337  52.853  1.00  0.00     0.003 C 
HETATM    9  C8  UNL     1      27.888  -1.888  52.843  1.00  0.00    -0.024 C 
HETATM   10  C9  UNL     1      29.222  -1.319  53.062  1.00  0.00     0.054 C 
HETATM   11  C10 UNL     1      29.308  -0.357  54.181  1.00  0.00    -0.022 C 
HETATM   12  C11 UNL     1      28.682   0.723  54.618  1.00  0.00     0.015 C 
HETATM   13  C12 UNL     1      27.535   1.434  54.070  1.00  0.00     0.111 C 
HETATM   14  N3  UNL     1      26.470   1.039  53.464  1.00  0.00    -0.286 NA
ENDBRANCH   5   7
BRANCH   6  15
HETATM   15  C14 UNL     1      23.092   0.475  52.352  1.00  0.00     0.112 A 
HETATM   16  C15 UNL     1      23.286   1.529  51.473  1.00  0.00     0.180 A 
HETATM   17  O2  UNL     1      22.376   0.577  51.214  1.00  0.00    -0.317 OA
ENDBRANCH   6  15
BRANCH   1  18
HETATM   18  C2  UNL     1      21.045  -0.452  54.270  1.00  0.00     0.056 C 
HETATM   19  C1  UNL     1      19.898  -0.696  53.692  1.00  0.00     0.133 C 
BRANCH  19  20
HETATM   20  O1  UNL     1      18.550  -0.410  53.581  1.00  0.00    -0.373 OA
HETATM   21  H1  UNL     1      18.101   0.435  53.920  1.00  0.00     0.216 HD
ENDBRANCH  19  20
ENDBRANCH   1  18
TORSDOF 4
ENDMDL
MODEL 2
REMARK VINA RESULT:      -7.3      1.932      2.305
REMARK  4 active torsions:
REMARK  status: ('A' for Active; 'I' for Inactive)
REMARK    1  A    between atoms: O1_1  and  C1_2 
REMARK    2  A    between atoms: C2_3  and  C3_4 
REMARK    3  A    between atoms: C5_8  and  C6_9 
REMARK    4  A    between atoms: C13_17  and  C14_18 
ROOT
HETATM    1  C3  UNL     1      22.706   1.385  52.727  1.00  0.00     0.075 A 
HETATM    2  N1  UNL     1      22.383   0.435  53.594  1.00  0.00    -0.241 NA
HETATM    3  C4  UNL     1      23.255  -0.483  54.012  1.00  0.00     0.234 A 
HETATM    4  N2  UNL     1      24.475  -0.360  53.482  1.00  0.00    -0.243 NA
HETATM    5  C5  UNL     1      24.857   0.575  52.607  1.00  0.00     0.079 A 
HETATM    6  C13 UNL     1      23.948   1.514  52.185  1.00  0.00     0.056 A 
ENDROOT
BRANCH   5   7
HETATM    7  C6  UNL     1      26.278   0.567  52.103  1.00  0.00     0.183 C 
HETATM    8  C7  UNL     1      26.798  -0.783  52.324  1.00  0.00     0.003 C 
HETATM    9  C8  UNL     1      27.779  -1.573  52.748  1.00  0.00    -0.024 C 
HETATM   10  C9  UNL     1      29.095  -1.273  53.322  1.00  0.00     0.054 C 
HETATM   11  C10 UNL     1      29.100  -0.178  54.317  1.00  0.00    -0.022 C 
HETATM   12  C11 UNL     1      28.672   1.067  54.431  1.00  0.00     0.015 C 
HETATM   13  C12 UNL     1      27.947   1.905  53.485  1.00  0.00     0.111 C 
HETATM   14  N3  UNL     1      27.034   1.651  52.614  1.00  0.00    -0.286 NA
ENDBRANCH   5   7
BRANCH   6  15
HETATM   15  C14 UNL     1      24.334   2.533  51.243  1.00  0.00     0.112 A 
HETATM   16  C15 UNL     1      24.711   3.828  50.921  1.00  0.00     0.180 A 
HETATM   17  O2  UNL     1      24.594   2.890  49.968  1.00  0.00    -0.317 OA
ENDBRANCH   6  15
BRANCH   1  18
HETATM   18  C2  UNL     1      21.626   2.282  52.399  1.00  0.00     0.056 C 
HETATM   19  C1  UNL     1      20.393   2.700  52.508  1.00  0.00     0.133 C 
BRANCH  19  20
HETATM   20  O1  UNL     1      19.418   3.607  52.134  1.00  0.00    -0.373 OA
HETATM   21  H1  UNL     1      19.468   4.611  52.275  1.00  0.00     0.216 HD
ENDBRANCH  19  20
ENDBRANCH   1  18
TORSDOF 4
ENDMDL
MODEL 3
REMARK VINA RESULT:      -6.7      3.225      4.975
REMARK  4 active torsions:
REMARK  status: ('A' for Active; 'I' for Inactive)
REMARK    1  A    between atoms: O1_1  and  C1_2 
REMARK    2  A    between atoms: C2_3  and  C3_4 
REMARK    3  A    between atoms: C5_8  and  C6_9 
REMARK    4  A    between atoms: C13_17  and  C14_18 
ROOT
HETATM    1  C3  UNL     1      23.813   0.687  53.039  1.00  0.00     0.075 A 
HETATM    2  N1  UNL     1      24.937   0.850  53.723  1.00  0.00    -0.241 NA
HETATM    3  C4  UNL     1      25.900   1.687  53.335  1.00  0.00     0.234 A 
HETATM    4  N2  UNL     1      25.630   2.341  52.202  1.00  0.00    -0.243 NA
HETATM    5  C5  UNL     1      24.518   2.218  51.473  1.00  0.00     0.079 A 
HETATM    6  C13 UNL     1      23.535   1.352  51.885  1.00  0.00     0.056 A 
ENDROOT
BRANCH   5   7
HETATM    7  C6  UNL     1      24.377   3.032  50.212  1.00  0.00     0.183 C 
HETATM    8  C7  UNL     1      25.731   3.285  49.718  1.00  0.00     0.003 C 
HETATM    9  C8  UNL     1      26.626   4.136  49.225  1.00  0.00    -0.024 C 
HETATM   10  C9  UNL     1      26.542   5.565  48.906  1.00  0.00     0.054 C 
HETATM   11  C10 UNL     1      25.829   6.382  49.912  1.00  0.00    -0.022 C 
HETATM   12  C11 UNL     1      24.683   6.375  50.571  1.00  0.00     0.015 C 
HETATM   13  C12 UNL     1      23.577   5.429  50.529  1.00  0.00     0.111 C 
HETATM   14  N3  UNL     1      23.525   4.150  50.388  1.00  0.00    -0.286 NA
ENDBRANCH   5   7
BRANCH   6  15
HETATM   15  C14 UNL     1      22.325   1.201  51.117  1.00  0.00     0.112 A 
HETATM   16  C15 UNL     1      20.995   1.489  50.853  1.00  0.00     0.180 A 
HETATM   17  O2  UNL     1      21.678   0.630  50.081  1.00  0.00    -0.317 OA
ENDBRANCH   6  15
BRANCH   1  18
HETATM   18  C2  UNL     1      22.896  -0.262  53.620  1.00  0.00     0.056 C 
HETATM   19  C1  UNL     1      21.914  -0.585  54.420  1.00  0.00     0.133 C 
BRANCH  19  20
HETATM   20  O1  UNL     1      21.076  -1.563  54.923  1.00  0.00    -0.373 OA
HETATM   21  H1  UNL     1      21.341  -2.528  55.096  1.00  0.00     0.216 HD
ENDBRANCH  19  20
ENDBRANCH   1  18
TORSDOF 4
ENDMDL
MODEL 4
REMARK VINA RESULT:      -6.7      1.864      3.239
REMARK  4 active torsions:
REMARK  status: ('A' for Active; 'I' for Inactive)
REMARK    1  A    between atoms: O1_1  and  C1_2 
REMARK    2  A    between atoms: C2_3  and  C3_4 
REMARK    3  A    between atoms: C5_8  and  C6_9 
REMARK    4  A    between atoms: C13_17  and  C14_18 
ROOT
HETATM    1  C3  UNL     1      22.614   1.048  51.863  1.00  0.00     0.075 A 
HETATM    2  N1  UNL     1      23.281   1.863  51.058  1.00  0.00    -0.241 NA
HETATM    3  C4  UNL     1      24.607   1.997  51.108  1.00  0.00     0.234 A 
HETATM    4  N2  UNL     1      25.197   1.240  52.038  1.00  0.00    -0.243 NA
HETATM    5  C5  UNL     1      24.577   0.403  52.874  1.00  0.00     0.079 A 
HETATM    6  C13 UNL     1      23.212   0.276  52.811  1.00  0.00     0.056 A 
ENDROOT
BRANCH   5   7
HETATM    7  C6  UNL     1      25.399  -0.375  53.871  1.00  0.00     0.183 C 
HETATM    8  C7  UNL     1      26.355   0.566  54.458  1.00  0.00     0.003 C 
HETATM    9  C8  UNL     1      27.598   0.840  54.839  1.00  0.00    -0.024 C 
HETATM   10  C9  UNL     1      28.833   0.049  54.787  1.00  0.00     0.054 C 
HETATM   11  C10 UNL     1      29.032  -0.703  53.530  1.00  0.00    -0.022 C 
HETATM   12  C11 UNL     1      28.364  -1.537  52.751  1.00  0.00     0.015 C 
HETATM   13  C12 UNL     1      27.016  -2.074  52.880  1.00  0.00     0.111 C 
HETATM   14  N3  UNL     1      25.915  -1.574  53.320  1.00  0.00    -0.286 NA
ENDBRANCH   5   7
BRANCH   6  15
HETATM   15  C14 UNL     1      22.519  -0.620  53.702  1.00  0.00     0.112 A 
HETATM   16  C15 UNL     1      21.847  -0.903  54.881  1.00  0.00     0.180 A 
HETATM   17  O2  UNL     1      22.051  -1.858  53.961  1.00  0.00    -0.317 OA
ENDBRANCH   6  15
BRANCH   1  18
HETATM   18  C2  UNL     1      21.187   1.044  51.655  1.00  0.00     0.056 C 
HETATM   19  C1  UNL     1      20.081   0.500  51.219  1.00  0.00     0.133 C 
BRANCH  19  20
HETATM   20  O1  UNL     1      18.709   0.582  51.063  1.00  0.00    -0.373 OA
HETATM   21  H1  UNL     1      18.035  -0.058  51.470  1.00  0.00     0.216 HD
ENDBRANCH  19  20
ENDBRANCH   1  18
TORSDOF 4
ENDMDL
MODEL 5
REMARK VINA RESULT:      -6.6      2.360      4.603
REMARK  4 active torsions:
REMARK  status: ('A' for Active; 'I' for Inactive)
REMARK    1  A    between atoms: O1_1  and  C1_2 
REMARK    2  A    between atoms: C2_3  and  C3_4 
REMARK    3  A    between atoms: C5_8  and  C6_9 
REMARK    4  A    between atoms: C13_17  and  C14_18 
ROOT
HETATM    1  C3  UNL     1      24.367   2.789  50.017  1.00  0.00     0.075 A 
HETATM    2  N1  UNL     1      25.350   3.347  49.324  1.00  0.00    -0.241 NA
HETATM    3  C4  UNL     1      26.602   3.415  49.779  1.00  0.00     0.234 A 
HETATM    4  N2  UNL     1      26.774   2.872  50.988  1.00  0.00    -0.243 NA
HETATM    5  C5  UNL     1      25.823   2.297  51.729  1.00  0.00     0.079 A 
HETATM    6  C13 UNL     1      24.539   2.234  51.248  1.00  0.00     0.056 A 
ENDROOT
BRANCH   5   7
HETATM    7  C6  UNL     1      26.190   1.736  53.079  1.00  0.00     0.183 C 
HETATM    8  C7  UNL     1      27.496   2.296  53.431  1.00  0.00     0.003 C 
HETATM    9  C8  UNL     1      28.726   2.116  53.901  1.00  0.00    -0.024 C 
HETATM   10  C9  UNL     1      29.421   0.918  54.383  1.00  0.00     0.054 C 
HETATM   11  C10 UNL     1      29.200  -0.295  53.567  1.00  0.00    -0.022 C 
HETATM   12  C11 UNL     1      28.194  -0.982  53.054  1.00  0.00     0.015 C 
HETATM   13  C12 UNL     1      26.758  -0.746  53.126  1.00  0.00     0.111 C 
HETATM   14  N3  UNL     1      26.047   0.327  53.131  1.00  0.00    -0.286 NA
ENDBRANCH   5   7
BRANCH   6  15
HETATM   15  C14 UNL     1      23.495   1.618  52.027  1.00  0.00     0.112 A 
HETATM   16  C15 UNL     1      22.626   0.575  52.308  1.00  0.00     0.180 A 
HETATM   17  O2  UNL     1      22.638   1.683  53.067  1.00  0.00    -0.317 OA
ENDBRANCH   6  15
BRANCH   1  18
HETATM   18  C2  UNL     1      23.086   2.814  49.356  1.00  0.00     0.056 C 
HETATM   19  C1  UNL     1      22.164   2.287  48.594  1.00  0.00     0.133 C 
BRANCH  19  20
HETATM   20  O1  UNL     1      20.921   2.399  47.999  1.00  0.00    -0.373 OA
HETATM   21  H1  UNL     1      20.758   2.560  47.010  1.00  0.00     0.216 HD
ENDBRANCH  19  20
ENDBRANCH   1  18
TORSDOF 4
ENDMDL
MODEL 6
REMARK VINA RESULT:      -6.6     16.249     18.945
REMARK  4 active torsions:
REMARK  status: ('A' for Active; 'I' for Inactive)
REMARK    1  A    between atoms: O1_1  and  C1_2 
REMARK    2  A    between atoms: C2_3  and  C3_4 
REMARK    3  A    between atoms: C5_8  and  C6_9 
REMARK    4  A    between atoms: C13_17  and  C14_18 
ROOT
HETATM    1  C3  UNL     1      40.985   8.181  51.698  1.00  0.00     0.075 A 
HETATM    2  N1  UNL     1      42.194   8.486  51.248  1.00  0.00    -0.241 NA
HETATM    3  C4  UNL     1      43.296   8.325  51.982  1.00  0.00     0.234 A 
HETATM    4  N2  UNL     1      43.072   7.831  53.203  1.00  0.00    -0.243 NA
HETATM    5  C5  UNL     1      41.879   7.505  53.708  1.00  0.00     0.079 A 
HETATM    6  C13 UNL     1      40.753   7.677  52.941  1.00  0.00     0.056 A 
ENDROOT
BRANCH   5   7
HETATM    7  C6  UNL     1      41.804   6.963  55.112  1.00  0.00     0.183 C 
HETATM    8  C7  UNL     1      42.846   7.641  55.885  1.00  0.00     0.003 C 
HETATM    9  C8  UNL     1      43.846   7.574  56.758  1.00  0.00    -0.024 C 
HETATM   10  C9  UNL     1      44.441   6.441  57.475  1.00  0.00     0.054 C 
HETATM   11  C10 UNL     1      44.635   5.225  56.657  1.00  0.00    -0.022 C 
HETATM   12  C11 UNL     1      43.941   4.452  55.840  1.00  0.00     0.015 C 
HETATM   13  C12 UNL     1      42.554   4.547  55.404  1.00  0.00     0.111 C 
HETATM   14  N3  UNL     1      41.787   5.546  55.139  1.00  0.00    -0.286 NA
ENDBRANCH   5   7
BRANCH   6  15
HETATM   15  C14 UNL     1      39.454   7.334  53.462  1.00  0.00     0.112 A 
HETATM   16  C15 UNL     1      38.487   6.415  53.840  1.00  0.00     0.180 A 
HETATM   17  O2  UNL     1      38.263   7.734  53.951  1.00  0.00    -0.317 OA
ENDBRANCH   6  15
BRANCH   1  18
HETATM   18  C2  UNL     1      39.921   8.428  50.757  1.00  0.00     0.056 C 
HETATM   19  C1  UNL     1      39.171   8.090  49.741  1.00  0.00     0.133 C 
BRANCH  19  20
HETATM   20  O1  UNL     1      38.136   8.411  48.882  1.00  0.00    -0.373 OA
HETATM   21  H1  UNL     1      37.343   7.813  48.671  1.00  0.00     0.216 HD
ENDBRANCH  19  20
ENDBRANCH   1  18
TORSDOF 4
ENDMDL
MODEL 7
REMARK VINA RESULT:      -6.5      2.257      3.709
REMARK  4 active torsions:
REMARK  status: ('A' for Active; 'I' for Inactive)
REMARK    1  A    between atoms: O1_1  and  C1_2 
REMARK    2  A    between atoms: C2_3  and  C3_4 
REMARK    3  A    between atoms: C5_8  and  C6_9 
REMARK    4  A    between atoms: C13_17  and  C14_18 
ROOT
HETATM    1  C3  UNL     1      21.115   0.643  51.378  1.00  0.00     0.075 A 
HETATM    2  N1  UNL     1      21.536   1.292  50.302  1.00  0.00    -0.241 NA
HETATM    3  C4  UNL     1      22.781   1.758  50.184  1.00  0.00     0.234 A 
HETATM    4  N2  UNL     1      23.558   1.511  51.243  1.00  0.00    -0.243 NA
HETATM    5  C5  UNL     1      23.188   0.862  52.350  1.00  0.00     0.079 A 
HETATM    6  C13 UNL     1      21.904   0.389  52.457  1.00  0.00     0.056 A 
ENDROOT
BRANCH   5   7
HETATM    7  C6  UNL     1      24.195   0.674  53.457  1.00  0.00     0.183 C 
HETATM    8  C7  UNL     1      25.015   1.886  53.495  1.00  0.00     0.003 C 
HETATM    9  C8  UNL     1      26.216   2.450  53.571  1.00  0.00    -0.024 C 
HETATM   10  C9  UNL     1      27.560   1.873  53.675  1.00  0.00     0.054 C 
HETATM   11  C10 UNL     1      27.800   0.703  52.803  1.00  0.00    -0.022 C 
HETATM   12  C11 UNL     1      27.233  -0.455  52.511  1.00  0.00     0.015 C 
HETATM   13  C12 UNL     1      26.008  -1.060  53.016  1.00  0.00     0.111 C 
HETATM   14  N3  UNL     1      24.869  -0.569  53.362  1.00  0.00    -0.286 NA
ENDBRANCH   5   7
BRANCH   6  15
HETATM   15  C14 UNL     1      21.480  -0.314  53.641  1.00  0.00     0.112 A 
HETATM   16  C15 UNL     1      21.170  -1.473  54.336  1.00  0.00     0.180 A 
HETATM   17  O2  UNL     1      21.086  -0.273  54.931  1.00  0.00    -0.317 OA
ENDBRANCH   6  15
BRANCH   1  18
HETATM   18  C2  UNL     1      19.738   0.221  51.316  1.00  0.00     0.056 C 
HETATM   19  C1  UNL     1      18.519   0.167  51.786  1.00  0.00     0.133 C 
BRANCH  19  20
HETATM   20  O1  UNL     1      17.219  -0.283  51.644  1.00  0.00    -0.373 OA
HETATM   21  H1  UNL     1      16.501  -0.232  52.359  1.00  0.00     0.216 HD
ENDBRANCH  19  20
ENDBRANCH   1  18
TORSDOF 4
ENDMDL
MODEL 8
REMARK VINA RESULT:      -6.5      3.333      6.685
REMARK  4 active torsions:
REMARK  status: ('A' for Active; 'I' for Inactive)
REMARK    1  A    between atoms: O1_1  and  C1_2 
REMARK    2  A    between atoms: C2_3  and  C3_4 
REMARK    3  A    between atoms: C5_8  and  C6_9 
REMARK    4  A    between atoms: C13_17  and  C14_18 
ROOT
HETATM    1  C3  UNL     1      26.110   0.473  52.821  1.00  0.00     0.075 A 
HETATM    2  N1  UNL     1      25.463  -0.376  53.607  1.00  0.00    -0.241 NA
HETATM    3  C4  UNL     1      24.132  -0.448  53.645  1.00  0.00     0.234 A 
HETATM    4  N2  UNL     1      23.514   0.407  52.825  1.00  0.00    -0.243 NA
HETATM    5  C5  UNL     1      24.113   1.281  52.012  1.00  0.00     0.079 A 
HETATM    6  C13 UNL     1      25.484   1.345  51.984  1.00  0.00     0.056 A 
ENDROOT
BRANCH   5   7
HETATM    7  C6  UNL     1      23.262   2.181  51.152  1.00  0.00     0.183 C 
HETATM    8  C7  UNL     1      22.413   2.955  52.059  1.00  0.00     0.003 C 
HETATM    9  C8  UNL     1      21.212   3.434  52.368  1.00  0.00    -0.024 C 
HETATM   10  C9  UNL     1      19.912   3.317  51.699  1.00  0.00     0.054 C 
HETATM   11  C10 UNL     1      19.604   1.968  51.178  1.00  0.00    -0.022 C 
HETATM   12  C11 UNL     1      20.169   1.035  50.430  1.00  0.00     0.015 C 
HETATM   13  C12 UNL     1      21.468   1.013  49.772  1.00  0.00     0.111 C 
HETATM   14  N3  UNL     1      22.624   1.473  50.104  1.00  0.00    -0.286 NA
ENDBRANCH   5   7
BRANCH   6  15
HETATM   15  C14 UNL     1      26.155   2.280  51.116  1.00  0.00     0.112 A 
HETATM   16  C15 UNL     1      26.353   2.889  49.886  1.00  0.00     0.180 A 
HETATM   17  O2  UNL     1      27.096   3.232  50.950  1.00  0.00    -0.317 OA
ENDBRANCH   6  15
BRANCH   1  18
HETATM   18  C2  UNL     1      27.546   0.401  52.923  1.00  0.00     0.056 C 
HETATM   19  C1  UNL     1      28.690   0.753  53.449  1.00  0.00     0.133 C 
BRANCH  19  20
HETATM   20  O1  UNL     1      30.066   0.618  53.475  1.00  0.00    -0.373 OA
HETATM   21  H1  UNL     1      30.594   0.147  54.203  1.00  0.00     0.216 HD
ENDBRANCH  19  20
ENDBRANCH   1  18
TORSDOF 4
ENDMDL
MODEL 9
REMARK VINA RESULT:      -6.5      3.296      6.297
REMARK  4 active torsions:
REMARK  status: ('A' for Active; 'I' for Inactive)
REMARK    1  A    between atoms: O1_1  and  C1_2 
REMARK    2  A    between atoms: C2_3  and  C3_4 
REMARK    3  A    between atoms: C5_8  and  C6_9 
REMARK    4  A    between atoms: C13_17  and  C14_18 
ROOT
HETATM    1  C3  UNL     1      24.964   0.006  52.957  1.00  0.00     0.075 A 
HETATM    2  N1  UNL     1      23.729  -0.463  53.066  1.00  0.00    -0.241 NA
HETATM    3  C4  UNL     1      22.651   0.301  52.879  1.00  0.00     0.234 A 
HETATM    4  N2  UNL     1      22.929   1.572  52.573  1.00  0.00    -0.243 NA
HETATM    5  C5  UNL     1      24.150   2.097  52.450  1.00  0.00     0.079 A 
HETATM    6  C13 UNL     1      25.250   1.300  52.646  1.00  0.00     0.056 A 
ENDROOT
BRANCH   5   7
HETATM    7  C6  UNL     1      24.285   3.559  52.104  1.00  0.00     0.183 C 
HETATM    8  C7  UNL     1      23.029   4.203  52.493  1.00  0.00     0.003 C 
HETATM    9  C8  UNL     1      22.037   5.038  52.202  1.00  0.00    -0.024 C 
HETATM   10  C9  UNL     1      21.770   5.862  51.018  1.00  0.00     0.054 C 
HETATM   11  C10 UNL     1      22.024   5.189  49.726  1.00  0.00    -0.022 C 
HETATM   12  C11 UNL     1      22.983   4.498  49.134  1.00  0.00     0.015 C 
HETATM   13  C12 UNL     1      24.300   4.107  49.618  1.00  0.00     0.111 C 
HETATM   14  N3  UNL     1      24.738   3.756  50.777  1.00  0.00    -0.286 NA
ENDBRANCH   5   7
BRANCH   6  15
HETATM   15  C14 UNL     1      26.579   1.842  52.518  1.00  0.00     0.112 A 
HETATM   16  C15 UNL     1      27.812   2.204  53.038  1.00  0.00     0.180 A 
HETATM   17  O2  UNL     1      27.535   2.384  51.737  1.00  0.00    -0.317 OA
ENDBRANCH   6  15
BRANCH   1  18
HETATM   18  C2  UNL     1      25.994  -0.974  53.197  1.00  0.00     0.056 C 
HETATM   19  C1  UNL     1      26.884  -1.843  52.794  1.00  0.00     0.133 C 
BRANCH  19  20
HETATM   20  O1  UNL     1      27.860  -2.767  53.119  1.00  0.00    -0.373 OA
HETATM   21  H1  UNL     1      28.448  -2.731  53.946  1.00  0.00     0.216 HD
ENDBRANCH  19  20
ENDBRANCH   1  18
TORSDOF 4
ENDMDL
