MODEL 1
REMARK VINA RESULT:      -7.8      0.000      0.000
REMARK  4 active torsions:
REMARK  status: ('A' for Active; 'I' for Inactive)
REMARK    1  A    between atoms: O1_2  and  C2_3 
REMARK    2  A    between atoms: C7_8  and  O2_9 
REMARK    3  A    between atoms: C9_11  and  N1_12 
REMARK    4  A    between atoms: N1_12  and  C10_13 
ROOT
HETATM    1  C2  UNL     1      19.756  -0.157  52.562  1.00  0.00     0.103 A 
HETATM    2  C3  UNL     1      20.134  -0.750  53.760  1.00  0.00     0.074 A 
HETATM    3  C4  UNL     1      21.463  -0.846  54.115  1.00  0.00     0.103 A 
HETATM    4  C5  UNL     1      22.401  -0.328  53.232  1.00  0.00     0.044 A 
HETATM    5  C6  UNL     1      22.052   0.261  52.046  1.00  0.00     0.057 A 
HETATM    6  C7  UNL     1      20.704   0.358  51.685  1.00  0.00     0.102 A 
HETATM    7  C9  UNL     1      23.707  -0.400  53.538  1.00  0.00     0.141 A 
HETATM    8  N2  UNL     1      24.082  -1.011  54.768  1.00  0.00    -0.223 N 
HETATM    9  O3  UNL     1      23.117  -1.522  55.637  1.00  0.00    -0.130 OA
HETATM   10  N3  UNL     1      21.791  -1.398  55.227  1.00  0.00    -0.106 NA
HETATM   11  H14 UNL     1      25.071  -1.122  55.113  1.00  0.00     0.198 HD
ENDROOT
BRANCH   7  12
HETATM   12  N1  UNL     1      24.721   0.096  52.705  1.00  0.00    -0.340 N 
HETATM   13  H9  UNL     1      24.371   0.041  51.736  1.00  0.00     0.167 HD
BRANCH  12  14
HETATM   14  C10 UNL     1      25.996   0.590  53.080  1.00  0.00     0.035 A 
HETATM   15  C11 UNL     1      26.165   1.900  53.393  1.00  0.00     0.029 A 
HETATM   16  C12 UNL     1      27.458   2.284  53.749  1.00  0.00     0.004 A 
HETATM   17  C13 UNL     1      28.502   1.376  53.779  1.00  0.00     0.019 A 
HETATM   18  C14 UNL     1      28.288   0.035  53.448  1.00  0.00     0.013 A 
HETATM   19 BR1  UNL     1      29.693  -1.257  53.473  1.00  0.00    -0.051 Br
HETATM   20  C15 UNL     1      27.025  -0.326  53.103  1.00  0.00     0.048 A 
ENDBRANCH  12  14
ENDBRANCH   7  12
BRANCH   6  21
HETATM   21  O2  UNL     1      20.347   0.955  50.482  1.00  0.00    -0.353 OA
HETATM   22  C8  UNL     1      20.548   2.357  50.393  1.00  0.00     0.210 C 
ENDBRANCH   6  21
BRANCH   1  23
HETATM   23  O1  UNL     1      18.446  -0.042  52.172  1.00  0.00    -0.353 OA
HETATM   24  C1  UNL     1      17.425  -0.962  52.461  1.00  0.00     0.210 C 
ENDBRANCH   1  23
TORSDOF 4
ENDMDL
MODEL 2
REMARK VINA RESULT:      -7.6      3.730      7.392
REMARK  4 active torsions:
REMARK  status: ('A' for Active; 'I' for Inactive)
REMARK    1  A    between atoms: O1_2  and  C2_3 
REMARK    2  A    between atoms: C7_8  and  O2_9 
REMARK    3  A    between atoms: C9_11  and  N1_12 
REMARK    4  A    between atoms: N1_12  and  C10_13 
ROOT
HETATM    1  C2  UNL     1      26.416   1.174  54.043  1.00  0.00     0.103 A 
HETATM    2  C3  UNL     1      25.874   2.440  53.860  1.00  0.00     0.074 A 
HETATM    3  C4  UNL     1      24.660   2.607  53.228  1.00  0.00     0.103 A 
HETATM    4  C5  UNL     1      24.006   1.465  52.786  1.00  0.00     0.044 A 
HETATM    5  C6  UNL     1      24.520   0.207  52.955  1.00  0.00     0.057 A 
HETATM    6  C7  UNL     1      25.752   0.038  53.596  1.00  0.00     0.102 A 
HETATM    7  C9  UNL     1      22.820   1.581  52.165  1.00  0.00     0.141 A 
HETATM    8  N2  UNL     1      22.276   2.884  51.983  1.00  0.00    -0.223 N 
HETATM    9  O3  UNL     1      22.956   4.014  52.438  1.00  0.00    -0.130 OA
HETATM   10  N3  UNL     1      24.178   3.786  53.069  1.00  0.00    -0.106 NA
HETATM   11  H14 UNL     1      21.357   3.097  51.513  1.00  0.00     0.198 HD
ENDROOT
BRANCH   7  12
HETATM   12  N1  UNL     1      22.091   0.482  51.687  1.00  0.00    -0.340 N 
HETATM   13  H9  UNL     1      22.690  -0.003  51.001  1.00  0.00     0.167 HD
BRANCH  12  14
HETATM   14  C10 UNL     1      20.781   0.079  52.049  1.00  0.00     0.035 A 
HETATM   15  C11 UNL     1      20.547  -0.507  53.251  1.00  0.00     0.029 A 
HETATM   16  C12 UNL     1      19.224  -0.867  53.511  1.00  0.00     0.004 A 
HETATM   17  C13 UNL     1      18.216  -0.636  52.592  1.00  0.00     0.019 A 
HETATM   18  C14 UNL     1      18.498  -0.030  51.363  1.00  0.00     0.013 A 
HETATM   19 BR1  UNL     1      17.145   0.310  50.061  1.00  0.00    -0.051 Br
HETATM   20  C15 UNL     1      19.789   0.314  51.123  1.00  0.00     0.048 A 
ENDBRANCH  12  14
ENDBRANCH   7  12
BRANCH   6  21
HETATM   21  O2  UNL     1      26.277  -1.238  53.769  1.00  0.00    -0.353 OA
HETATM   22  C8  UNL     1      26.856  -1.839  52.621  1.00  0.00     0.210 C 
ENDBRANCH   6  21
BRANCH   1  23
HETATM   23  O1  UNL     1      27.620   0.965  54.665  1.00  0.00    -0.353 OA
HETATM   24  C1  UNL     1      28.884   1.206  54.100  1.00  0.00     0.210 C 
ENDBRANCH   1  23
TORSDOF 4
ENDMDL
MODEL 3
REMARK VINA RESULT:      -7.4      3.957      6.575
REMARK  4 active torsions:
REMARK  status: ('A' for Active; 'I' for Inactive)
REMARK    1  A    between atoms: O1_2  and  C2_3 
REMARK    2  A    between atoms: C7_8  and  O2_9 
REMARK    3  A    between atoms: C9_11  and  N1_12 
REMARK    4  A    between atoms: N1_12  and  C10_13 
ROOT
HETATM    1  C2  UNL     1      26.689   0.090  54.218  1.00  0.00     0.103 A 
HETATM    2  C3  UNL     1      25.581  -0.694  53.922  1.00  0.00     0.074 A 
HETATM    3  C4  UNL     1      24.428  -0.130  53.417  1.00  0.00     0.103 A 
HETATM    4  C5  UNL     1      24.421   1.243  53.218  1.00  0.00     0.044 A 
HETATM    5  C6  UNL     1      25.500   2.037  53.502  1.00  0.00     0.057 A 
HETATM    6  C7  UNL     1      26.670   1.465  54.014  1.00  0.00     0.102 A 
HETATM    7  C9  UNL     1      23.318   1.835  52.728  1.00  0.00     0.141 A 
HETATM    8  N2  UNL     1      22.189   1.020  52.429  1.00  0.00    -0.223 N 
HETATM    9  O3  UNL     1      22.225  -0.359  52.639  1.00  0.00    -0.130 OA
HETATM   10  N3  UNL     1      23.415  -0.873  53.151  1.00  0.00    -0.106 NA
HETATM   11  H14 UNL     1      21.275   1.371  52.041  1.00  0.00     0.198 HD
ENDROOT
BRANCH   7  12
HETATM   12  N1  UNL     1      23.224   3.215  52.496  1.00  0.00    -0.340 N 
HETATM   13  H9  UNL     1      22.887   3.647  53.370  1.00  0.00     0.167 HD
BRANCH  12  14
HETATM   14  C10 UNL     1      23.525   3.923  51.305  1.00  0.00     0.035 A 
HETATM   15  C11 UNL     1      23.705   3.260  50.134  1.00  0.00     0.029 A 
HETATM   16  C12 UNL     1      23.997   4.047  49.021  1.00  0.00     0.004 A 
HETATM   17  C13 UNL     1      24.095   5.425  49.113  1.00  0.00     0.019 A 
HETATM   18  C14 UNL     1      23.902   6.072  50.337  1.00  0.00     0.013 A 
HETATM   19 BR1  UNL     1      24.026   7.968  50.518  1.00  0.00    -0.051 Br
HETATM   20  C15 UNL     1      23.619   5.293  51.413  1.00  0.00     0.048 A 
ENDBRANCH  12  14
ENDBRANCH   7  12
BRANCH   6  21
HETATM   21  O2  UNL     1      27.767   2.268  54.304  1.00  0.00    -0.353 OA
HETATM   22  C8  UNL     1      28.634   2.563  53.219  1.00  0.00     0.210 C 
ENDBRANCH   6  21
BRANCH   1  23
HETATM   23  O1  UNL     1      27.853  -0.430  54.721  1.00  0.00    -0.353 OA
HETATM   24  C1  UNL     1      28.915  -0.942  53.958  1.00  0.00     0.210 C 
ENDBRANCH   1  23
TORSDOF 4
ENDMDL
MODEL 4
REMARK VINA RESULT:      -7.4      3.591      6.706
REMARK  4 active torsions:
REMARK  status: ('A' for Active; 'I' for Inactive)
REMARK    1  A    between atoms: O1_2  and  C2_3 
REMARK    2  A    between atoms: C7_8  and  O2_9 
REMARK    3  A    between atoms: C9_11  and  N1_12 
REMARK    4  A    between atoms: N1_12  and  C10_13 
ROOT
HETATM    1  C2  UNL     1      26.170   0.294  54.594  1.00  0.00     0.103 A 
HETATM    2  C3  UNL     1      25.362  -0.538  55.359  1.00  0.00     0.074 A 
HETATM    3  C4  UNL     1      24.088  -0.863  54.946  1.00  0.00     0.103 A 
HETATM    4  C5  UNL     1      23.648  -0.328  53.743  1.00  0.00     0.044 A 
HETATM    5  C6  UNL     1      24.426   0.495  52.972  1.00  0.00     0.057 A 
HETATM    6  C7  UNL     1      25.719   0.824  53.391  1.00  0.00     0.102 A 
HETATM    7  C9  UNL     1      22.412  -0.618  53.303  1.00  0.00     0.141 A 
HETATM    8  N2  UNL     1      21.594  -1.472  54.096  1.00  0.00    -0.223 N 
HETATM    9  O3  UNL     1      22.063  -1.996  55.301  1.00  0.00    -0.130 OA
HETATM   10  N3  UNL     1      23.357  -1.634  55.668  1.00  0.00    -0.106 NA
HETATM   11  H14 UNL     1      20.613  -1.769  53.852  1.00  0.00     0.198 HD
ENDROOT
BRANCH   7  12
HETATM   12  N1  UNL     1      21.888  -0.121  52.100  1.00  0.00    -0.340 N 
HETATM   13  H9  UNL     1      22.456  -0.516  51.336  1.00  0.00     0.167 HD
BRANCH  12  14
HETATM   14  C10 UNL     1      20.789   0.757  51.924  1.00  0.00     0.035 A 
HETATM   15  C11 UNL     1      20.856   2.042  52.355  1.00  0.00     0.029 A 
HETATM   16  C12 UNL     1      19.722   2.824  52.134  1.00  0.00     0.004 A 
HETATM   17  C13 UNL     1      18.598   2.311  51.510  1.00  0.00     0.019 A 
HETATM   18  C14 UNL     1      18.567   0.981  51.080  1.00  0.00     0.013 A 
HETATM   19 BR1  UNL     1      17.043   0.225  50.216  1.00  0.00    -0.051 Br
HETATM   20  C15 UNL     1      19.677   0.231  51.302  1.00  0.00     0.048 A 
ENDBRANCH  12  14
ENDBRANCH   7  12
BRANCH   6  21
HETATM   21  O2  UNL     1      26.511   1.659  52.611  1.00  0.00    -0.353 OA
HETATM   22  C8  UNL     1      25.852   2.346  51.558  1.00  0.00     0.210 C 
ENDBRANCH   6  21
BRANCH   1  23
HETATM   23  O1  UNL     1      27.443   0.642  54.969  1.00  0.00    -0.353 OA
HETATM   24  C1  UNL     1      28.609  -0.080  54.665  1.00  0.00     0.210 C 
ENDBRANCH   1  23
TORSDOF 4
ENDMDL
MODEL 5
REMARK VINA RESULT:      -7.3      4.434      5.402
REMARK  4 active torsions:
REMARK  status: ('A' for Active; 'I' for Inactive)
REMARK    1  A    between atoms: O1_2  and  C2_3 
REMARK    2  A    between atoms: C7_8  and  O2_9 
REMARK    3  A    between atoms: C9_11  and  N1_12 
REMARK    4  A    between atoms: N1_12  and  C10_13 
ROOT
HETATM    1  C2  UNL     1      23.013   0.337  53.014  1.00  0.00     0.103 A 
HETATM    2  C3  UNL     1      24.205   0.545  53.695  1.00  0.00     0.074 A 
HETATM    3  C4  UNL     1      25.222   1.287  53.134  1.00  0.00     0.103 A 
HETATM    4  C5  UNL     1      25.007   1.815  51.868  1.00  0.00     0.044 A 
HETATM    5  C6  UNL     1      23.840   1.623  51.176  1.00  0.00     0.057 A 
HETATM    6  C7  UNL     1      22.808   0.870  51.746  1.00  0.00     0.102 A 
HETATM    7  C9  UNL     1      25.971   2.545  51.283  1.00  0.00     0.141 A 
HETATM    8  N2  UNL     1      27.189   2.751  51.992  1.00  0.00    -0.223 N 
HETATM    9  O3  UNL     1      27.377   2.209  53.264  1.00  0.00    -0.130 OA
HETATM   10  N3  UNL     1      26.317   1.468  53.782  1.00  0.00    -0.106 NA
HETATM   11  H14 UNL     1      28.011   3.304  51.636  1.00  0.00     0.198 HD
ENDROOT
BRANCH   7  12
HETATM   12  N1  UNL     1      25.839   3.114  50.008  1.00  0.00    -0.340 N 
HETATM   13  H9  UNL     1      25.427   2.394  49.395  1.00  0.00     0.167 HD
BRANCH  12  14
HETATM   14  C10 UNL     1      26.189   4.425  49.596  1.00  0.00     0.035 A 
HETATM   15  C11 UNL     1      27.290   4.637  48.830  1.00  0.00     0.029 A 
HETATM   16  C12 UNL     1      27.548   5.962  48.478  1.00  0.00     0.004 A 
HETATM   17  C13 UNL     1      26.724   6.995  48.891  1.00  0.00     0.019 A 
HETATM   18  C14 UNL     1      25.599   6.736  49.680  1.00  0.00     0.013 A 
HETATM   19 BR1  UNL     1      24.432   8.124  50.276  1.00  0.00    -0.051 Br
HETATM   20  C15 UNL     1      25.360   5.442  50.016  1.00  0.00     0.048 A 
ENDBRANCH  12  14
ENDBRANCH   7  12
BRANCH   6  21
HETATM   21  O2  UNL     1      21.623   0.673  51.047  1.00  0.00    -0.353 OA
HETATM   22  C8  UNL     1      21.629   1.060  49.681  1.00  0.00     0.210 C 
ENDBRANCH   6  21
BRANCH   1  23
HETATM   23  O1  UNL     1      21.977  -0.396  53.535  1.00  0.00    -0.353 OA
HETATM   24  C1  UNL     1      21.097   0.037  54.541  1.00  0.00     0.210 C 
ENDBRANCH   1  23
TORSDOF 4
ENDMDL
MODEL 6
REMARK VINA RESULT:      -7.3      3.210      6.071
REMARK  4 active torsions:
REMARK  status: ('A' for Active; 'I' for Inactive)
REMARK    1  A    between atoms: O1_2  and  C2_3 
REMARK    2  A    between atoms: C7_8  and  O2_9 
REMARK    3  A    between atoms: C9_11  and  N1_12 
REMARK    4  A    between atoms: N1_12  and  C10_13 
ROOT
HETATM    1  C2  UNL     1      26.150   0.258  54.570  1.00  0.00     0.103 A 
HETATM    2  C3  UNL     1      25.334  -0.546  55.355  1.00  0.00     0.074 A 
HETATM    3  C4  UNL     1      24.058  -0.874  54.947  1.00  0.00     0.103 A 
HETATM    4  C5  UNL     1      23.626  -0.369  53.729  1.00  0.00     0.044 A 
HETATM    5  C6  UNL     1      24.412   0.426  52.937  1.00  0.00     0.057 A 
HETATM    6  C7  UNL     1      25.707   0.758  53.351  1.00  0.00     0.102 A 
HETATM    7  C9  UNL     1      22.389  -0.663  53.292  1.00  0.00     0.141 A 
HETATM    8  N2  UNL     1      21.563  -1.488  54.106  1.00  0.00    -0.223 N 
HETATM    9  O3  UNL     1      22.024  -1.982  55.327  1.00  0.00    -0.130 OA
HETATM   10  N3  UNL     1      23.320  -1.619  55.688  1.00  0.00    -0.106 NA
HETATM   11  H14 UNL     1      20.580  -1.784  53.868  1.00  0.00     0.198 HD
ENDROOT
BRANCH   7  12
HETATM   12  N1  UNL     1      21.872  -0.196  52.075  1.00  0.00    -0.340 N 
HETATM   13  H9  UNL     1      21.816  -1.005  51.439  1.00  0.00     0.167 HD
BRANCH  12  14
HETATM   14  C10 UNL     1      21.487   1.127  51.740  1.00  0.00     0.035 A 
HETATM   15  C11 UNL     1      20.705   1.852  52.580  1.00  0.00     0.029 A 
HETATM   16  C12 UNL     1      20.382   3.142  52.158  1.00  0.00     0.004 A 
HETATM   17  C13 UNL     1      20.836   3.646  50.952  1.00  0.00     0.019 A 
HETATM   18  C14 UNL     1      21.640   2.867  50.114  1.00  0.00     0.013 A 
HETATM   19 BR1  UNL     1      22.292   3.514  48.440  1.00  0.00    -0.051 Br
HETATM   20  C15 UNL     1      21.946   1.613  50.535  1.00  0.00     0.048 A 
ENDBRANCH  12  14
ENDBRANCH   7  12
BRANCH   6  21
HETATM   21  O2  UNL     1      26.507   1.566  52.551  1.00  0.00    -0.353 OA
HETATM   22  C8  UNL     1      25.836   2.330  51.560  1.00  0.00     0.210 C 
ENDBRANCH   6  21
BRANCH   1  23
HETATM   23  O1  UNL     1      27.424   0.608  54.939  1.00  0.00    -0.353 OA
HETATM   24  C1  UNL     1      28.590  -0.113  54.629  1.00  0.00     0.210 C 
ENDBRANCH   1  23
TORSDOF 4
ENDMDL
MODEL 7
REMARK VINA RESULT:      -7.1      8.898     12.123
REMARK  4 active torsions:
REMARK  status: ('A' for Active; 'I' for Inactive)
REMARK    1  A    between atoms: O1_2  and  C2_3 
REMARK    2  A    between atoms: C7_8  and  O2_9 
REMARK    3  A    between atoms: C9_11  and  N1_12 
REMARK    4  A    between atoms: N1_12  and  C10_13 
ROOT
HETATM    1  C2  UNL     1      33.130   5.849  48.474  1.00  0.00     0.103 A 
HETATM    2  C3  UNL     1      32.829   7.106  48.982  1.00  0.00     0.074 A 
HETATM    3  C4  UNL     1      31.532   7.574  48.996  1.00  0.00     0.103 A 
HETATM    4  C5  UNL     1      30.546   6.741  48.484  1.00  0.00     0.044 A 
HETATM    5  C6  UNL     1      30.818   5.498  47.977  1.00  0.00     0.057 A 
HETATM    6  C7  UNL     1      32.134   5.024  47.963  1.00  0.00     0.102 A 
HETATM    7  C9  UNL     1      29.268   7.157  48.478  1.00  0.00     0.141 A 
HETATM    8  N2  UNL     1      28.973   8.447  49.002  1.00  0.00    -0.223 N 
HETATM    9  O3  UNL     1      29.984   9.262  49.510  1.00  0.00    -0.130 OA
HETATM   10  N3  UNL     1      31.276   8.739  49.471  1.00  0.00    -0.106 NA
HETATM   11  H14 UNL     1      28.012   8.877  49.049  1.00  0.00     0.198 HD
ENDROOT
BRANCH   7  12
HETATM   12  N1  UNL     1      28.210   6.382  47.980  1.00  0.00    -0.340 N 
HETATM   13  H9  UNL     1      28.286   6.389  46.952  1.00  0.00     0.167 HD
BRANCH  12  14
HETATM   14  C10 UNL     1      27.206   5.701  48.714  1.00  0.00     0.035 A 
HETATM   15  C11 UNL     1      27.273   4.357  48.893  1.00  0.00     0.029 A 
HETATM   16  C12 UNL     1      26.237   3.783  49.629  1.00  0.00     0.004 A 
HETATM   17  C13 UNL     1      25.203   4.546  50.144  1.00  0.00     0.019 A 
HETATM   18  C14 UNL     1      25.170   5.929  49.938  1.00  0.00     0.013 A 
HETATM   19 BR1  UNL     1      23.768   7.027  50.625  1.00  0.00    -0.051 Br
HETATM   20  C15 UNL     1      26.184   6.475  49.219  1.00  0.00     0.048 A 
ENDBRANCH  12  14
ENDBRANCH   7  12
BRANCH   6  21
HETATM   21  O2  UNL     1      32.413   3.763  47.449  1.00  0.00    -0.353 OA
HETATM   22  C8  UNL     1      32.546   3.676  46.038  1.00  0.00     0.210 C 
ENDBRANCH   6  21
BRANCH   1  23
HETATM   23  O1  UNL     1      34.406   5.347  48.441  1.00  0.00    -0.353 OA
HETATM   24  C1  UNL     1      35.517   5.899  49.099  1.00  0.00     0.210 C 
ENDBRANCH   1  23
TORSDOF 4
ENDMDL
MODEL 8
REMARK VINA RESULT:      -6.9      3.604      5.473
REMARK  4 active torsions:
REMARK  status: ('A' for Active; 'I' for Inactive)
REMARK    1  A    between atoms: O1_2  and  C2_3 
REMARK    2  A    between atoms: C7_8  and  O2_9 
REMARK    3  A    between atoms: C9_11  and  N1_12 
REMARK    4  A    between atoms: N1_12  and  C10_13 
ROOT
HETATM    1  C2  UNL     1      23.480   5.246  50.940  1.00  0.00     0.103 A 
HETATM    2  C3  UNL     1      22.165   5.197  51.383  1.00  0.00     0.074 A 
HETATM    3  C4  UNL     1      21.613   4.018  51.838  1.00  0.00     0.103 A 
HETATM    4  C5  UNL     1      22.422   2.890  51.835  1.00  0.00     0.044 A 
HETATM    5  C6  UNL     1      23.721   2.913  51.403  1.00  0.00     0.057 A 
HETATM    6  C7  UNL     1      24.281   4.110  50.941  1.00  0.00     0.102 A 
HETATM    7  C9  UNL     1      21.926   1.719  52.270  1.00  0.00     0.141 A 
HETATM    8  N2  UNL     1      20.576   1.682  52.722  1.00  0.00    -0.223 N 
HETATM    9  O3  UNL     1      19.786   2.833  52.714  1.00  0.00    -0.130 OA
HETATM   10  N3  UNL     1      20.395   3.995  52.244  1.00  0.00    -0.106 NA
HETATM   11  H14 UNL     1      20.081   0.826  53.084  1.00  0.00     0.198 HD
ENDROOT
BRANCH   7  12
HETATM   12  N1  UNL     1      22.671   0.531  52.301  1.00  0.00    -0.340 N 
HETATM   13  H9  UNL     1      22.661   0.142  51.346  1.00  0.00     0.167 HD
BRANCH  12  14
HETATM   14  C10 UNL     1      23.329  -0.058  53.410  1.00  0.00     0.035 A 
HETATM   15  C11 UNL     1      22.637  -0.807  54.306  1.00  0.00     0.029 A 
HETATM   16  C12 UNL     1      23.376  -1.342  55.361  1.00  0.00     0.004 A 
HETATM   17  C13 UNL     1      24.737  -1.117  55.480  1.00  0.00     0.019 A 
HETATM   18  C14 UNL     1      25.414  -0.339  54.537  1.00  0.00     0.013 A 
HETATM   19 BR1  UNL     1      27.289   0.003  54.656  1.00  0.00    -0.051 Br
HETATM   20  C15 UNL     1      24.683   0.176  53.516  1.00  0.00     0.048 A 
ENDBRANCH  12  14
ENDBRANCH   7  12
BRANCH   6  21
HETATM   21  O2  UNL     1      25.599   4.137  50.501  1.00  0.00    -0.353 OA
HETATM   22  C8  UNL     1      26.346   2.943  50.682  1.00  0.00     0.210 C 
ENDBRANCH   6  21
BRANCH   1  23
HETATM   23  O1  UNL     1      24.066   6.397  50.479  1.00  0.00    -0.353 OA
HETATM   24  C1  UNL     1      23.747   7.699  50.899  1.00  0.00     0.210 C 
ENDBRANCH   1  23
TORSDOF 4
ENDMDL
MODEL 9
REMARK VINA RESULT:      -6.7      3.044      3.482
REMARK  4 active torsions:
REMARK  status: ('A' for Active; 'I' for Inactive)
REMARK    1  A    between atoms: O1_2  and  C2_3 
REMARK    2  A    between atoms: C7_8  and  O2_9 
REMARK    3  A    between atoms: C9_11  and  N1_12 
REMARK    4  A    between atoms: N1_12  and  C10_13 
ROOT
HETATM    1  C2  UNL     1      19.401  -0.902  53.111  1.00  0.00     0.103 A 
HETATM    2  C3  UNL     1      20.200  -1.420  54.122  1.00  0.00     0.074 A 
HETATM    3  C4  UNL     1      21.549  -1.141  54.173  1.00  0.00     0.103 A 
HETATM    4  C5  UNL     1      22.072  -0.326  53.178  1.00  0.00     0.044 A 
HETATM    5  C6  UNL     1      21.305   0.196  52.171  1.00  0.00     0.057 A 
HETATM    6  C7  UNL     1      19.936  -0.087  52.120  1.00  0.00     0.102 A 
HETATM    7  C9  UNL     1      23.382  -0.028  53.189  1.00  0.00     0.141 A 
HETATM    8  N2  UNL     1      24.190  -0.565  54.231  1.00  0.00    -0.223 N 
HETATM    9  O3  UNL     1      23.637  -1.381  55.218  1.00  0.00    -0.130 OA
HETATM   10  N3  UNL     1      22.269  -1.630  55.117  1.00  0.00    -0.106 NA
HETATM   11  H14 UNL     1      25.225  -0.401  54.341  1.00  0.00     0.198 HD
ENDROOT
BRANCH   7  12
HETATM   12  N1  UNL     1      23.994   0.786  52.224  1.00  0.00    -0.340 N 
HETATM   13  H9  UNL     1      24.622   0.182  51.672  1.00  0.00     0.167 HD
BRANCH  12  14
HETATM   14  C10 UNL     1      23.812   2.176  52.012  1.00  0.00     0.035 A 
HETATM   15  C11 UNL     1      23.868   3.046  53.053  1.00  0.00     0.029 A 
HETATM   16  C12 UNL     1      23.676   4.391  52.739  1.00  0.00     0.004 A 
HETATM   17  C13 UNL     1      23.444   4.807  51.439  1.00  0.00     0.019 A 
HETATM   18  C14 UNL     1      23.393   3.880  50.394  1.00  0.00     0.013 A 
HETATM   19 BR1  UNL     1      23.076   4.400  48.585  1.00  0.00    -0.051 Br
HETATM   20  C15 UNL     1      23.581   2.573  50.713  1.00  0.00     0.048 A 
ENDBRANCH  12  14
ENDBRANCH   7  12
BRANCH   6  21
HETATM   21  O2  UNL     1      19.154   0.440  51.099  1.00  0.00    -0.353 OA
HETATM   22  C8  UNL     1      19.850   1.107  50.056  1.00  0.00     0.210 C 
ENDBRANCH   6  21
BRANCH   1  23
HETATM   23  O1  UNL     1      18.056  -1.156  53.024  1.00  0.00    -0.353 OA
HETATM   24  C1  UNL     1      17.426  -2.358  53.388  1.00  0.00     0.210 C 
ENDBRANCH   1  23
TORSDOF 4
ENDMDL
