MODEL 1
REMARK VINA RESULT:      -9.3      0.000      0.000
REMARK  2 active torsions:
REMARK  status: ('A' for Active; 'I' for Inactive)
REMARK    1  A    between atoms: C4_4  and  C5_5 
REMARK    2  A    between atoms: C15_19  and  C16_20 
ROOT
HETATM    1  C5  UNL     1      19.623   2.557  50.933  1.00  0.00     0.140 A 
HETATM    2  N1  UNL     1      19.902   3.396  51.977  1.00  0.00    -0.234 NA
HETATM    3  C6  UNL     1      20.959   4.144  51.619  1.00  0.00     0.071 A 
HETATM    4  C7  UNL     1      21.288   3.733  50.346  1.00  0.00     0.113 A 
HETATM    5  C8  UNL     1      22.272   4.174  49.447  1.00  0.00     0.179 A 
HETATM    6  N2  UNL     1      22.324   3.573  48.247  1.00  0.00    -0.238 NA
HETATM    7  C9  UNL     1      21.486   2.570  47.839  1.00  0.00     0.136 A 
HETATM    8  C10 UNL     1      20.499   2.136  48.732  1.00  0.00     0.118 A 
HETATM    9  N3  UNL     1      20.489   2.766  49.915  1.00  0.00    -0.301 N 
HETATM   10  N4  UNL     1      23.239   5.151  49.200  1.00  0.00    -0.224 NA
HETATM   11  C11 UNL     1      24.214   5.476  49.857  1.00  0.00     0.101 C 
HETATM   12  C12 UNL     1      25.024   4.512  50.168  1.00  0.00     0.024 A 
HETATM   13  C13 UNL     1      26.157   4.121  49.554  1.00  0.00     0.018 A 
HETATM   14  C14 UNL     1      26.733   3.089  50.218  1.00  0.00     0.033 A 
HETATM   15  C15 UNL     1      26.187   2.561  51.355  1.00  0.00     0.067 A 
HETATM   16  N5  UNL     1      25.053   3.111  51.783  1.00  0.00    -0.248 NA
HETATM   17  C22 UNL     1      24.354   4.121  51.260  1.00  0.00     0.066 A 
HETATM   18  C23 UNL     1      23.290   4.288  51.982  1.00  0.00     0.012 C 
HETATM   19  C24 UNL     1      22.051   5.157  51.945  1.00  0.00     0.091 C 
ENDROOT
BRANCH  15  20
HETATM   20  C16 UNL     1      26.830   1.434  52.069  1.00  0.00    -0.007 A 
HETATM   21  C17 UNL     1      27.866   1.791  52.918  1.00  0.00     0.014 A 
HETATM   22  C18 UNL     1      28.525   0.799  53.628  1.00  0.00     0.001 A 
HETATM   23  C19 UNL     1      28.148  -0.519  53.481  1.00  0.00     0.000 A 
HETATM   24  C20 UNL     1      27.106  -0.867  52.624  1.00  0.00     0.001 A 
HETATM   25  C21 UNL     1      26.451   0.128  51.917  1.00  0.00     0.014 A 
ENDBRANCH  15  20
BRANCH   1  26
HETATM   26  C4  UNL     1      18.508   1.581  50.991  1.00  0.00     0.194 C 
HETATM   27  C3  UNL     1      19.020   0.167  50.802  1.00  0.00     0.071 C 
HETATM   28  C2  UNL     1      19.093   0.279  52.309  1.00  0.00     0.121 C 
HETATM   29  C1  UNL     1      18.610  -0.916  53.078  1.00  0.00     0.040 C 
HETATM   30  O1  UNL     1      18.129   1.298  52.312  1.00  0.00    -0.373 OA
ENDBRANCH   1  26
TORSDOF 2
ENDMDL
MODEL 2
REMARK VINA RESULT:      -8.9      2.855      4.650
REMARK  2 active torsions:
REMARK  status: ('A' for Active; 'I' for Inactive)
REMARK    1  A    between atoms: C4_4  and  C5_5 
REMARK    2  A    between atoms: C15_19  and  C16_20 
ROOT
HETATM    1  C5  UNL     1      23.189   1.486  52.123  1.00  0.00     0.140 A 
HETATM    2  N1  UNL     1      23.479   2.441  53.060  1.00  0.00    -0.234 NA
HETATM    3  C6  UNL     1      23.108   3.628  52.552  1.00  0.00     0.071 A 
HETATM    4  C7  UNL     1      22.590   3.350  51.306  1.00  0.00     0.113 A 
HETATM    5  C8  UNL     1      22.012   4.177  50.330  1.00  0.00     0.179 A 
HETATM    6  N2  UNL     1      21.573   3.588  49.205  1.00  0.00    -0.238 NA
HETATM    7  C9  UNL     1      21.644   2.245  48.948  1.00  0.00     0.136 A 
HETATM    8  C10 UNL     1      22.212   1.420  49.926  1.00  0.00     0.118 A 
HETATM    9  N3  UNL     1      22.635   2.054  51.027  1.00  0.00    -0.301 N 
HETATM   10  N4  UNL     1      21.543   5.463  50.053  1.00  0.00    -0.224 NA
HETATM   11  C11 UNL     1      22.121   6.537  50.095  1.00  0.00     0.101 C 
HETATM   12  C12 UNL     1      23.219   6.606  49.408  1.00  0.00     0.024 A 
HETATM   13  C13 UNL     1      23.417   7.083  48.165  1.00  0.00     0.018 A 
HETATM   14  C14 UNL     1      24.728   7.008  47.823  1.00  0.00     0.033 A 
HETATM   15  C15 UNL     1      25.673   6.506  48.673  1.00  0.00     0.067 A 
HETATM   16  N5  UNL     1      25.244   6.089  49.862  1.00  0.00    -0.248 NA
HETATM   17  C22 UNL     1      24.006   6.087  50.361  1.00  0.00     0.066 A 
HETATM   18  C23 UNL     1      24.048   5.544  51.538  1.00  0.00     0.012 C 
HETATM   19  C24 UNL     1      23.057   5.151  52.613  1.00  0.00     0.091 C 
ENDROOT
BRANCH  15  20
HETATM   20  C16 UNL     1      27.100   6.432  48.284  1.00  0.00    -0.007 A 
HETATM   21  C17 UNL     1      27.585   7.546  47.617  1.00  0.00     0.014 A 
HETATM   22  C18 UNL     1      28.912   7.564  47.215  1.00  0.00     0.001 A 
HETATM   23  C19 UNL     1      29.725   6.484  47.480  1.00  0.00     0.000 A 
HETATM   24  C20 UNL     1      29.228   5.368  48.151  1.00  0.00     0.001 A 
HETATM   25  C21 UNL     1      27.902   5.355  48.550  1.00  0.00     0.014 A 
ENDBRANCH  15  20
BRANCH   1  26
HETATM   26  C4  UNL     1      23.474   0.050  52.356  1.00  0.00     0.194 C 
HETATM   27  C3  UNL     1      23.861  -0.193  53.801  1.00  0.00     0.071 C 
HETATM   28  C2  UNL     1      22.365  -0.406  53.885  1.00  0.00     0.121 C 
HETATM   29  C1  UNL     1      21.916  -1.579  54.705  1.00  0.00     0.040 C 
HETATM   30  O1  UNL     1      22.298  -0.698  52.515  1.00  0.00    -0.373 OA
ENDBRANCH   1  26
TORSDOF 2
ENDMDL
MODEL 3
REMARK VINA RESULT:      -8.8      1.258      1.661
REMARK  2 active torsions:
REMARK  status: ('A' for Active; 'I' for Inactive)
REMARK    1  A    between atoms: C4_4  and  C5_5 
REMARK    2  A    between atoms: C15_19  and  C16_20 
ROOT
HETATM    1  C5  UNL     1      19.589   3.113  50.383  1.00  0.00     0.140 A 
HETATM    2  N1  UNL     1      19.854   3.974  51.414  1.00  0.00    -0.234 NA
HETATM    3  C6  UNL     1      20.951   4.674  51.081  1.00  0.00     0.071 A 
HETATM    4  C7  UNL     1      21.318   4.213  49.835  1.00  0.00     0.113 A 
HETATM    5  C8  UNL     1      22.354   4.593  48.968  1.00  0.00     0.179 A 
HETATM    6  N2  UNL     1      22.436   3.954  47.788  1.00  0.00    -0.238 NA
HETATM    7  C9  UNL     1      21.580   2.969  47.374  1.00  0.00     0.136 A 
HETATM    8  C10 UNL     1      20.541   2.597  48.235  1.00  0.00     0.118 A 
HETATM    9  N3  UNL     1      20.504   3.262  49.398  1.00  0.00    -0.301 N 
HETATM   10  N4  UNL     1      23.365   5.528  48.734  1.00  0.00    -0.224 NA
HETATM   11  C11 UNL     1      24.323   5.839  49.424  1.00  0.00     0.101 C 
HETATM   12  C12 UNL     1      25.084   4.857  49.796  1.00  0.00     0.024 A 
HETATM   13  C13 UNL     1      26.227   4.409  49.243  1.00  0.00     0.018 A 
HETATM   14  C14 UNL     1      26.737   3.377  49.962  1.00  0.00     0.033 A 
HETATM   15  C15 UNL     1      26.126   2.903  51.088  1.00  0.00     0.067 A 
HETATM   16  N5  UNL     1      24.995   3.504  51.451  1.00  0.00    -0.248 NA
HETATM   17  C22 UNL     1      24.355   4.522  50.870  1.00  0.00     0.066 A 
HETATM   18  C23 UNL     1      23.269   4.748  51.540  1.00  0.00     0.012 C 
HETATM   19  C24 UNL     1      22.064   5.658  51.424  1.00  0.00     0.091 C 
ENDROOT
BRANCH  15  20
HETATM   20  C16 UNL     1      26.697   1.776  51.861  1.00  0.00    -0.007 A 
HETATM   21  C17 UNL     1      27.769   2.107  52.675  1.00  0.00     0.014 A 
HETATM   22  C18 UNL     1      28.367   1.113  53.436  1.00  0.00     0.001 A 
HETATM   23  C19 UNL     1      27.893  -0.180  53.373  1.00  0.00     0.000 A 
HETATM   24  C20 UNL     1      26.815  -0.501  52.551  1.00  0.00     0.001 A 
HETATM   25  C21 UNL     1      26.222   0.495  51.793  1.00  0.00     0.014 A 
ENDBRANCH  15  20
BRANCH   1  26
HETATM   26  C4  UNL     1      18.438   2.179  50.421  1.00  0.00     0.194 C 
HETATM   27  C3  UNL     1      17.460   2.576  51.509  1.00  0.00     0.071 C 
HETATM   28  C2  UNL     1      16.886   3.346  50.340  1.00  0.00     0.121 C 
HETATM   29  C1  UNL     1      15.392   3.310  50.202  1.00  0.00     0.040 C 
HETATM   30  O1  UNL     1      17.494   2.473  49.425  1.00  0.00    -0.373 OA
ENDBRANCH   1  26
TORSDOF 2
ENDMDL
MODEL 4
REMARK VINA RESULT:      -8.6      3.245      5.091
REMARK  2 active torsions:
REMARK  status: ('A' for Active; 'I' for Inactive)
REMARK    1  A    between atoms: C4_4  and  C5_5 
REMARK    2  A    between atoms: C15_19  and  C16_20 
ROOT
HETATM    1  C5  UNL     1      23.554   2.777  51.241  1.00  0.00     0.140 A 
HETATM    2  N1  UNL     1      23.885   3.727  52.170  1.00  0.00    -0.234 NA
HETATM    3  C6  UNL     1      23.732   4.928  51.588  1.00  0.00     0.071 A 
HETATM    4  C7  UNL     1      23.300   4.664  50.306  1.00  0.00     0.113 A 
HETATM    5  C8  UNL     1      22.936   5.515  49.250  1.00  0.00     0.179 A 
HETATM    6  N2  UNL     1      22.527   4.939  48.108  1.00  0.00    -0.238 NA
HETATM    7  C9  UNL     1      22.434   3.588  47.905  1.00  0.00     0.136 A 
HETATM    8  C10 UNL     1      22.788   2.740  48.961  1.00  0.00     0.118 A 
HETATM    9  N3  UNL     1      23.190   3.363  50.077  1.00  0.00    -0.301 N 
HETATM   10  N4  UNL     1      22.679   6.838  48.885  1.00  0.00    -0.224 NA
HETATM   11  C11 UNL     1      23.395   7.825  48.948  1.00  0.00     0.101 C 
HETATM   12  C12 UNL     1      24.551   7.712  48.372  1.00  0.00     0.024 A 
HETATM   13  C13 UNL     1      24.930   8.099  47.139  1.00  0.00     0.018 A 
HETATM   14  C14 UNL     1      26.243   7.832  46.932  1.00  0.00     0.033 A 
HETATM   15  C15 UNL     1      27.026   7.247  47.888  1.00  0.00     0.067 A 
HETATM   16  N5  UNL     1      26.433   6.948  49.042  1.00  0.00    -0.248 NA
HETATM   17  C22 UNL     1      25.165   7.137  49.415  1.00  0.00     0.066 A 
HETATM   18  C23 UNL     1      25.021   6.650  50.608  1.00  0.00     0.012 C 
HETATM   19  C24 UNL     1      23.889   6.445  51.592  1.00  0.00     0.091 C 
ENDROOT
BRANCH  15  20
HETATM   20  C16 UNL     1      28.458   6.962  47.646  1.00  0.00    -0.007 A 
HETATM   21  C17 UNL     1      28.921   5.773  48.186  1.00  0.00     0.014 A 
HETATM   22  C18 UNL     1      30.251   5.425  48.007  1.00  0.00     0.001 A 
HETATM   23  C19 UNL     1      31.091   6.260  47.301  1.00  0.00     0.000 A 
HETATM   24  C20 UNL     1      30.616   7.454  46.762  1.00  0.00     0.001 A 
HETATM   25  C21 UNL     1      29.287   7.796  46.944  1.00  0.00     0.014 A 
ENDBRANCH  15  20
BRANCH   1  26
HETATM   26  C4  UNL     1      23.614   1.328  51.550  1.00  0.00     0.194 C 
HETATM   27  C3  UNL     1      23.846   1.103  53.031  1.00  0.00     0.071 C 
HETATM   28  C2  UNL     1      22.333   1.104  52.994  1.00  0.00     0.121 C 
HETATM   29  C1  UNL     1      21.659   0.044  53.815  1.00  0.00     0.040 C 
HETATM   30  O1  UNL     1      22.334   0.759  51.635  1.00  0.00    -0.373 OA
ENDBRANCH   1  26
TORSDOF 2
ENDMDL
MODEL 5
REMARK VINA RESULT:      -8.5      6.721     10.527
REMARK  2 active torsions:
REMARK  status: ('A' for Active; 'I' for Inactive)
REMARK    1  A    between atoms: C4_4  and  C5_5 
REMARK    2  A    between atoms: C15_19  and  C16_20 
ROOT
HETATM    1  C5  UNL     1      32.656   6.167  46.624  1.00  0.00     0.140 A 
HETATM    2  N1  UNL     1      31.935   6.527  45.518  1.00  0.00    -0.234 NA
HETATM    3  C6  UNL     1      31.090   7.503  45.890  1.00  0.00     0.071 A 
HETATM    4  C7  UNL     1      31.335   7.711  47.231  1.00  0.00     0.113 A 
HETATM    5  C8  UNL     1      30.792   8.624  48.148  1.00  0.00     0.179 A 
HETATM    6  N2  UNL     1      31.266   8.591  49.404  1.00  0.00    -0.238 NA
HETATM    7  C9  UNL     1      32.239   7.737  49.849  1.00  0.00     0.136 A 
HETATM    8  C10 UNL     1      32.786   6.832  48.932  1.00  0.00     0.118 A 
HETATM    9  N3  UNL     1      32.280   6.905  47.693  1.00  0.00    -0.301 N 
HETATM   10  N4  UNL     1      29.973   9.746  48.296  1.00  0.00    -0.224 NA
HETATM   11  C11 UNL     1      28.800   9.909  47.999  1.00  0.00     0.101 C 
HETATM   12  C12 UNL     1      27.977   9.033  48.485  1.00  0.00     0.024 A 
HETATM   13  C13 UNL     1      27.216   9.103  49.594  1.00  0.00     0.018 A 
HETATM   14  C14 UNL     1      26.461   7.985  49.732  1.00  0.00     0.033 A 
HETATM   15  C15 UNL     1      26.510   6.959  48.830  1.00  0.00     0.067 A 
HETATM   16  N5  UNL     1      27.342   7.108  47.801  1.00  0.00    -0.248 NA
HETATM   17  C22 UNL     1      28.151   8.129  47.511  1.00  0.00     0.066 A 
HETATM   18  C23 UNL     1      28.813   7.824  46.439  1.00  0.00     0.012 C 
HETATM   19  C24 UNL     1      29.919   8.438  45.607  1.00  0.00     0.091 C 
ENDROOT
BRANCH  15  20
HETATM   20  C16 UNL     1      25.678   5.745  48.996  1.00  0.00    -0.007 A 
HETATM   21  C17 UNL     1      26.373   4.603  49.361  1.00  0.00     0.014 A 
HETATM   22  C18 UNL     1      25.673   3.419  49.540  1.00  0.00     0.001 A 
HETATM   23  C19 UNL     1      24.308   3.392  49.351  1.00  0.00     0.000 A 
HETATM   24  C20 UNL     1      23.619   4.546  48.983  1.00  0.00     0.001 A 
HETATM   25  C21 UNL     1      24.323   5.725  48.806  1.00  0.00     0.014 A 
ENDBRANCH  15  20
BRANCH   1  26
HETATM   26  C4  UNL     1      33.688   5.103  46.571  1.00  0.00     0.194 C 
HETATM   27  C3  UNL     1      33.661   4.265  47.834  1.00  0.00     0.071 C 
HETATM   28  C2  UNL     1      32.704   3.476  46.967  1.00  0.00     0.121 C 
HETATM   29  C1  UNL     1      32.863   1.984  47.008  1.00  0.00     0.040 C 
HETATM   30  O1  UNL     1      33.271   4.008  45.800  1.00  0.00    -0.373 OA
ENDBRANCH   1  26
TORSDOF 2
ENDMDL
MODEL 6
REMARK VINA RESULT:      -8.2      8.272     11.657
REMARK  2 active torsions:
REMARK  status: ('A' for Active; 'I' for Inactive)
REMARK    1  A    between atoms: C4_4  and  C5_5 
REMARK    2  A    between atoms: C15_19  and  C16_20 
ROOT
HETATM    1  C5  UNL     1      29.064  12.724  46.664  1.00  0.00     0.140 A 
HETATM    2  N1  UNL     1      29.295  12.721  48.014  1.00  0.00    -0.234 NA
HETATM    3  C6  UNL     1      30.075  11.661  48.285  1.00  0.00     0.071 A 
HETATM    4  C7  UNL     1      30.301  11.049  47.071  1.00  0.00     0.113 A 
HETATM    5  C8  UNL     1      31.070   9.928  46.719  1.00  0.00     0.179 A 
HETATM    6  N2  UNL     1      31.107   9.590  45.420  1.00  0.00    -0.238 NA
HETATM    7  C9  UNL     1      30.457  10.261  44.420  1.00  0.00     0.136 A 
HETATM    8  C10 UNL     1      29.697  11.384  44.769  1.00  0.00     0.118 A 
HETATM    9  N3  UNL     1      29.691  11.679  46.076  1.00  0.00    -0.301 N 
HETATM   10  N4  UNL     1      32.003   8.993  47.174  1.00  0.00    -0.224 NA
HETATM   11  C11 UNL     1      31.933   8.198  48.098  1.00  0.00     0.101 C 
HETATM   12  C12 UNL     1      30.901   7.413  48.080  1.00  0.00     0.024 A 
HETATM   13  C13 UNL     1      30.796   6.155  47.612  1.00  0.00     0.018 A 
HETATM   14  C14 UNL     1      29.547   5.667  47.816  1.00  0.00     0.033 A 
HETATM   15  C15 UNL     1      28.569   6.405  48.423  1.00  0.00     0.067 A 
HETATM   16  N5  UNL     1      28.902   7.634  48.808  1.00  0.00    -0.248 NA
HETATM   17  C22 UNL     1      30.070   8.271  48.688  1.00  0.00     0.066 A 
HETATM   18  C23 UNL     1      29.924   9.470  49.159  1.00  0.00     0.012 C 
HETATM   19  C24 UNL     1      30.762  10.725  49.273  1.00  0.00     0.091 C 
ENDROOT
BRANCH  15  20
HETATM   20  C16 UNL     1      27.211   5.856  48.639  1.00  0.00    -0.007 A 
HETATM   21  C17 UNL     1      27.170   4.530  49.039  1.00  0.00     0.014 A 
HETATM   22  C18 UNL     1      25.938   3.934  49.266  1.00  0.00     0.001 A 
HETATM   23  C19 UNL     1      24.780   4.659  49.089  1.00  0.00     0.000 A 
HETATM   24  C20 UNL     1      24.832   5.992  48.686  1.00  0.00     0.001 A 
HETATM   25  C21 UNL     1      26.065   6.583  48.461  1.00  0.00     0.014 A 
ENDBRANCH  15  20
BRANCH   1  26
HETATM   26  C4  UNL     1      28.230  13.764  46.017  1.00  0.00     0.194 C 
HETATM   27  C3  UNL     1      27.922  14.887  46.988  1.00  0.00     0.071 C 
HETATM   28  C2  UNL     1      29.193  15.417  46.360  1.00  0.00     0.121 C 
HETATM   29  C1  UNL     1      29.190  16.876  46.009  1.00  0.00     0.040 C 
HETATM   30  O1  UNL     1      28.996  14.627  45.218  1.00  0.00    -0.373 OA
ENDBRANCH   1  26
TORSDOF 2
ENDMDL
MODEL 7
REMARK VINA RESULT:      -8.2      7.310      9.685
REMARK  2 active torsions:
REMARK  status: ('A' for Active; 'I' for Inactive)
REMARK    1  A    between atoms: C4_4  and  C5_5 
REMARK    2  A    between atoms: C15_19  and  C16_20 
ROOT
HETATM    1  C5  UNL     1      27.181   8.948  48.674  1.00  0.00     0.140 A 
HETATM    2  N1  UNL     1      27.942   9.163  49.791  1.00  0.00    -0.234 NA
HETATM    3  C6  UNL     1      29.144   9.599  49.379  1.00  0.00     0.071 A 
HETATM    4  C7  UNL     1      29.070   9.642  48.003  1.00  0.00     0.113 A 
HETATM    5  C8  UNL     1      29.995  10.052  47.031  1.00  0.00     0.179 A 
HETATM    6  N2  UNL     1      29.606   9.994  45.747  1.00  0.00    -0.238 NA
HETATM    7  C9  UNL     1      28.375   9.570  45.323  1.00  0.00     0.136 A 
HETATM    8  C10 UNL     1      27.449   9.170  46.293  1.00  0.00     0.118 A 
HETATM    9  N3  UNL     1      27.886   9.246  47.558  1.00  0.00    -0.301 N 
HETATM   10  N4  UNL     1      31.229  10.671  46.815  1.00  0.00    -0.224 NA
HETATM   11  C11 UNL     1      32.341  10.369  47.219  1.00  0.00     0.101 C 
HETATM   12  C12 UNL     1      32.715   9.154  46.967  1.00  0.00     0.024 A 
HETATM   13  C13 UNL     1      33.473   8.689  45.955  1.00  0.00     0.018 A 
HETATM   14  C14 UNL     1      33.664   7.351  46.072  1.00  0.00     0.033 A 
HETATM   15  C15 UNL     1      33.133   6.628  47.104  1.00  0.00     0.067 A 
HETATM   16  N5  UNL     1      32.411   7.303  47.995  1.00  0.00    -0.248 NA
HETATM   17  C22 UNL     1      32.122   8.606  48.037  1.00  0.00     0.066 A 
HETATM   18  C23 UNL     1      31.350   8.814  49.057  1.00  0.00     0.012 C 
HETATM   19  C24 UNL     1      30.595   9.981  49.656  1.00  0.00     0.091 C 
ENDROOT
BRANCH  15  20
HETATM   20  C16 UNL     1      33.352   5.168  47.216  1.00  0.00    -0.007 A 
HETATM   21  C17 UNL     1      32.301   4.380  46.776  1.00  0.00     0.014 A 
HETATM   22  C18 UNL     1      32.420   3.000  46.844  1.00  0.00     0.001 A 
HETATM   23  C19 UNL     1      33.572   2.433  47.345  1.00  0.00     0.000 A 
HETATM   24  C20 UNL     1      34.623   3.234  47.786  1.00  0.00     0.001 A 
HETATM   25  C21 UNL     1      34.499   4.612  47.716  1.00  0.00     0.014 A 
ENDBRANCH  15  20
BRANCH   1  26
HETATM   26  C4  UNL     1      25.786   8.455  48.762  1.00  0.00     0.194 C 
HETATM   27  C3  UNL     1      25.661   7.079  48.139  1.00  0.00     0.071 C 
HETATM   28  C2  UNL     1      25.961   6.697  49.573  1.00  0.00     0.121 C 
HETATM   29  C1  UNL     1      25.141   5.574  50.135  1.00  0.00     0.040 C 
HETATM   30  O1  UNL     1      25.494   7.937  50.033  1.00  0.00    -0.373 OA
ENDBRANCH   1  26
TORSDOF 2
ENDMDL
MODEL 8
REMARK VINA RESULT:      -8.0      3.923      5.895
REMARK  2 active torsions:
REMARK  status: ('A' for Active; 'I' for Inactive)
REMARK    1  A    between atoms: C4_4  and  C5_5 
REMARK    2  A    between atoms: C15_19  and  C16_20 
ROOT
HETATM    1  C5  UNL     1      14.630   1.412  52.546  1.00  0.00     0.140 A 
HETATM    2  N1  UNL     1      15.131   2.645  52.864  1.00  0.00    -0.234 NA
HETATM    3  C6  UNL     1      16.078   2.939  51.957  1.00  0.00     0.071 A 
HETATM    4  C7  UNL     1      16.116   1.861  51.100  1.00  0.00     0.113 A 
HETATM    5  C8  UNL     1      16.872   1.614  49.944  1.00  0.00     0.179 A 
HETATM    6  N2  UNL     1      16.657   0.452  49.304  1.00  0.00    -0.238 NA
HETATM    7  C9  UNL     1      15.754  -0.499  49.695  1.00  0.00     0.136 A 
HETATM    8  C10 UNL     1      14.993  -0.248  50.843  1.00  0.00     0.118 A 
HETATM    9  N3  UNL     1      15.245   0.922  51.445  1.00  0.00    -0.301 N 
HETATM   10  N4  UNL     1      17.755   2.169  49.014  1.00  0.00    -0.224 NA
HETATM   11  C11 UNL     1      18.851   2.680  49.179  1.00  0.00     0.101 C 
HETATM   12  C12 UNL     1      19.714   1.953  49.818  1.00  0.00     0.024 A 
HETATM   13  C13 UNL     1      20.683   1.155  49.331  1.00  0.00     0.018 A 
HETATM   14  C14 UNL     1      21.398   0.594  50.338  1.00  0.00     0.033 A 
HETATM   15  C15 UNL     1      21.122   0.847  51.653  1.00  0.00     0.067 A 
HETATM   16  N5  UNL     1      20.110   1.675  51.902  1.00  0.00    -0.248 NA
HETATM   17  C22 UNL     1      19.307   2.309  51.045  1.00  0.00     0.066 A 
HETATM   18  C23 UNL     1      18.431   2.973  51.732  1.00  0.00     0.012 C 
HETATM   19  C24 UNL     1      17.211   3.823  51.446  1.00  0.00     0.091 C 
ENDROOT
BRANCH  15  20
HETATM   20  C16 UNL     1      21.913   0.227  52.740  1.00  0.00    -0.007 A 
HETATM   21  C17 UNL     1      21.166  -0.346  53.757  1.00  0.00     0.014 A 
HETATM   22  C18 UNL     1      21.825  -0.951  54.817  1.00  0.00     0.001 A 
HETATM   23  C19 UNL     1      23.203  -0.974  54.847  1.00  0.00     0.000 A 
HETATM   24  C20 UNL     1      23.945  -0.395  53.820  1.00  0.00     0.001 A 
HETATM   25  C21 UNL     1      23.282   0.208  52.764  1.00  0.00     0.014 A 
ENDBRANCH  15  20
BRANCH   1  26
HETATM   26  C4  UNL     1      13.560   0.773  53.349  1.00  0.00     0.194 C 
HETATM   27  C3  UNL     1      12.583   1.810  53.866  1.00  0.00     0.071 C 
HETATM   28  C2  UNL     1      11.917   1.443  52.558  1.00  0.00     0.121 C 
HETATM   29  C1  UNL     1      10.427   1.266  52.610  1.00  0.00     0.040 C 
HETATM   30  O1  UNL     1      12.568   0.201  52.538  1.00  0.00    -0.373 OA
ENDBRANCH   1  26
TORSDOF 2
ENDMDL
MODEL 9
REMARK VINA RESULT:      -8.0      2.652      3.943
REMARK  2 active torsions:
REMARK  status: ('A' for Active; 'I' for Inactive)
REMARK    1  A    between atoms: C4_4  and  C5_5 
REMARK    2  A    between atoms: C15_19  and  C16_20 
ROOT
HETATM    1  C5  UNL     1      19.163   4.932  48.507  1.00  0.00     0.140 A 
HETATM    2  N1  UNL     1      19.233   5.686  49.648  1.00  0.00    -0.234 NA
HETATM    3  C6  UNL     1      20.508   5.661  50.068  1.00  0.00     0.071 A 
HETATM    4  C7  UNL     1      21.184   4.886  49.150  1.00  0.00     0.113 A 
HETATM    5  C8  UNL     1      22.539   4.537  49.041  1.00  0.00     0.179 A 
HETATM    6  N2  UNL     1      22.896   3.770  47.998  1.00  0.00    -0.238 NA
HETATM    7  C9  UNL     1      22.036   3.312  47.036  1.00  0.00     0.136 A 
HETATM    8  C10 UNL     1      20.686   3.668  47.140  1.00  0.00     0.118 A 
HETATM    9  N3  UNL     1      20.382   4.432  48.197  1.00  0.00    -0.301 N 
HETATM   10  N4  UNL     1      23.824   4.771  49.538  1.00  0.00    -0.224 NA
HETATM   11  C11 UNL     1      24.262   4.651  50.671  1.00  0.00     0.101 C 
HETATM   12  C12 UNL     1      24.076   3.491  51.221  1.00  0.00     0.024 A 
HETATM   13  C13 UNL     1      24.914   2.439  51.293  1.00  0.00     0.018 A 
HETATM   14  C14 UNL     1      24.349   1.421  51.989  1.00  0.00     0.033 A 
HETATM   15  C15 UNL     1      23.094   1.514  52.523  1.00  0.00     0.067 A 
HETATM   16  N5  UNL     1      22.445   2.658  52.325  1.00  0.00    -0.248 NA
HETATM   17  C22 UNL     1      22.842   3.753  51.671  1.00  0.00     0.066 A 
HETATM   18  C23 UNL     1      21.867   4.607  51.690  1.00  0.00     0.012 C 
HETATM   19  C24 UNL     1      21.580   5.974  51.107  1.00  0.00     0.091 C 
ENDROOT
BRANCH  15  20
HETATM   20  C16 UNL     1      22.494   0.392  53.281  1.00  0.00    -0.007 A 
HETATM   21  C17 UNL     1      21.128   0.233  53.109  1.00  0.00     0.014 A 
HETATM   22  C18 UNL     1      20.481  -0.794  53.781  1.00  0.00     0.001 A 
HETATM   23  C19 UNL     1      21.197  -1.634  54.606  1.00  0.00     0.000 A 
HETATM   24  C20 UNL     1      22.571  -1.465  54.772  1.00  0.00     0.001 A 
HETATM   25  C21 UNL     1      23.211  -0.438  54.099  1.00  0.00     0.014 A 
ENDBRANCH  15  20
BRANCH   1  26
HETATM   26  C4  UNL     1      17.889   4.741  47.773  1.00  0.00     0.194 C 
HETATM   27  C3  UNL     1      17.456   3.289  47.818  1.00  0.00     0.071 C 
HETATM   28  C2  UNL     1      16.749   3.818  49.047  1.00  0.00     0.121 C 
HETATM   29  C1  UNL     1      15.336   3.352  49.240  1.00  0.00     0.040 C 
HETATM   30  O1  UNL     1      16.780   5.126  48.542  1.00  0.00    -0.373 OA
ENDBRANCH   1  26
TORSDOF 2
ENDMDL
