MODEL 1
REMARK VINA RESULT:      -7.7      0.000      0.000
REMARK  6 active torsions:
REMARK  status: ('A' for Active; 'I' for Inactive)
REMARK    1  A    between atoms: C2_2  and  C3_3 
REMARK    2  A    between atoms: C3_3  and  C4_4 
REMARK    3  A    between atoms: C4_4  and  N1_5 
REMARK       I    between atoms: N1_5  and  C5_6 
REMARK    4  A    between atoms: N1_5  and  C12_15 
REMARK       I    between atoms: C5_6  and  N2_8 
REMARK    5  A    between atoms: N2_8  and  C6_9 
REMARK    6  A    between atoms: C17_22  and  O2_23 
ROOT
HETATM    1  N1  UNL     1      23.111   1.943  52.389  1.00  0.00    -0.302 N 
HETATM    2  C5  UNL     1      24.407   1.484  52.680  1.00  0.00     0.327 C 
HETATM    3  O1  UNL     1      24.430   0.254  52.926  1.00  0.00    -0.246 OA
HETATM    4  N2  UNL     1      25.676   2.044  52.776  1.00  0.00    -0.309 N 
HETATM    5  H10 UNL     1      25.713   3.065  52.637  1.00  0.00     0.170 HD
ENDROOT
BRANCH   1   6
HETATM    6  C4  UNL     1      22.430   0.722  52.751  1.00  0.00     0.134 C 
BRANCH   6   7
HETATM    7  C3  UNL     1      21.035   0.989  53.283  1.00  0.00     0.020 C 
BRANCH   7   8
HETATM    8  C2  UNL     1      20.782   0.234  54.568  1.00  0.00    -0.003 C 
HETATM    9  C1  UNL     1      21.560  -1.061  54.593  1.00  0.00     0.005 C 
ENDBRANCH   7   8
ENDBRANCH   6   7
ENDBRANCH   1   6
BRANCH   1  10
HETATM   10  C12 UNL     1      22.799   3.205  51.798  1.00  0.00     0.030 C 
HETATM   11  P1  UNL     1      22.400   3.392  50.231  1.00  0.00    -0.038 P 
HETATM   12  C13 UNL     1      22.375   1.861  49.267  1.00  0.00     0.055 C 
HETATM   13  C14 UNL     1      21.530   4.641  49.648  1.00  0.00    -0.013 C 
HETATM   14  C15 UNL     1      22.180   5.782  49.789  1.00  0.00     0.035 C 
HETATM   15  C16 UNL     1      23.158   6.270  50.736  1.00  0.00     0.041 C 
HETATM   16 BR1  UNL     1      24.055   7.870  50.221  1.00  0.00    -0.048 Br
HETATM   17  C17 UNL     1      23.368   5.632  51.848  1.00  0.00     0.066 C 
HETATM   18  C18 UNL     1      22.933   4.435  52.629  1.00  0.00     0.124 C 
BRANCH  17  19
HETATM   19  O2  UNL     1      24.371   6.410  52.477  1.00  0.00    -0.363 OA
HETATM   20  H20 UNL     1      24.043   7.328  52.758  1.00  0.00     0.217 HD
ENDBRANCH  17  19
ENDBRANCH   1  10
BRANCH   4  21
HETATM   21  C6  UNL     1      26.893   1.446  53.074  1.00  0.00     0.036 A 
HETATM   22  C7  UNL     1      27.289   0.145  52.893  1.00  0.00     0.029 A 
HETATM   23  C8  UNL     1      28.503  -0.417  53.209  1.00  0.00     0.002 A 
HETATM   24  C9  UNL     1      29.427   0.431  53.773  1.00  0.00     0.000 A 
HETATM   25  C10 UNL     1      29.148   1.750  54.003  1.00  0.00     0.002 A 
HETATM   26  C11 UNL     1      27.906   2.213  53.651  1.00  0.00     0.029 A 
ENDBRANCH   4  21
TORSDOF 6
ENDMDL
MODEL 2
REMARK VINA RESULT:      -7.7      2.426      3.158
REMARK  6 active torsions:
REMARK  status: ('A' for Active; 'I' for Inactive)
REMARK    1  A    between atoms: C2_2  and  C3_3 
REMARK    2  A    between atoms: C3_3  and  C4_4 
REMARK    3  A    between atoms: C4_4  and  N1_5 
REMARK       I    between atoms: N1_5  and  C5_6 
REMARK    4  A    between atoms: N1_5  and  C12_15 
REMARK       I    between atoms: C5_6  and  N2_8 
REMARK    5  A    between atoms: N2_8  and  C6_9 
REMARK    6  A    between atoms: C17_22  and  O2_23 
ROOT
HETATM    1  N1  UNL     1      23.019   1.001  52.289  1.00  0.00    -0.302 N 
HETATM    2  C5  UNL     1      24.305   0.560  52.647  1.00  0.00     0.327 C 
HETATM    3  O1  UNL     1      24.305  -0.067  53.733  1.00  0.00    -0.246 OA
HETATM    4  N2  UNL     1      25.585   0.647  52.110  1.00  0.00    -0.309 N 
HETATM    5  H10 UNL     1      25.657   1.200  51.243  1.00  0.00     0.170 HD
ENDROOT
BRANCH   1   6
HETATM    6  C4  UNL     1      22.383   0.653  53.538  1.00  0.00     0.134 C 
BRANCH   6   7
HETATM    7  C3  UNL     1      20.876   0.788  53.462  1.00  0.00     0.020 C 
BRANCH   7   8
HETATM    8  C2  UNL     1      20.195  -0.556  53.587  1.00  0.00    -0.003 C 
HETATM    9  C1  UNL     1      21.103  -1.556  54.264  1.00  0.00     0.005 C 
ENDBRANCH   7   8
ENDBRANCH   6   7
ENDBRANCH   1   6
BRANCH   1  10
HETATM   10  C12 UNL     1      22.644   1.481  50.998  1.00  0.00     0.030 C 
HETATM   11  P1  UNL     1      23.118   2.917  50.396  1.00  0.00    -0.038 P 
HETATM   12  C13 UNL     1      24.178   3.888  51.497  1.00  0.00     0.055 C 
HETATM   13  C14 UNL     1      23.197   3.267  48.806  1.00  0.00    -0.013 C 
HETATM   14  C15 UNL     1      21.997   3.245  48.254  1.00  0.00     0.035 C 
HETATM   15  C16 UNL     1      20.775   2.525  48.534  1.00  0.00     0.041 C 
HETATM   16 BR1  UNL     1      19.224   3.187  47.648  1.00  0.00    -0.048 Br
HETATM   17  C17 UNL     1      20.787   1.501  49.333  1.00  0.00     0.066 C 
HETATM   18  C18 UNL     1      21.692   0.671  50.184  1.00  0.00     0.124 C 
BRANCH  17  19
HETATM   19  O2  UNL     1      19.432   1.089  49.344  1.00  0.00    -0.363 OA
HETATM   20  H20 UNL     1      19.323   0.081  49.375  1.00  0.00     0.217 HD
ENDBRANCH  17  19
ENDBRANCH   1  10
BRANCH   4  21
HETATM   21  C6  UNL     1      26.787   0.143  52.589  1.00  0.00     0.036 A 
HETATM   22  C7  UNL     1      27.225  -1.156  52.640  1.00  0.00     0.029 A 
HETATM   23  C8  UNL     1      28.421  -1.622  53.130  1.00  0.00     0.002 A 
HETATM   24  C9  UNL     1      29.278  -0.667  53.627  1.00  0.00     0.000 A 
HETATM   25  C10 UNL     1      28.952   0.661  53.630  1.00  0.00     0.002 A 
HETATM   26  C11 UNL     1      27.733   1.023  53.117  1.00  0.00     0.029 A 
ENDBRANCH   4  21
TORSDOF 6
ENDMDL
MODEL 3
REMARK VINA RESULT:      -7.6      2.964      4.999
REMARK  6 active torsions:
REMARK  status: ('A' for Active; 'I' for Inactive)
REMARK    1  A    between atoms: C2_2  and  C3_3 
REMARK    2  A    between atoms: C3_3  and  C4_4 
REMARK    3  A    between atoms: C4_4  and  N1_5 
REMARK       I    between atoms: N1_5  and  C5_6 
REMARK    4  A    between atoms: N1_5  and  C12_15 
REMARK       I    between atoms: C5_6  and  N2_8 
REMARK    5  A    between atoms: N2_8  and  C6_9 
REMARK    6  A    between atoms: C17_22  and  O2_23 
ROOT
HETATM    1  N1  UNL     1      24.943   3.146  50.612  1.00  0.00    -0.302 N 
HETATM    2  C5  UNL     1      25.930   2.446  51.326  1.00  0.00     0.327 C 
HETATM    3  O1  UNL     1      27.077   2.916  51.135  1.00  0.00    -0.246 OA
HETATM    4  N2  UNL     1      25.966   1.353  52.186  1.00  0.00    -0.309 N 
HETATM    5  H10 UNL     1      25.058   0.889  52.338  1.00  0.00     0.170 HD
ENDROOT
BRANCH   1   6
HETATM    6  C4  UNL     1      25.857   3.951  49.835  1.00  0.00     0.134 C 
BRANCH   6   7
HETATM    7  C3  UNL     1      25.167   5.147  49.210  1.00  0.00     0.020 C 
BRANCH   7   8
HETATM    8  C2  UNL     1      26.166   6.104  48.602  1.00  0.00    -0.003 C 
HETATM    9  C1  UNL     1      27.543   5.484  48.552  1.00  0.00     0.005 C 
ENDBRANCH   7   8
ENDBRANCH   6   7
ENDBRANCH   1   6
BRANCH   1  10
HETATM   10  C12 UNL     1      23.537   3.044  50.836  1.00  0.00     0.030 C 
HETATM   11  P1  UNL     1      22.751   3.846  52.015  1.00  0.00    -0.038 P 
HETATM   12  C13 UNL     1      23.802   4.901  53.044  1.00  0.00     0.055 C 
HETATM   13  C14 UNL     1      21.161   4.203  51.981  1.00  0.00    -0.013 C 
HETATM   14  C15 UNL     1      20.426   3.106  52.010  1.00  0.00     0.035 C 
HETATM   15  C16 UNL     1      20.629   1.748  51.558  1.00  0.00     0.041 C 
HETATM   16 BR1  UNL     1      19.375   0.477  52.221  1.00  0.00    -0.048 Br
HETATM   17  C17 UNL     1      21.607   1.467  50.750  1.00  0.00     0.066 C 
HETATM   18  C18 UNL     1      22.750   2.083  50.011  1.00  0.00     0.124 C 
BRANCH  17  19
HETATM   19  O2  UNL     1      21.466   0.071  50.553  1.00  0.00    -0.363 OA
HETATM   20  H20 UNL     1      22.330  -0.380  50.272  1.00  0.00     0.217 HD
ENDBRANCH  17  19
ENDBRANCH   1  10
BRANCH   4  21
HETATM   21  C6  UNL     1      27.044   0.766  52.834  1.00  0.00     0.036 A 
HETATM   22  C7  UNL     1      27.946   1.326  53.702  1.00  0.00     0.029 A 
HETATM   23  C8  UNL     1      29.010   0.715  54.321  1.00  0.00     0.002 A 
HETATM   24  C9  UNL     1      29.187  -0.618  54.031  1.00  0.00     0.000 A 
HETATM   25  C10 UNL     1      28.351  -1.286  53.180  1.00  0.00     0.002 A 
HETATM   26  C11 UNL     1      27.318  -0.585  52.614  1.00  0.00     0.029 A 
ENDBRANCH   4  21
TORSDOF 6
ENDMDL
MODEL 4
REMARK VINA RESULT:      -7.3      1.784      2.067
REMARK  6 active torsions:
REMARK  status: ('A' for Active; 'I' for Inactive)
REMARK    1  A    between atoms: C2_2  and  C3_3 
REMARK    2  A    between atoms: C3_3  and  C4_4 
REMARK    3  A    between atoms: C4_4  and  N1_5 
REMARK       I    between atoms: N1_5  and  C5_6 
REMARK    4  A    between atoms: N1_5  and  C12_15 
REMARK       I    between atoms: C5_6  and  N2_8 
REMARK    5  A    between atoms: N2_8  and  C6_9 
REMARK    6  A    between atoms: C17_22  and  O2_23 
ROOT
HETATM    1  N1  UNL     1      23.619   3.473  51.763  1.00  0.00    -0.302 N 
HETATM    2  C5  UNL     1      24.680   2.670  52.216  1.00  0.00     0.327 C 
HETATM    3  O1  UNL     1      24.276   1.657  52.837  1.00  0.00    -0.246 OA
HETATM    4  N2  UNL     1      26.069   2.712  52.162  1.00  0.00    -0.309 N 
HETATM    5  H10 UNL     1      26.461   3.552  51.710  1.00  0.00     0.170 HD
ENDROOT
BRANCH   1   6
HETATM    6  C4  UNL     1      22.578   2.768  52.474  1.00  0.00     0.134 C 
BRANCH   6   7
HETATM    7  C3  UNL     1      21.198   3.275  52.106  1.00  0.00     0.020 C 
BRANCH   7   8
HETATM    8  C2  UNL     1      20.341   2.172  51.528  1.00  0.00    -0.003 C 
HETATM    9  C1  UNL     1      21.123   0.884  51.423  1.00  0.00     0.005 C 
ENDBRANCH   7   8
ENDBRANCH   6   7
ENDBRANCH   1   6
BRANCH   1  10
HETATM   10  C12 UNL     1      23.732   4.517  50.797  1.00  0.00     0.030 C 
HETATM   11  P1  UNL     1      23.494   4.301  49.202  1.00  0.00    -0.038 P 
HETATM   12  C13 UNL     1      23.063   2.609  48.723  1.00  0.00     0.055 C 
HETATM   13  C14 UNL     1      23.072   5.487  48.166  1.00  0.00    -0.013 C 
HETATM   14  C15 UNL     1      24.026   6.395  48.068  1.00  0.00     0.035 C 
HETATM   15  C16 UNL     1      25.052   6.876  48.966  1.00  0.00     0.041 C 
HETATM   16 BR1  UNL     1      26.414   7.928  48.150  1.00  0.00    -0.048 Br
HETATM   17  C17 UNL     1      25.000   6.590  50.232  1.00  0.00     0.066 C 
HETATM   18  C18 UNL     1      24.184   5.864  51.252  1.00  0.00     0.124 C 
BRANCH  17  19
HETATM   19  O2  UNL     1      26.154   7.227  50.751  1.00  0.00    -0.363 OA
HETATM   20  H20 UNL     1      26.742   6.604  51.292  1.00  0.00     0.217 HD
ENDBRANCH  17  19
ENDBRANCH   1  10
BRANCH   4  21
HETATM   21  C6  UNL     1      27.007   1.820  52.664  1.00  0.00     0.036 A 
HETATM   22  C7  UNL     1      27.087   0.461  52.499  1.00  0.00     0.029 A 
HETATM   23  C8  UNL     1      28.028  -0.396  53.019  1.00  0.00     0.002 A 
HETATM   24  C9  UNL     1      29.003   0.185  53.797  1.00  0.00     0.000 A 
HETATM   25  C10 UNL     1      29.027   1.531  54.033  1.00  0.00     0.002 A 
HETATM   26  C11 UNL     1      28.042   2.300  53.467  1.00  0.00     0.029 A 
ENDBRANCH   4  21
TORSDOF 6
ENDMDL
MODEL 5
REMARK VINA RESULT:      -7.3      2.732      4.519
REMARK  6 active torsions:
REMARK  status: ('A' for Active; 'I' for Inactive)
REMARK    1  A    between atoms: C2_2  and  C3_3 
REMARK    2  A    between atoms: C3_3  and  C4_4 
REMARK    3  A    between atoms: C4_4  and  N1_5 
REMARK       I    between atoms: N1_5  and  C5_6 
REMARK    4  A    between atoms: N1_5  and  C12_15 
REMARK       I    between atoms: C5_6  and  N2_8 
REMARK    5  A    between atoms: N2_8  and  C6_9 
REMARK    6  A    between atoms: C17_22  and  O2_23 
ROOT
HETATM    1  N1  UNL     1      25.284   4.177  50.157  1.00  0.00    -0.302 N 
HETATM    2  C5  UNL     1      25.957   3.207  50.920  1.00  0.00     0.327 C 
HETATM    3  O1  UNL     1      27.188   3.185  50.681  1.00  0.00    -0.246 OA
HETATM    4  N2  UNL     1      25.607   2.252  51.869  1.00  0.00    -0.309 N 
HETATM    5  H10 UNL     1      24.598   2.185  52.068  1.00  0.00     0.170 HD
ENDROOT
BRANCH   1   6
HETATM    6  C4  UNL     1      26.404   4.509  49.308  1.00  0.00     0.134 C 
BRANCH   6   7
HETATM    7  C3  UNL     1      26.274   5.898  48.717  1.00  0.00     0.020 C 
BRANCH   7   8
HETATM    8  C2  UNL     1      27.598   6.398  48.186  1.00  0.00    -0.003 C 
HETATM    9  C1  UNL     1      28.638   5.302  48.220  1.00  0.00     0.005 C 
ENDBRANCH   7   8
ENDBRANCH   6   7
ENDBRANCH   1   6
BRANCH   1  10
HETATM   10  C12 UNL     1      23.956   4.640  50.402  1.00  0.00     0.030 C 
HETATM   11  P1  UNL     1      22.636   4.014  49.684  1.00  0.00    -0.038 P 
HETATM   12  C13 UNL     1      22.971   2.660  48.530  1.00  0.00     0.055 C 
HETATM   13  C14 UNL     1      21.128   4.098  50.298  1.00  0.00    -0.013 C 
HETATM   14  C15 UNL     1      20.707   5.349  50.355  1.00  0.00     0.035 C 
HETATM   15  C16 UNL     1      21.368   6.626  50.510  1.00  0.00     0.041 C 
HETATM   16 BR1  UNL     1      20.289   8.147  50.123  1.00  0.00    -0.048 Br
HETATM   17  C17 UNL     1      22.608   6.679  50.894  1.00  0.00     0.066 C 
HETATM   18  C18 UNL     1      23.764   5.821  51.292  1.00  0.00     0.124 C 
BRANCH  17  19
HETATM   19  O2  UNL     1      22.874   8.070  50.920  1.00  0.00    -0.363 OA
HETATM   20  H20 UNL     1      23.044   8.424  51.855  1.00  0.00     0.217 HD
ENDBRANCH  17  19
ENDBRANCH   1  10
BRANCH   4  21
HETATM   21  C6  UNL     1      26.404   1.346  52.556  1.00  0.00     0.036 A 
HETATM   22  C7  UNL     1      27.155   1.533  53.689  1.00  0.00     0.029 A 
HETATM   23  C8  UNL     1      27.942   0.613  54.339  1.00  0.00     0.002 A 
HETATM   24  C9  UNL     1      27.977  -0.645  53.782  1.00  0.00     0.000 A 
HETATM   25  C10 UNL     1      27.270  -0.952  52.653  1.00  0.00     0.002 A 
HETATM   26  C11 UNL     1      26.514   0.038  52.080  1.00  0.00     0.029 A 
ENDBRANCH   4  21
TORSDOF 6
ENDMDL
MODEL 6
REMARK VINA RESULT:      -6.9      7.371     10.485
REMARK  6 active torsions:
REMARK  status: ('A' for Active; 'I' for Inactive)
REMARK    1  A    between atoms: C2_2  and  C3_3 
REMARK    2  A    between atoms: C3_3  and  C4_4 
REMARK    3  A    between atoms: C4_4  and  N1_5 
REMARK       I    between atoms: N1_5  and  C5_6 
REMARK    4  A    between atoms: N1_5  and  C12_15 
REMARK       I    between atoms: C5_6  and  N2_8 
REMARK    5  A    between atoms: N2_8  and  C6_9 
REMARK    6  A    between atoms: C17_22  and  O2_23 
ROOT
HETATM    1  N1  UNL     1      29.551   8.858  48.766  1.00  0.00    -0.302 N 
HETATM    2  C5  UNL     1      28.232   8.453  49.037  1.00  0.00     0.327 C 
HETATM    3  O1  UNL     1      27.463   9.429  49.214  1.00  0.00    -0.246 OA
HETATM    4  N2  UNL     1      27.557   7.244  49.170  1.00  0.00    -0.309 N 
HETATM    5  H10 UNL     1      28.149   6.404  49.089  1.00  0.00     0.170 HD
ENDROOT
BRANCH   1   6
HETATM    6  C4  UNL     1      29.345  10.258  49.056  1.00  0.00     0.134 C 
BRANCH   6   7
HETATM    7  C3  UNL     1      30.626  11.057  48.926  1.00  0.00     0.020 C 
BRANCH   7   8
HETATM    8  C2  UNL     1      30.377  12.534  49.128  1.00  0.00    -0.003 C 
HETATM    9  C1  UNL     1      28.909  12.858  48.972  1.00  0.00     0.005 C 
ENDBRANCH   7   8
ENDBRANCH   6   7
ENDBRANCH   1   6
BRANCH   1  10
HETATM   10  C12 UNL     1      30.579   8.016  48.244  1.00  0.00     0.030 C 
HETATM   11  P1  UNL     1      30.757   7.685  46.661  1.00  0.00    -0.038 P 
HETATM   12  C13 UNL     1      29.538   8.474  45.580  1.00  0.00     0.055 C 
HETATM   13  C14 UNL     1      32.159   7.221  45.971  1.00  0.00    -0.013 C 
HETATM   14  C15 UNL     1      32.550   6.046  46.429  1.00  0.00     0.035 C 
HETATM   15  C16 UNL     1      32.368   5.345  47.681  1.00  0.00     0.041 C 
HETATM   16 BR1  UNL     1      32.822   3.495  47.646  1.00  0.00    -0.048 Br
HETATM   17  C17 UNL     1      31.931   5.977  48.728  1.00  0.00     0.066 C 
HETATM   18  C18 UNL     1      31.488   7.323  49.202  1.00  0.00     0.124 C 
BRANCH  17  19
HETATM   19  O2  UNL     1      31.893   4.966  49.719  1.00  0.00    -0.363 OA
HETATM   20  H20 UNL     1      32.182   4.058  49.370  1.00  0.00     0.217 HD
ENDBRANCH  17  19
ENDBRANCH   1  10
BRANCH   4  21
HETATM   21  C6  UNL     1      26.218   6.998  49.441  1.00  0.00     0.036 A 
HETATM   22  C7  UNL     1      25.488   7.303  50.562  1.00  0.00     0.029 A 
HETATM   23  C8  UNL     1      24.161   7.036  50.800  1.00  0.00     0.002 A 
HETATM   24  C9  UNL     1      23.490   6.386  49.790  1.00  0.00     0.000 A 
HETATM   25  C10 UNL     1      24.111   6.030  48.626  1.00  0.00     0.002 A 
HETATM   26  C11 UNL     1      25.439   6.343  48.486  1.00  0.00     0.029 A 
ENDBRANCH   4  21
TORSDOF 6
ENDMDL
MODEL 7
REMARK VINA RESULT:      -6.8      1.827      5.461
REMARK  6 active torsions:
REMARK  status: ('A' for Active; 'I' for Inactive)
REMARK    1  A    between atoms: C2_2  and  C3_3 
REMARK    2  A    between atoms: C3_3  and  C4_4 
REMARK    3  A    between atoms: C4_4  and  N1_5 
REMARK       I    between atoms: N1_5  and  C5_6 
REMARK    4  A    between atoms: N1_5  and  C12_15 
REMARK       I    between atoms: C5_6  and  N2_8 
REMARK    5  A    between atoms: N2_8  and  C6_9 
REMARK    6  A    between atoms: C17_22  and  O2_23 
ROOT
HETATM    1  N1  UNL     1      22.975   2.225  52.039  1.00  0.00    -0.302 N 
HETATM    2  C5  UNL     1      21.929   1.335  52.338  1.00  0.00     0.327 C 
HETATM    3  O1  UNL     1      22.301   0.402  53.090  1.00  0.00    -0.246 OA
HETATM    4  N2  UNL     1      20.584   1.214  52.007  1.00  0.00    -0.309 N 
HETATM    5  H10 UNL     1      20.233   1.923  51.346  1.00  0.00     0.170 HD
ENDROOT
BRANCH   1   6
HETATM    6  C4  UNL     1      24.028   1.429  52.625  1.00  0.00     0.134 C 
BRANCH   6   7
HETATM    7  C3  UNL     1      25.316   1.523  51.833  1.00  0.00     0.020 C 
BRANCH   7   8
HETATM    8  C2  UNL     1      26.231   0.356  52.127  1.00  0.00    -0.003 C 
HETATM    9  C1  UNL     1      25.577  -0.609  53.088  1.00  0.00     0.005 C 
ENDBRANCH   7   8
ENDBRANCH   6   7
ENDBRANCH   1   6
BRANCH   1  10
HETATM   10  C12 UNL     1      22.812   3.519  51.458  1.00  0.00     0.030 C 
HETATM   11  P1  UNL     1      22.627   3.775  49.861  1.00  0.00    -0.038 P 
HETATM   12  C13 UNL     1      22.639   2.276  48.848  1.00  0.00     0.055 C 
HETATM   13  C14 UNL     1      21.909   5.090  49.219  1.00  0.00    -0.013 C 
HETATM   14  C15 UNL     1      22.600   6.185  49.481  1.00  0.00     0.035 C 
HETATM   15  C16 UNL     1      23.475   6.587  50.560  1.00  0.00     0.041 C 
HETATM   16 BR1  UNL     1      24.518   8.143  50.219  1.00  0.00    -0.048 Br
HETATM   17  C17 UNL     1      23.506   5.906  51.666  1.00  0.00     0.066 C 
HETATM   18  C18 UNL     1      22.908   4.715  52.343  1.00  0.00     0.124 C 
BRANCH  17  19
HETATM   19  O2  UNL     1      24.462   6.604  52.444  1.00  0.00    -0.363 OA
HETATM   20  H20 UNL     1      25.053   7.215  51.891  1.00  0.00     0.217 HD
ENDBRANCH  17  19
ENDBRANCH   1  10
BRANCH   4  21
HETATM   21  C6  UNL     1      19.654   0.259  52.396  1.00  0.00     0.036 A 
HETATM   22  C7  UNL     1      19.732  -0.671  53.401  1.00  0.00     0.029 A 
HETATM   23  C8  UNL     1      18.794  -1.611  53.754  1.00  0.00     0.002 A 
HETATM   24  C9  UNL     1      17.639  -1.614  53.005  1.00  0.00     0.000 A 
HETATM   25  C10 UNL     1      17.446  -0.735  51.977  1.00  0.00     0.002 A 
HETATM   26  C11 UNL     1      18.445   0.164  51.705  1.00  0.00     0.029 A 
ENDBRANCH   4  21
TORSDOF 6
ENDMDL
MODEL 8
REMARK VINA RESULT:      -6.8      1.982      2.808
REMARK  6 active torsions:
REMARK  status: ('A' for Active; 'I' for Inactive)
REMARK    1  A    between atoms: C2_2  and  C3_3 
REMARK    2  A    between atoms: C3_3  and  C4_4 
REMARK    3  A    between atoms: C4_4  and  N1_5 
REMARK       I    between atoms: N1_5  and  C5_6 
REMARK    4  A    between atoms: N1_5  and  C12_15 
REMARK       I    between atoms: C5_6  and  N2_8 
REMARK    5  A    between atoms: N2_8  and  C6_9 
REMARK    6  A    between atoms: C17_22  and  O2_23 
ROOT
HETATM    1  N1  UNL     1      23.627   2.012  51.820  1.00  0.00    -0.302 N 
HETATM    2  C5  UNL     1      24.796   1.406  52.310  1.00  0.00     0.327 C 
HETATM    3  O1  UNL     1      24.548   0.429  53.056  1.00  0.00    -0.246 OA
HETATM    4  N2  UNL     1      26.166   1.617  52.189  1.00  0.00    -0.309 N 
HETATM    5  H10 UNL     1      26.432   2.442  51.631  1.00  0.00     0.170 HD
ENDROOT
BRANCH   1   6
HETATM    6  C4  UNL     1      22.708   1.268  52.650  1.00  0.00     0.134 C 
BRANCH   6   7
HETATM    7  C3  UNL     1      21.332   1.170  52.023  1.00  0.00     0.020 C 
BRANCH   7   8
HETATM    8  C2  UNL     1      20.326   0.589  52.991  1.00  0.00    -0.003 C 
HETATM    9  C1  UNL     1      20.987   0.228  54.301  1.00  0.00     0.005 C 
ENDBRANCH   7   8
ENDBRANCH   6   7
ENDBRANCH   1   6
BRANCH   1  10
HETATM   10  C12 UNL     1      23.574   2.945  50.740  1.00  0.00     0.030 C 
HETATM   11  P1  UNL     1      23.444   4.554  50.945  1.00  0.00    -0.038 P 
HETATM   12  C13 UNL     1      23.371   5.096  52.670  1.00  0.00     0.055 C 
HETATM   13  C14 UNL     1      23.922   5.661  49.847  1.00  0.00    -0.013 C 
HETATM   14  C15 UNL     1      23.203   5.578  48.742  1.00  0.00     0.035 C 
HETATM   15  C16 UNL     1      22.509   4.499  48.075  1.00  0.00     0.041 C 
HETATM   16 BR1  UNL     1      21.297   5.040  46.709  1.00  0.00    -0.048 Br
HETATM   17  C17 UNL     1      22.736   3.265  48.413  1.00  0.00     0.066 C 
HETATM   18  C18 UNL     1      23.543   2.420  49.345  1.00  0.00     0.124 C 
BRANCH  17  19
HETATM   19  O2  UNL     1      21.883   2.535  47.549  1.00  0.00    -0.363 OA
HETATM   20  H20 UNL     1      21.957   1.532  47.674  1.00  0.00     0.217 HD
ENDBRANCH  17  19
ENDBRANCH   1  10
BRANCH   4  21
HETATM   21  C6  UNL     1      27.227   0.913  52.744  1.00  0.00     0.036 A 
HETATM   22  C7  UNL     1      28.293   1.380  53.470  1.00  0.00     0.029 A 
HETATM   23  C8  UNL     1      29.333   0.654  53.998  1.00  0.00     0.002 A 
HETATM   24  C9  UNL     1      29.295  -0.702  53.769  1.00  0.00     0.000 A 
HETATM   25  C10 UNL     1      28.282  -1.284  53.058  1.00  0.00     0.002 A 
HETATM   26  C11 UNL     1      27.290  -0.470  52.573  1.00  0.00     0.029 A 
ENDBRANCH   4  21
TORSDOF 6
ENDMDL
MODEL 9
REMARK VINA RESULT:      -6.8      3.805      5.495
REMARK  6 active torsions:
REMARK  status: ('A' for Active; 'I' for Inactive)
REMARK    1  A    between atoms: C2_2  and  C3_3 
REMARK    2  A    between atoms: C3_3  and  C4_4 
REMARK    3  A    between atoms: C4_4  and  N1_5 
REMARK       I    between atoms: N1_5  and  C5_6 
REMARK    4  A    between atoms: N1_5  and  C12_15 
REMARK       I    between atoms: C5_6  and  N2_8 
REMARK    5  A    between atoms: N2_8  and  C6_9 
REMARK    6  A    between atoms: C17_22  and  O2_23 
ROOT
HETATM    1  N1  UNL     1      24.822   2.753  51.193  1.00  0.00    -0.302 N 
HETATM    2  C5  UNL     1      25.732   3.534  50.461  1.00  0.00     0.327 C 
HETATM    3  O1  UNL     1      26.906   3.102  50.550  1.00  0.00    -0.246 OA
HETATM    4  N2  UNL     1      25.669   4.674  49.667  1.00  0.00    -0.309 N 
HETATM    5  H10 UNL     1      24.736   5.108  49.601  1.00  0.00     0.170 HD
ENDROOT
BRANCH   1   6
HETATM    6  C4  UNL     1      25.815   1.944  51.861  1.00  0.00     0.134 C 
BRANCH   6   7
HETATM    7  C3  UNL     1      25.228   1.177  53.029  1.00  0.00     0.020 C 
BRANCH   7   8
HETATM    8  C2  UNL     1      26.209   0.163  53.572  1.00  0.00    -0.003 C 
HETATM    9  C1  UNL     1      26.594  -0.836  52.505  1.00  0.00     0.005 C 
ENDBRANCH   7   8
ENDBRANCH   6   7
ENDBRANCH   1   6
BRANCH   1  10
HETATM   10  C12 UNL     1      23.401   2.809  51.065  1.00  0.00     0.030 C 
HETATM   11  P1  UNL     1      22.461   3.852  51.889  1.00  0.00    -0.038 P 
HETATM   12  C13 UNL     1      23.356   4.962  53.002  1.00  0.00     0.055 C 
HETATM   13  C14 UNL     1      20.981   4.334  51.405  1.00  0.00    -0.013 C 
HETATM   14  C15 UNL     1      20.131   3.323  51.391  1.00  0.00     0.035 C 
HETATM   15  C16 UNL     1      20.269   1.898  51.188  1.00  0.00     0.041 C 
HETATM   16 BR1  UNL     1      18.747   0.861  51.673  1.00  0.00    -0.048 Br
HETATM   17  C17 UNL     1      21.369   1.409  50.700  1.00  0.00     0.066 C 
HETATM   18  C18 UNL     1      22.722   1.800  50.202  1.00  0.00     0.124 C 
BRANCH  17  19
HETATM   19  O2  UNL     1      21.109   0.017  50.660  1.00  0.00    -0.363 OA
HETATM   20  H20 UNL     1      20.702  -0.285  49.782  1.00  0.00     0.217 HD
ENDBRANCH  17  19
ENDBRANCH   1  10
BRANCH   4  21
HETATM   21  C6  UNL     1      26.680   5.342  48.988  1.00  0.00     0.036 A 
HETATM   22  C7  UNL     1      27.951   4.923  48.691  1.00  0.00     0.029 A 
HETATM   23  C8  UNL     1      28.932   5.616  48.023  1.00  0.00     0.002 A 
HETATM   24  C9  UNL     1      28.591   6.881  47.602  1.00  0.00     0.000 A 
HETATM   25  C10 UNL     1      27.352   7.408  47.839  1.00  0.00     0.002 A 
HETATM   26  C11 UNL     1      26.444   6.634  48.516  1.00  0.00     0.029 A 
ENDBRANCH   4  21
TORSDOF 6
ENDMDL
