MODEL 1
REMARK VINA RESULT:      -9.3      0.000      0.000
REMARK  6 active torsions:
REMARK  status: ('A' for Active; 'I' for Inactive)
REMARK    1  A    between atoms: C3_3  and  N1_4 
REMARK    2  A    between atoms: C3_3  and  O2_13 
REMARK       I    between atoms: N1_4  and  C4_5 
REMARK    3  A    between atoms: C4_5  and  C5_7 
REMARK    4  A    between atoms: O2_13  and  C11_14 
REMARK    5  A    between atoms: C11_14  and  C12_15 
REMARK    6  A    between atoms: C12_15  and  C13_16 
ROOT
HETATM    1  C11 UNL     1      23.446   3.968  51.827  1.00  0.00     0.185 C 
ENDROOT
BRANCH   1   2
HETATM    2  O2  UNL     1      23.931   3.025  50.862  1.00  0.00    -0.336 OA
BRANCH   2   3
HETATM    3  C3  UNL     1      23.991   3.356  49.516  1.00  0.00     0.140 C 
HETATM    4  C2  UNL     1      23.086   2.665  48.846  1.00  0.00     0.025 C 
HETATM    5  C1  UNL     1      22.093   1.654  49.355  1.00  0.00     0.040 C 
BRANCH   3   6
HETATM    6  N1  UNL     1      24.928   4.304  49.060  1.00  0.00    -0.304 N 
HETATM    7  C4  UNL     1      26.340   4.255  49.170  1.00  0.00     0.257 C 
HETATM    8  O1  UNL     1      26.829   3.234  49.751  1.00  0.00    -0.267 OA
HETATM    9  H5  UNL     1      24.571   5.155  48.579  1.00  0.00     0.171 HD
BRANCH   7  10
HETATM   10  C5  UNL     1      27.219   5.299  48.659  1.00  0.00     0.032 A 
HETATM   11  C6  UNL     1      28.567   5.193  48.417  1.00  0.00     0.017 A 
HETATM   12  C7  UNL     1      29.318   6.242  47.930  1.00  0.00     0.001 A 
HETATM   13  C8  UNL     1      28.735   7.465  47.662  1.00  0.00     0.000 A 
HETATM   14  C9  UNL     1      27.386   7.611  47.891  1.00  0.00     0.001 A 
HETATM   15  C10 UNL     1      26.674   6.545  48.374  1.00  0.00     0.017 A 
ENDBRANCH   7  10
ENDBRANCH   3   6
ENDBRANCH   2   3
ENDBRANCH   1   2
BRANCH   1  16
HETATM   16  C12 UNL     1      24.131   3.631  53.136  1.00  0.00     0.107 C 
BRANCH  16  17
HETATM   17  C13 UNL     1      24.314   2.137  53.147  1.00  0.00     0.128 A 
HETATM   18  N2  UNL     1      23.248   1.289  53.066  1.00  0.00    -0.245 NA
HETATM   19  C14 UNL     1      23.516  -0.041  53.084  1.00  0.00     0.121 A 
HETATM   20  C15 UNL     1      24.817  -0.466  53.179  1.00  0.00     0.052 A 
HETATM   21  C16 UNL     1      25.896   0.379  53.260  1.00  0.00     0.072 A 
HETATM   22  C17 UNL     1      27.258  -0.096  53.359  1.00  0.00     0.016 A 
HETATM   23  N4  UNL     1      25.575   1.681  53.240  1.00  0.00    -0.233 NA
HETATM   24  C18 UNL     1      27.592  -1.434  53.383  1.00  0.00     0.130 A 
HETATM   25  C21 UNL     1      28.296   0.807  53.436  1.00  0.00    -0.047 A 
HETATM   26  N3  UNL     1      28.860  -1.907  53.474  1.00  0.00    -0.272 NA
HETATM   27  C19 UNL     1      29.910  -1.048  53.552  1.00  0.00     0.116 A 
HETATM   28  C20 UNL     1      29.586   0.291  53.529  1.00  0.00     0.027 A 
HETATM   29  C22 UNL     1      28.065   2.283  53.420  1.00  0.00     0.049 C 
ENDBRANCH  16  17
ENDBRANCH   1  16
TORSDOF 6
ENDMDL
MODEL 2
REMARK VINA RESULT:      -9.2      1.835      3.105
REMARK  6 active torsions:
REMARK  status: ('A' for Active; 'I' for Inactive)
REMARK    1  A    between atoms: C3_3  and  N1_4 
REMARK    2  A    between atoms: C3_3  and  O2_13 
REMARK       I    between atoms: N1_4  and  C4_5 
REMARK    3  A    between atoms: C4_5  and  C5_7 
REMARK    4  A    between atoms: O2_13  and  C11_14 
REMARK    5  A    between atoms: C11_14  and  C12_15 
REMARK    6  A    between atoms: C12_15  and  C13_16 
ROOT
HETATM    1  C11 UNL     1      21.462   0.605  52.097  1.00  0.00     0.185 C 
ENDROOT
BRANCH   1   2
HETATM    2  O2  UNL     1      21.423   0.429  50.675  1.00  0.00    -0.336 OA
BRANCH   2   3
HETATM    3  C3  UNL     1      21.445   1.525  49.825  1.00  0.00     0.140 C 
HETATM    4  C2  UNL     1      20.220   1.790  49.407  1.00  0.00     0.025 C 
HETATM    5  C1  UNL     1      18.931   1.085  49.734  1.00  0.00     0.040 C 
BRANCH   3   6
HETATM    6  N1  UNL     1      22.662   2.171  49.532  1.00  0.00    -0.304 N 
HETATM    7  C4  UNL     1      23.071   3.473  49.917  1.00  0.00     0.257 C 
HETATM    8  O1  UNL     1      22.243   4.146  50.611  1.00  0.00    -0.267 OA
HETATM    9  H5  UNL     1      23.368   1.658  48.966  1.00  0.00     0.171 HD
BRANCH   7  10
HETATM   10  C5  UNL     1      24.361   4.047  49.556  1.00  0.00     0.032 A 
HETATM   11  C6  UNL     1      24.593   5.315  49.083  1.00  0.00     0.017 A 
HETATM   12  C7  UNL     1      25.856   5.768  48.767  1.00  0.00     0.001 A 
HETATM   13  C8  UNL     1      26.959   4.951  48.915  1.00  0.00     0.000 A 
HETATM   14  C9  UNL     1      26.768   3.673  49.387  1.00  0.00     0.001 A 
HETATM   15  C10 UNL     1      25.498   3.258  49.691  1.00  0.00     0.017 A 
ENDBRANCH   7  10
ENDBRANCH   3   6
ENDBRANCH   2   3
ENDBRANCH   1   2
BRANCH   1  16
HETATM   16  C12 UNL     1      22.632  -0.220  52.598  1.00  0.00     0.107 C 
BRANCH  16  17
HETATM   17  C13 UNL     1      23.741   0.753  52.894  1.00  0.00     0.128 A 
HETATM   18  N2  UNL     1      23.493   2.082  53.074  1.00  0.00    -0.245 NA
HETATM   19  C14 UNL     1      24.559   2.879  53.336  1.00  0.00     0.121 A 
HETATM   20  C15 UNL     1      25.813   2.325  53.409  1.00  0.00     0.052 A 
HETATM   21  C16 UNL     1      26.073   0.989  53.231  1.00  0.00     0.072 A 
HETATM   22  C17 UNL     1      27.404   0.432  53.314  1.00  0.00     0.016 A 
HETATM   23  N4  UNL     1      24.985   0.249  52.974  1.00  0.00    -0.233 NA
HETATM   24  C18 UNL     1      28.527   1.190  53.577  1.00  0.00     0.130 A 
HETATM   25  C21 UNL     1      27.596  -0.920  53.126  1.00  0.00    -0.047 A 
HETATM   26  N3  UNL     1      29.786   0.695  53.661  1.00  0.00    -0.272 NA
HETATM   27  C19 UNL     1      30.014  -0.634  53.482  1.00  0.00     0.116 A 
HETATM   28  C20 UNL     1      28.900  -1.399  53.218  1.00  0.00     0.027 A 
HETATM   29  C22 UNL     1      26.462  -1.848  52.835  1.00  0.00     0.049 C 
ENDBRANCH  16  17
ENDBRANCH   1  16
TORSDOF 6
ENDMDL
MODEL 3
REMARK VINA RESULT:      -9.1      2.135      7.012
REMARK  6 active torsions:
REMARK  status: ('A' for Active; 'I' for Inactive)
REMARK    1  A    between atoms: C3_3  and  N1_4 
REMARK    2  A    between atoms: C3_3  and  O2_13 
REMARK       I    between atoms: N1_4  and  C4_5 
REMARK    3  A    between atoms: C4_5  and  C5_7 
REMARK    4  A    between atoms: O2_13  and  C11_14 
REMARK    5  A    between atoms: C11_14  and  C12_15 
REMARK    6  A    between atoms: C12_15  and  C13_16 
ROOT
HETATM    1  C11 UNL     1      23.638   2.115  52.697  1.00  0.00     0.185 C 
ENDROOT
BRANCH   1   2
HETATM    2  O2  UNL     1      22.970   1.022  53.340  1.00  0.00    -0.336 OA
BRANCH   2   3
HETATM    3  C3  UNL     1      23.610  -0.195  53.515  1.00  0.00     0.140 C 
HETATM    4  C2  UNL     1      22.726  -1.120  53.847  1.00  0.00     0.025 C 
HETATM    5  C1  UNL     1      21.239  -0.990  54.035  1.00  0.00     0.040 C 
BRANCH   3   6
HETATM    6  N1  UNL     1      25.003  -0.297  53.335  1.00  0.00    -0.304 N 
HETATM    7  C4  UNL     1      26.005  -0.388  54.333  1.00  0.00     0.257 C 
HETATM    8  O1  UNL     1      25.606  -0.377  55.541  1.00  0.00    -0.267 OA
HETATM    9  H5  UNL     1      25.374  -0.310  52.362  1.00  0.00     0.171 HD
BRANCH   7  10
HETATM   10  C5  UNL     1      27.428  -0.490  54.033  1.00  0.00     0.032 A 
HETATM   11  C6  UNL     1      28.412   0.394  54.403  1.00  0.00     0.017 A 
HETATM   12  C7  UNL     1      29.736   0.211  54.070  1.00  0.00     0.001 A 
HETATM   13  C8  UNL     1      30.136  -0.888  53.335  1.00  0.00     0.000 A 
HETATM   14  C9  UNL     1      29.180  -1.798  52.946  1.00  0.00     0.001 A 
HETATM   15  C10 UNL     1      27.873  -1.582  53.297  1.00  0.00     0.017 A 
ENDBRANCH   7  10
ENDBRANCH   3   6
ENDBRANCH   2   3
ENDBRANCH   1   2
BRANCH   1  16
HETATM   16  C12 UNL     1      22.815   2.458  51.471  1.00  0.00     0.107 C 
BRANCH  16  17
HETATM   17  C13 UNL     1      23.095   3.904  51.162  1.00  0.00     0.128 A 
HETATM   18  N2  UNL     1      22.214   4.888  51.504  1.00  0.00    -0.245 NA
HETATM   19  C14 UNL     1      22.556   6.161  51.182  1.00  0.00     0.121 A 
HETATM   20  C15 UNL     1      23.746   6.398  50.542  1.00  0.00     0.052 A 
HETATM   21  C16 UNL     1      24.640   5.415  50.194  1.00  0.00     0.072 A 
HETATM   22  C17 UNL     1      25.888   5.693  49.521  1.00  0.00     0.016 A 
HETATM   23  N4  UNL     1      24.251   4.178  50.535  1.00  0.00    -0.233 NA
HETATM   24  C18 UNL     1      26.290   6.964  49.167  1.00  0.00     0.130 A 
HETATM   25  C21 UNL     1      26.741   4.659  49.201  1.00  0.00    -0.047 A 
HETATM   26  N3  UNL     1      27.454   7.254  48.536  1.00  0.00    -0.272 NA
HETATM   27  C19 UNL     1      28.322   6.261  48.205  1.00  0.00     0.116 A 
HETATM   28  C20 UNL     1      27.929   4.987  48.554  1.00  0.00     0.027 A 
HETATM   29  C22 UNL     1      26.421   3.237  49.531  1.00  0.00     0.049 C 
ENDBRANCH  16  17
ENDBRANCH   1  16
TORSDOF 6
ENDMDL
MODEL 4
REMARK VINA RESULT:      -9.1      1.533      2.255
REMARK  6 active torsions:
REMARK  status: ('A' for Active; 'I' for Inactive)
REMARK    1  A    between atoms: C3_3  and  N1_4 
REMARK    2  A    between atoms: C3_3  and  O2_13 
REMARK       I    between atoms: N1_4  and  C4_5 
REMARK    3  A    between atoms: C4_5  and  C5_7 
REMARK    4  A    between atoms: O2_13  and  C11_14 
REMARK    5  A    between atoms: C11_14  and  C12_15 
REMARK    6  A    between atoms: C12_15  and  C13_16 
ROOT
HETATM    1  C11 UNL     1      23.553   2.533  49.940  1.00  0.00     0.185 C 
ENDROOT
BRANCH   1   2
HETATM    2  O2  UNL     1      23.215   3.904  50.189  1.00  0.00    -0.336 OA
BRANCH   2   3
HETATM    3  C3  UNL     1      24.066   4.721  50.918  1.00  0.00     0.140 C 
HETATM    4  C2  UNL     1      23.491   5.057  52.060  1.00  0.00     0.025 C 
HETATM    5  C1  UNL     1      22.137   4.675  52.591  1.00  0.00     0.040 C 
BRANCH   3   6
HETATM    6  N1  UNL     1      25.331   5.069  50.403  1.00  0.00    -0.304 N 
HETATM    7  C4  UNL     1      25.627   5.665  49.152  1.00  0.00     0.257 C 
HETATM    8  O1  UNL     1      24.636   5.920  48.396  1.00  0.00    -0.267 OA
HETATM    9  H5  UNL     1      26.169   4.877  50.989  1.00  0.00     0.171 HD
BRANCH   7  10
HETATM   10  C5  UNL     1      26.981   5.984  48.718  1.00  0.00     0.032 A 
HETATM   11  C6  UNL     1      28.010   5.096  48.516  1.00  0.00     0.017 A 
HETATM   12  C7  UNL     1      29.262   5.495  48.102  1.00  0.00     0.001 A 
HETATM   13  C8  UNL     1      29.540   6.828  47.871  1.00  0.00     0.000 A 
HETATM   14  C9  UNL     1      28.535   7.748  48.061  1.00  0.00     0.001 A 
HETATM   15  C10 UNL     1      27.303   7.313  48.472  1.00  0.00     0.017 A 
ENDBRANCH   7  10
ENDBRANCH   3   6
ENDBRANCH   2   3
ENDBRANCH   1   2
BRANCH   1  16
HETATM   16  C12 UNL     1      22.321   1.720  50.284  1.00  0.00     0.107 C 
BRANCH  16  17
HETATM   17  C13 UNL     1      22.636   0.990  51.561  1.00  0.00     0.128 A 
HETATM   18  N2  UNL     1      21.665   0.347  52.271  1.00  0.00    -0.245 NA
HETATM   19  C14 UNL     1      22.048  -0.282  53.410  1.00  0.00     0.121 A 
HETATM   20  C15 UNL     1      23.366  -0.246  53.791  1.00  0.00     0.052 A 
HETATM   21  C16 UNL     1      24.351   0.398  53.083  1.00  0.00     0.072 A 
HETATM   22  C17 UNL     1      25.733   0.420  53.505  1.00  0.00     0.016 A 
HETATM   23  N4  UNL     1      23.917   1.003  51.967  1.00  0.00    -0.233 NA
HETATM   24  C18 UNL     1      26.183  -0.199  54.653  1.00  0.00     0.130 A 
HETATM   25  C21 UNL     1      26.673   1.085  52.748  1.00  0.00    -0.047 A 
HETATM   26  N3  UNL     1      27.472  -0.195  55.073  1.00  0.00    -0.272 NA
HETATM   27  C19 UNL     1      28.427   0.449  54.352  1.00  0.00     0.116 A 
HETATM   28  C20 UNL     1      27.988   1.072  53.204  1.00  0.00     0.027 A 
HETATM   29  C22 UNL     1      26.312   1.795  51.483  1.00  0.00     0.049 C 
ENDBRANCH  16  17
ENDBRANCH   1  16
TORSDOF 6
ENDMDL
MODEL 5
REMARK VINA RESULT:      -9.0      2.234      8.206
REMARK  6 active torsions:
REMARK  status: ('A' for Active; 'I' for Inactive)
REMARK    1  A    between atoms: C3_3  and  N1_4 
REMARK    2  A    between atoms: C3_3  and  O2_13 
REMARK       I    between atoms: N1_4  and  C4_5 
REMARK    3  A    between atoms: C4_5  and  C5_7 
REMARK    4  A    between atoms: O2_13  and  C11_14 
REMARK    5  A    between atoms: C11_14  and  C12_15 
REMARK    6  A    between atoms: C12_15  and  C13_16 
ROOT
HETATM    1  C11 UNL     1      27.185   2.243  52.368  1.00  0.00     0.185 C 
ENDROOT
BRANCH   1   2
HETATM    2  O2  UNL     1      27.952   1.059  52.623  1.00  0.00    -0.336 OA
BRANCH   2   3
HETATM    3  C3  UNL     1      27.327  -0.127  52.980  1.00  0.00     0.140 C 
HETATM    4  C2  UNL     1      28.236  -1.028  53.312  1.00  0.00     0.025 C 
HETATM    5  C1  UNL     1      29.735  -0.901  53.339  1.00  0.00     0.040 C 
BRANCH   3   6
HETATM    6  N1  UNL     1      25.922  -0.226  52.948  1.00  0.00    -0.304 N 
HETATM    7  C4  UNL     1      25.044  -0.483  54.031  1.00  0.00     0.257 C 
HETATM    8  O1  UNL     1      25.582  -0.645  55.173  1.00  0.00    -0.267 OA
HETATM    9  H5  UNL     1      25.441  -0.100  52.035  1.00  0.00     0.171 HD
BRANCH   7  10
HETATM   10  C5  UNL     1      23.596  -0.565  53.885  1.00  0.00     0.032 A 
HETATM   11  C6  UNL     1      22.836   0.008  52.895  1.00  0.00     0.017 A 
HETATM   12  C7  UNL     1      21.466  -0.127  52.841  1.00  0.00     0.001 A 
HETATM   13  C8  UNL     1      20.788  -0.855  53.799  1.00  0.00     0.000 A 
HETATM   14  C9  UNL     1      21.514  -1.445  54.808  1.00  0.00     0.001 A 
HETATM   15  C10 UNL     1      22.875  -1.289  54.827  1.00  0.00     0.017 A 
ENDBRANCH   7  10
ENDBRANCH   3   6
ENDBRANCH   2   3
ENDBRANCH   1   2
BRANCH   1  16
HETATM   16  C12 UNL     1      26.665   2.117  50.949  1.00  0.00     0.107 C 
BRANCH  16  17
HETATM   17  C13 UNL     1      25.774   3.307  50.717  1.00  0.00     0.128 A 
HETATM   18  N2  UNL     1      24.533   3.387  51.277  1.00  0.00    -0.245 NA
HETATM   19  C14 UNL     1      23.805   4.500  51.007  1.00  0.00     0.121 A 
HETATM   20  C15 UNL     1      24.337   5.475  50.202  1.00  0.00     0.052 A 
HETATM   21  C16 UNL     1      25.586   5.405  49.634  1.00  0.00     0.072 A 
HETATM   22  C17 UNL     1      26.122   6.448  48.791  1.00  0.00     0.016 A 
HETATM   23  N4  UNL     1      26.260   4.285  49.933  1.00  0.00    -0.233 NA
HETATM   24  C18 UNL     1      25.431   7.601  48.480  1.00  0.00     0.130 A 
HETATM   25  C21 UNL     1      27.384   6.316  48.253  1.00  0.00    -0.047 A 
HETATM   26  N3  UNL     1      25.910   8.595  47.692  1.00  0.00    -0.272 NA
HETATM   27  C19 UNL     1      27.150   8.500  47.144  1.00  0.00     0.116 A 
HETATM   28  C20 UNL     1      27.849   7.352  47.448  1.00  0.00     0.027 A 
HETATM   29  C22 UNL     1      28.234   5.114  48.514  1.00  0.00     0.049 C 
ENDBRANCH  16  17
ENDBRANCH   1  16
TORSDOF 6
ENDMDL
MODEL 6
REMARK VINA RESULT:      -9.0      2.406      5.756
REMARK  6 active torsions:
REMARK  status: ('A' for Active; 'I' for Inactive)
REMARK    1  A    between atoms: C3_3  and  N1_4 
REMARK    2  A    between atoms: C3_3  and  O2_13 
REMARK       I    between atoms: N1_4  and  C4_5 
REMARK    3  A    between atoms: C4_5  and  C5_7 
REMARK    4  A    between atoms: O2_13  and  C11_14 
REMARK    5  A    between atoms: C11_14  and  C12_15 
REMARK    6  A    between atoms: C12_15  and  C13_16 
ROOT
HETATM    1  C11 UNL     1      23.173   4.234  50.000  1.00  0.00     0.185 C 
ENDROOT
BRANCH   1   2
HETATM    2  O2  UNL     1      24.154   5.174  49.544  1.00  0.00    -0.336 OA
BRANCH   2   3
HETATM    3  C3  UNL     1      25.477   5.071  49.949  1.00  0.00     0.140 C 
HETATM    4  C2  UNL     1      26.208   5.975  49.321  1.00  0.00     0.025 C 
HETATM    5  C1  UNL     1      25.783   7.005  48.309  1.00  0.00     0.040 C 
BRANCH   3   6
HETATM    6  N1  UNL     1      25.854   4.100  50.897  1.00  0.00    -0.304 N 
HETATM    7  C4  UNL     1      26.567   2.895  50.673  1.00  0.00     0.257 C 
HETATM    8  O1  UNL     1      26.911   2.655  49.472  1.00  0.00    -0.267 OA
HETATM    9  H5  UNL     1      25.593   4.257  51.892  1.00  0.00     0.171 HD
BRANCH   7  10
HETATM   10  C5  UNL     1      26.907   1.957  51.735  1.00  0.00     0.032 A 
HETATM   11  C6  UNL     1      27.545   2.247  52.916  1.00  0.00     0.017 A 
HETATM   12  C7  UNL     1      27.824   1.286  53.863  1.00  0.00     0.001 A 
HETATM   13  C8  UNL     1      27.468  -0.033  53.660  1.00  0.00     0.000 A 
HETATM   14  C9  UNL     1      26.827  -0.364  52.489  1.00  0.00     0.001 A 
HETATM   15  C10 UNL     1      26.566   0.619  51.571  1.00  0.00     0.017 A 
ENDBRANCH   7  10
ENDBRANCH   3   6
ENDBRANCH   2   3
ENDBRANCH   1   2
BRANCH   1  16
HETATM   16  C12 UNL     1      22.308   4.972  51.003  1.00  0.00     0.107 C 
BRANCH  16  17
HETATM   17  C13 UNL     1      21.209   4.023  51.395  1.00  0.00     0.128 A 
HETATM   18  N2  UNL     1      19.901   4.292  51.113  1.00  0.00    -0.245 NA
HETATM   19  C14 UNL     1      18.983   3.375  51.508  1.00  0.00     0.121 A 
HETATM   20  C15 UNL     1      19.400   2.241  52.159  1.00  0.00     0.052 A 
HETATM   21  C16 UNL     1      20.713   1.960  52.447  1.00  0.00     0.072 A 
HETATM   22  C17 UNL     1      21.124   0.756  53.133  1.00  0.00     0.016 A 
HETATM   23  N4  UNL     1      21.576   2.899  52.035  1.00  0.00    -0.233 NA
HETATM   24  C18 UNL     1      20.239  -0.212  53.560  1.00  0.00     0.130 A 
HETATM   25  C21 UNL     1      22.460   0.535  53.390  1.00  0.00    -0.047 A 
HETATM   26  N3  UNL     1      20.596  -1.349  54.205  1.00  0.00    -0.272 NA
HETATM   27  C19 UNL     1      21.904  -1.603  54.476  1.00  0.00     0.116 A 
HETATM   28  C20 UNL     1      22.797  -0.642  54.054  1.00  0.00     0.027 A 
HETATM   29  C22 UNL     1      23.518   1.507  52.979  1.00  0.00     0.049 C 
ENDBRANCH  16  17
ENDBRANCH   1  16
TORSDOF 6
ENDMDL
MODEL 7
REMARK VINA RESULT:      -8.9      2.504      8.383
REMARK  6 active torsions:
REMARK  status: ('A' for Active; 'I' for Inactive)
REMARK    1  A    between atoms: C3_3  and  N1_4 
REMARK    2  A    between atoms: C3_3  and  O2_13 
REMARK       I    between atoms: N1_4  and  C4_5 
REMARK    3  A    between atoms: C4_5  and  C5_7 
REMARK    4  A    between atoms: O2_13  and  C11_14 
REMARK    5  A    between atoms: C11_14  and  C12_15 
REMARK    6  A    between atoms: C12_15  and  C13_16 
ROOT
HETATM    1  C11 UNL     1      27.046   2.387  52.188  1.00  0.00     0.185 C 
ENDROOT
BRANCH   1   2
HETATM    2  O2  UNL     1      27.818   1.253  52.606  1.00  0.00    -0.336 OA
BRANCH   2   3
HETATM    3  C3  UNL     1      27.195   0.077  52.996  1.00  0.00     0.140 C 
HETATM    4  C2  UNL     1      28.104  -0.805  53.374  1.00  0.00     0.025 C 
HETATM    5  C1  UNL     1      29.602  -0.667  53.418  1.00  0.00     0.040 C 
BRANCH   3   6
HETATM    6  N1  UNL     1      25.792  -0.033  52.948  1.00  0.00    -0.304 N 
HETATM    7  C4  UNL     1      24.916  -0.454  53.980  1.00  0.00     0.257 C 
HETATM    8  O1  UNL     1      25.456  -0.774  55.087  1.00  0.00    -0.267 OA
HETATM    9  H5  UNL     1      25.309   0.219  52.061  1.00  0.00     0.171 HD
BRANCH   7  10
HETATM   10  C5  UNL     1      23.469  -0.531  53.821  1.00  0.00     0.032 A 
HETATM   11  C6  UNL     1      22.728  -0.015  52.786  1.00  0.00     0.017 A 
HETATM   12  C7  UNL     1      21.357  -0.139  52.723  1.00  0.00     0.001 A 
HETATM   13  C8  UNL     1      20.659  -0.798  53.717  1.00  0.00     0.000 A 
HETATM   14  C9  UNL     1      21.367  -1.330  54.770  1.00  0.00     0.001 A 
HETATM   15  C10 UNL     1      22.729  -1.186  54.797  1.00  0.00     0.017 A 
ENDBRANCH   7  10
ENDBRANCH   3   6
ENDBRANCH   2   3
ENDBRANCH   1   2
BRANCH   1  16
HETATM   16  C12 UNL     1      26.625   2.113  50.758  1.00  0.00     0.107 C 
BRANCH  16  17
HETATM   17  C13 UNL     1      26.469   3.456  50.096  1.00  0.00     0.128 A 
HETATM   18  N2  UNL     1      27.431   3.957  49.268  1.00  0.00    -0.245 NA
HETATM   19  C14 UNL     1      27.198   5.176  48.720  1.00  0.00     0.121 A 
HETATM   20  C15 UNL     1      26.033   5.837  49.015  1.00  0.00     0.052 A 
HETATM   21  C16 UNL     1      25.059   5.342  49.847  1.00  0.00     0.072 A 
HETATM   22  C17 UNL     1      23.839   6.059  50.140  1.00  0.00     0.016 A 
HETATM   23  N4  UNL     1      25.340   4.135  50.361  1.00  0.00    -0.233 NA
HETATM   24  C18 UNL     1      23.547   7.301  49.615  1.00  0.00     0.130 A 
HETATM   25  C21 UNL     1      22.901   5.503  50.983  1.00  0.00    -0.047 A 
HETATM   26  N3  UNL     1      22.411   7.996  49.872  1.00  0.00    -0.272 NA
HETATM   27  C19 UNL     1      21.463   7.480  50.698  1.00  0.00     0.116 A 
HETATM   28  C20 UNL     1      21.746   6.240  51.228  1.00  0.00     0.027 A 
HETATM   29  C22 UNL     1      23.099   4.164  51.616  1.00  0.00     0.049 C 
ENDBRANCH  16  17
ENDBRANCH   1  16
TORSDOF 6
ENDMDL
MODEL 8
REMARK VINA RESULT:      -8.9      2.490      7.748
REMARK  6 active torsions:
REMARK  status: ('A' for Active; 'I' for Inactive)
REMARK    1  A    between atoms: C3_3  and  N1_4 
REMARK    2  A    between atoms: C3_3  and  O2_13 
REMARK       I    between atoms: N1_4  and  C4_5 
REMARK    3  A    between atoms: C4_5  and  C5_7 
REMARK    4  A    between atoms: O2_13  and  C11_14 
REMARK    5  A    between atoms: C11_14  and  C12_15 
REMARK    6  A    between atoms: C12_15  and  C13_16 
ROOT
HETATM    1  C11 UNL     1      26.416   2.881  49.891  1.00  0.00     0.185 C 
ENDROOT
BRANCH   1   2
HETATM    2  O2  UNL     1      26.964   2.818  51.214  1.00  0.00    -0.336 OA
BRANCH   2   3
HETATM    3  C3  UNL     1      26.291   2.155  52.229  1.00  0.00     0.140 C 
HETATM    4  C2  UNL     1      27.087   2.013  53.275  1.00  0.00     0.025 C 
HETATM    5  C1  UNL     1      28.513   2.460  53.451  1.00  0.00     0.040 C 
BRANCH   3   6
HETATM    6  N1  UNL     1      24.956   1.744  52.045  1.00  0.00    -0.304 N 
HETATM    7  C4  UNL     1      23.774   2.452  52.379  1.00  0.00     0.257 C 
HETATM    8  O1  UNL     1      23.929   3.597  52.911  1.00  0.00    -0.267 OA
HETATM    9  H5  UNL     1      24.783   0.813  51.613  1.00  0.00     0.171 HD
BRANCH   7  10
HETATM   10  C5  UNL     1      22.434   1.929  52.143  1.00  0.00     0.032 A 
HETATM   11  C6  UNL     1      22.111   0.717  51.583  1.00  0.00     0.017 A 
HETATM   12  C7  UNL     1      20.808   0.309  51.399  1.00  0.00     0.001 A 
HETATM   13  C8  UNL     1      19.753   1.117  51.777  1.00  0.00     0.000 A 
HETATM   14  C9  UNL     1      20.036   2.339  52.343  1.00  0.00     0.001 A 
HETATM   15  C10 UNL     1      21.344   2.709  52.509  1.00  0.00     0.017 A 
ENDBRANCH   7  10
ENDBRANCH   3   6
ENDBRANCH   2   3
ENDBRANCH   1   2
BRANCH   1  16
HETATM   16  C12 UNL     1      26.582   4.315  49.427  1.00  0.00     0.107 C 
BRANCH  16  17
HETATM   17  C13 UNL     1      25.311   5.031  49.797  1.00  0.00     0.128 A 
HETATM   18  N2  UNL     1      25.333   6.229  50.449  1.00  0.00    -0.245 NA
HETATM   19  C14 UNL     1      24.135   6.796  50.738  1.00  0.00     0.121 A 
HETATM   20  C15 UNL     1      22.979   6.155  50.370  1.00  0.00     0.052 A 
HETATM   21  C16 UNL     1      22.946   4.950  49.713  1.00  0.00     0.072 A 
HETATM   22  C17 UNL     1      21.713   4.297  49.336  1.00  0.00     0.016 A 
HETATM   23  N4  UNL     1      24.157   4.435  49.453  1.00  0.00    -0.233 NA
HETATM   24  C18 UNL     1      20.466   4.822  49.603  1.00  0.00     0.130 A 
HETATM   25  C21 UNL     1      21.751   3.087  48.676  1.00  0.00    -0.047 A 
HETATM   26  N3  UNL     1      19.294   4.232  49.261  1.00  0.00    -0.272 NA
HETATM   27  C19 UNL     1      19.291   3.039  48.609  1.00  0.00     0.116 A 
HETATM   28  C20 UNL     1      20.532   2.505  48.338  1.00  0.00     0.027 A 
HETATM   29  C22 UNL     1      23.039   2.414  48.328  1.00  0.00     0.049 C 
ENDBRANCH  16  17
ENDBRANCH   1  16
TORSDOF 6
ENDMDL
MODEL 9
REMARK VINA RESULT:      -8.8      2.223      3.076
REMARK  6 active torsions:
REMARK  status: ('A' for Active; 'I' for Inactive)
REMARK    1  A    between atoms: C3_3  and  N1_4 
REMARK    2  A    between atoms: C3_3  and  O2_13 
REMARK       I    between atoms: N1_4  and  C4_5 
REMARK    3  A    between atoms: C4_5  and  C5_7 
REMARK    4  A    between atoms: O2_13  and  C11_14 
REMARK    5  A    between atoms: C11_14  and  C12_15 
REMARK    6  A    between atoms: C12_15  and  C13_16 
ROOT
HETATM    1  C11 UNL     1      21.647   3.718  52.216  1.00  0.00     0.185 C 
ENDROOT
BRANCH   1   2
HETATM    2  O2  UNL     1      21.102   4.767  51.405  1.00  0.00    -0.336 OA
BRANCH   2   3
HETATM    3  C3  UNL     1      21.408   4.850  50.055  1.00  0.00     0.140 C 
HETATM    4  C2  UNL     1      20.294   4.945  49.350  1.00  0.00     0.025 C 
HETATM    5  C1  UNL     1      18.866   4.970  49.826  1.00  0.00     0.040 C 
BRANCH   3   6
HETATM    6  N1  UNL     1      22.750   4.825  49.629  1.00  0.00    -0.304 N 
HETATM    7  C4  UNL     1      23.765   5.779  49.894  1.00  0.00     0.257 C 
HETATM    8  O1  UNL     1      23.430   6.782  50.602  1.00  0.00    -0.267 OA
HETATM    9  H5  UNL     1      23.067   4.023  49.047  1.00  0.00     0.171 HD
BRANCH   7  10
HETATM   10  C5  UNL     1      25.130   5.653  49.400  1.00  0.00     0.032 A 
HETATM   11  C6  UNL     1      25.877   6.632  48.791  1.00  0.00     0.017 A 
HETATM   12  C7  UNL     1      27.167   6.417  48.356  1.00  0.00     0.001 A 
HETATM   13  C8  UNL     1      27.772   5.185  48.516  1.00  0.00     0.000 A 
HETATM   14  C9  UNL     1      27.056   4.179  49.122  1.00  0.00     0.001 A 
HETATM   15  C10 UNL     1      25.777   4.431  49.542  1.00  0.00     0.017 A 
ENDBRANCH   7  10
ENDBRANCH   3   6
ENDBRANCH   2   3
ENDBRANCH   1   2
BRANCH   1  16
HETATM   16  C12 UNL     1      20.702   2.540  52.084  1.00  0.00     0.107 C 
BRANCH  16  17
HETATM   17  C13 UNL     1      21.296   1.425  52.902  1.00  0.00     0.128 A 
HETATM   18  N2  UNL     1      20.537   0.697  53.770  1.00  0.00    -0.245 NA
HETATM   19  C14 UNL     1      21.164  -0.287  54.463  1.00  0.00     0.121 A 
HETATM   20  C15 UNL     1      22.504  -0.503  54.264  1.00  0.00     0.052 A 
HETATM   21  C16 UNL     1      23.277   0.224  53.392  1.00  0.00     0.072 A 
HETATM   22  C17 UNL     1      24.688  -0.026  53.200  1.00  0.00     0.016 A 
HETATM   23  N4  UNL     1      22.608   1.182  52.735  1.00  0.00    -0.233 NA
HETATM   24  C18 UNL     1      25.380  -1.010  53.875  1.00  0.00     0.130 A 
HETATM   25  C21 UNL     1      25.406   0.740  52.308  1.00  0.00    -0.047 A 
HETATM   26  N3  UNL     1      26.702  -1.266  53.716  1.00  0.00    -0.272 NA
HETATM   27  C19 UNL     1      27.443  -0.532  52.844  1.00  0.00     0.116 A 
HETATM   28  C20 UNL     1      26.761   0.454  52.165  1.00  0.00     0.027 A 
HETATM   29  C22 UNL     1      24.772   1.837  51.515  1.00  0.00     0.049 C 
ENDBRANCH  16  17
ENDBRANCH   1  16
TORSDOF 6
ENDMDL
