MODEL 1
REMARK VINA RESULT:      -7.5      0.000      0.000
REMARK  3 active torsions:
REMARK  status: ('A' for Active; 'I' for Inactive)
REMARK    1  A    between atoms: C2_2  and  S1_3 
REMARK    2  A    between atoms: S1_3  and  N1_6 
REMARK    3  A    between atoms: N1_6  and  C3_7 
ROOT
HETATM    1  C3  UNL     1      23.785   3.366  52.015  1.00  0.00     0.009 A 
HETATM    2  C4  UNL     1      23.123   2.151  52.037  1.00  0.00     0.057 A 
HETATM    3  C5  UNL     1      21.821   2.314  52.068  1.00  0.00     0.057 A 
HETATM    4  C6  UNL     1      20.731   1.526  51.849  1.00  0.00     0.163 A 
HETATM    5  N2  UNL     1      19.407   1.342  51.709  1.00  0.00    -0.248 NA
HETATM    6  C7  UNL     1      18.662   2.519  51.824  1.00  0.00     0.225 A 
HETATM    7  N3  UNL     1      19.551   3.542  52.039  1.00  0.00    -0.266 NA
HETATM    8  C8  UNL     1      20.859   3.266  52.108  1.00  0.00     0.120 A 
HETATM    9  C9  UNL     1      22.156   3.635  52.064  1.00  0.00     0.093 A 
HETATM   10  C10 UNL     1      23.015   4.582  52.027  1.00  0.00     0.004 A 
HETATM   11  C11 UNL     1      24.055   5.533  51.968  1.00  0.00     0.042 C 
HETATM   12  C12 UNL     1      24.021   5.414  50.533  1.00  0.00    -0.023 A 
HETATM   13 BR1  UNL     1      24.742   5.995  48.800  1.00  0.00    -0.126 Br
HETATM   14  C13 UNL     1      23.596   4.568  49.313  1.00  0.00     0.092 A 
HETATM   15  C14 UNL     1      23.018   3.442  48.834  1.00  0.00     0.012 C 
HETATM   16  C15 UNL     1      22.308   2.074  48.950  1.00  0.00     0.004 C 
HETATM   17  C16 UNL     1      21.768   1.060  49.724  1.00  0.00     0.129 C 
HETATM   18  N4  UNL     1      21.438   0.481  51.067  1.00  0.00    -0.386 N 
HETATM   19  H13 UNL     1      21.890  -0.414  50.768  1.00  0.00     0.156 HD
ENDROOT
BRANCH   1  20
HETATM   20  N1  UNL     1      25.133   2.985  51.954  1.00  0.00    -0.291 N 
HETATM   21  H4  UNL     1      25.447   3.511  51.102  1.00  0.00     0.178 HD
BRANCH  20  22
HETATM   22  S1  UNL     1      26.358   2.037  52.716  1.00  0.00     0.235 S 
HETATM   23  O1  UNL     1      26.333   2.131  54.209  1.00  0.00    -0.205 OA
HETATM   24  O2  UNL     1      27.721   2.524  52.282  1.00  0.00    -0.205 OA
BRANCH  22  25
HETATM   25  C2  UNL     1      26.264   0.362  52.225  1.00  0.00     0.150 C 
HETATM   26  C1  UNL     1      25.640  -0.464  53.073  1.00  0.00     0.025 C 
ENDBRANCH  22  25
ENDBRANCH  20  22
ENDBRANCH   1  20
TORSDOF 3
ENDMDL
MODEL 2
REMARK VINA RESULT:      -7.4      1.098      1.243
REMARK  3 active torsions:
REMARK  status: ('A' for Active; 'I' for Inactive)
REMARK    1  A    between atoms: C2_2  and  S1_3 
REMARK    2  A    between atoms: S1_3  and  N1_6 
REMARK    3  A    between atoms: N1_6  and  C3_7 
ROOT
HETATM    1  C3  UNL     1      23.329   2.421  52.334  1.00  0.00     0.009 A 
HETATM    2  C4  UNL     1      22.390   1.410  52.221  1.00  0.00     0.057 A 
HETATM    3  C5  UNL     1      21.173   1.893  52.133  1.00  0.00     0.057 A 
HETATM    4  C6  UNL     1      19.954   1.410  51.764  1.00  0.00     0.163 A 
HETATM    5  N2  UNL     1      18.649   1.567  51.484  1.00  0.00    -0.248 NA
HETATM    6  C7  UNL     1      18.208   2.888  51.592  1.00  0.00     0.225 A 
HETATM    7  N3  UNL     1      19.292   3.649  51.951  1.00  0.00    -0.266 NA
HETATM    8  C8  UNL     1      20.476   3.053  52.133  1.00  0.00     0.120 A 
HETATM    9  C9  UNL     1      21.820   3.088  52.238  1.00  0.00     0.093 A 
HETATM   10  C10 UNL     1      22.885   3.790  52.339  1.00  0.00     0.004 A 
HETATM   11  C11 UNL     1      24.126   4.452  52.437  1.00  0.00     0.042 C 
HETATM   12  C12 UNL     1      24.221   4.390  51.002  1.00  0.00    -0.023 A 
HETATM   13 BR1  UNL     1      25.248   4.825  49.384  1.00  0.00    -0.126 Br
HETATM   14  C13 UNL     1      23.737   3.715  49.700  1.00  0.00     0.092 A 
HETATM   15  C14 UNL     1      22.957   2.785  49.102  1.00  0.00     0.012 C 
HETATM   16  C15 UNL     1      21.925   1.635  49.069  1.00  0.00     0.004 C 
HETATM   17  C16 UNL     1      21.071   0.765  49.727  1.00  0.00     0.129 C 
HETATM   18  N4  UNL     1      20.464   0.246  50.996  1.00  0.00    -0.386 N 
HETATM   19  H13 UNL     1      20.712  -0.724  50.692  1.00  0.00     0.156 HD
ENDROOT
BRANCH   1  20
HETATM   20  N1  UNL     1      24.541   1.718  52.384  1.00  0.00    -0.291 N 
HETATM   21  H4  UNL     1      24.899   1.874  51.410  1.00  0.00     0.178 HD
BRANCH  20  22
HETATM   22  S1  UNL     1      25.566   0.762  53.392  1.00  0.00     0.235 S 
HETATM   23  O1  UNL     1      24.818  -0.237  54.217  1.00  0.00    -0.205 OA
HETATM   24  O2  UNL     1      26.298   1.656  54.366  1.00  0.00    -0.205 OA
BRANCH  22  25
HETATM   25  C2  UNL     1      26.803  -0.046  52.457  1.00  0.00     0.150 C 
HETATM   26  C1  UNL     1      26.904  -1.368  52.637  1.00  0.00     0.025 C 
ENDBRANCH  22  25
ENDBRANCH  20  22
ENDBRANCH   1  20
TORSDOF 3
ENDMDL
MODEL 3
REMARK VINA RESULT:      -7.3      3.126      4.845
REMARK  3 active torsions:
REMARK  status: ('A' for Active; 'I' for Inactive)
REMARK    1  A    between atoms: C2_2  and  S1_3 
REMARK    2  A    between atoms: S1_3  and  N1_6 
REMARK    3  A    between atoms: N1_6  and  C3_7 
ROOT
HETATM    1  C3  UNL     1      23.200   3.954  52.088  1.00  0.00     0.009 A 
HETATM    2  C4  UNL     1      24.365   3.759  52.809  1.00  0.00     0.057 A 
HETATM    3  C5  UNL     1      24.517   2.500  53.145  1.00  0.00     0.057 A 
HETATM    4  C6  UNL     1      25.539   1.727  53.605  1.00  0.00     0.163 A 
HETATM    5  N2  UNL     1      26.072   0.541  53.947  1.00  0.00    -0.248 NA
HETATM    6  C7  UNL     1      25.201  -0.537  53.769  1.00  0.00     0.225 A 
HETATM    7  N3  UNL     1      24.029  -0.031  53.265  1.00  0.00    -0.266 NA
HETATM    8  C8  UNL     1      23.921   1.287  53.060  1.00  0.00     0.120 A 
HETATM    9  C9  UNL     1      23.330   2.357  52.490  1.00  0.00     0.093 A 
HETATM   10  C10 UNL     1      22.352   2.824  51.810  1.00  0.00     0.004 A 
HETATM   11  C11 UNL     1      21.340   3.455  51.058  1.00  0.00     0.042 C 
HETATM   12  C12 UNL     1      22.149   3.253  49.884  1.00  0.00    -0.023 A 
HETATM   13 BR1  UNL     1      22.342   3.470  47.941  1.00  0.00    -0.126 Br
HETATM   14  C13 UNL     1      23.557   2.970  49.315  1.00  0.00     0.092 A 
HETATM   15  C14 UNL     1      24.872   2.751  49.544  1.00  0.00     0.012 C 
HETATM   16  C15 UNL     1      26.131   2.578  50.424  1.00  0.00     0.004 C 
HETATM   17  C16 UNL     1      26.730   2.538  51.673  1.00  0.00     0.129 C 
HETATM   18  N4  UNL     1      26.636   2.626  53.166  1.00  0.00    -0.386 N 
HETATM   19  H13 UNL     1      27.429   3.309  53.154  1.00  0.00     0.156 HD
ENDROOT
BRANCH   1  20
HETATM   20  N1  UNL     1      23.235   5.326  51.802  1.00  0.00    -0.291 N 
HETATM   21  H4  UNL     1      22.695   5.710  52.616  1.00  0.00     0.178 HD
BRANCH  20  22
HETATM   22  S1  UNL     1      23.801   6.511  50.681  1.00  0.00     0.235 S 
HETATM   23  O1  UNL     1      23.773   7.903  51.229  1.00  0.00    -0.205 OA
HETATM   24  O2  UNL     1      22.914   6.517  49.458  1.00  0.00    -0.205 OA
BRANCH  22  25
HETATM   25  C2  UNL     1      25.409   6.130  50.110  1.00  0.00     0.150 C 
HETATM   26  C1  UNL     1      25.609   6.255  48.794  1.00  0.00     0.025 C 
ENDBRANCH  22  25
ENDBRANCH  20  22
ENDBRANCH   1  20
TORSDOF 3
ENDMDL
MODEL 4
REMARK VINA RESULT:      -7.2      3.311      5.276
REMARK  3 active torsions:
REMARK  status: ('A' for Active; 'I' for Inactive)
REMARK    1  A    between atoms: C2_2  and  S1_3 
REMARK    2  A    between atoms: S1_3  and  N1_6 
REMARK    3  A    between atoms: N1_6  and  C3_7 
ROOT
HETATM    1  C3  UNL     1      24.648   3.679  49.462  1.00  0.00     0.009 A 
HETATM    2  C4  UNL     1      24.463   2.466  50.101  1.00  0.00     0.057 A 
HETATM    3  C5  UNL     1      25.470   2.183  50.895  1.00  0.00     0.057 A 
HETATM    4  C6  UNL     1      25.697   1.304  51.909  1.00  0.00     0.163 A 
HETATM    5  N2  UNL     1      26.450   0.810  52.908  1.00  0.00    -0.248 NA
HETATM    6  C7  UNL     1      27.656   1.493  53.090  1.00  0.00     0.225 A 
HETATM    7  N3  UNL     1      27.692   2.506  52.165  1.00  0.00    -0.266 NA
HETATM    8  C8  UNL     1      26.669   2.650  51.315  1.00  0.00     0.120 A 
HETATM    9  C9  UNL     1      25.947   3.375  50.436  1.00  0.00     0.093 A 
HETATM   10  C10 UNL     1      25.842   4.436  49.730  1.00  0.00     0.004 A 
HETATM   11  C11 UNL     1      25.604   5.567  48.922  1.00  0.00     0.042 C 
HETATM   12  C12 UNL     1      24.878   6.145  50.023  1.00  0.00    -0.023 A 
HETATM   13 BR1  UNL     1      23.862   7.674  50.724  1.00  0.00    -0.126 Br
HETATM   14  C13 UNL     1      24.135   5.901  51.354  1.00  0.00     0.092 A 
HETATM   15  C14 UNL     1      23.700   5.026  52.291  1.00  0.00     0.012 C 
HETATM   16  C15 UNL     1      23.512   3.627  52.920  1.00  0.00     0.004 C 
HETATM   17  C16 UNL     1      23.711   2.256  52.887  1.00  0.00     0.129 C 
HETATM   18  N4  UNL     1      24.270   1.036  52.219  1.00  0.00    -0.386 N 
HETATM   19  H13 UNL     1      23.332   0.582  52.310  1.00  0.00     0.156 HD
ENDROOT
BRANCH   1  20
HETATM   20  N1  UNL     1      23.478   3.812  48.700  1.00  0.00    -0.291 N 
HETATM   21  H4  UNL     1      23.881   3.934  47.739  1.00  0.00     0.178 HD
BRANCH  20  22
HETATM   22  S1  UNL     1      21.753   3.846  48.775  1.00  0.00     0.235 S 
HETATM   23  O1  UNL     1      21.157   5.039  48.098  1.00  0.00    -0.205 OA
HETATM   24  O2  UNL     1      21.308   3.908  50.218  1.00  0.00    -0.205 OA
BRANCH  22  25
HETATM   25  C2  UNL     1      21.059   2.382  48.118  1.00  0.00     0.150 C 
HETATM   26  C1  UNL     1      21.258   1.268  48.831  1.00  0.00     0.025 C 
ENDBRANCH  22  25
ENDBRANCH  20  22
ENDBRANCH   1  20
TORSDOF 3
ENDMDL
MODEL 5
REMARK VINA RESULT:      -7.1      2.651      4.746
REMARK  3 active torsions:
REMARK  status: ('A' for Active; 'I' for Inactive)
REMARK    1  A    between atoms: C2_2  and  S1_3 
REMARK    2  A    between atoms: S1_3  and  N1_6 
REMARK    3  A    between atoms: N1_6  and  C3_7 
ROOT
HETATM    1  C3  UNL     1      23.710   2.482  50.158  1.00  0.00     0.009 A 
HETATM    2  C4  UNL     1      24.685   3.463  50.119  1.00  0.00     0.057 A 
HETATM    3  C5  UNL     1      24.376   4.415  49.271  1.00  0.00     0.057 A 
HETATM    4  C6  UNL     1      24.806   5.683  49.026  1.00  0.00     0.163 A 
HETATM    5  N2  UNL     1      24.716   6.869  48.398  1.00  0.00    -0.248 NA
HETATM    6  C7  UNL     1      23.641   6.951  47.509  1.00  0.00     0.225 A 
HETATM    7  N3  UNL     1      22.975   5.753  47.567  1.00  0.00    -0.266 NA
HETATM    8  C8  UNL     1      23.431   4.791  48.377  1.00  0.00     0.120 A 
HETATM    9  C9  UNL     1      23.270   3.644  49.070  1.00  0.00     0.093 A 
HETATM   10  C10 UNL     1      22.548   2.618  49.320  1.00  0.00     0.004 A 
HETATM   11  C11 UNL     1      21.837   1.458  49.692  1.00  0.00     0.042 C 
HETATM   12  C12 UNL     1      21.261   2.214  50.774  1.00  0.00    -0.023 A 
HETATM   13 BR1  UNL     1      20.040   2.245  52.314  1.00  0.00    -0.126 Br
HETATM   14  C13 UNL     1      21.365   3.456  51.686  1.00  0.00     0.092 A 
HETATM   15  C14 UNL     1      22.039   4.574  52.042  1.00  0.00     0.012 C 
HETATM   16  C15 UNL     1      23.186   5.606  51.952  1.00  0.00     0.004 C 
HETATM   17  C16 UNL     1      24.358   6.054  51.365  1.00  0.00     0.129 C 
HETATM   18  N4  UNL     1      25.448   5.898  50.347  1.00  0.00    -0.386 N 
HETATM   19  H13 UNL     1      26.151   6.027  51.112  1.00  0.00     0.156 HD
ENDROOT
BRANCH   1  20
HETATM   20  N1  UNL     1      24.201   1.591  51.123  1.00  0.00    -0.291 N 
HETATM   21  H4  UNL     1      24.570   0.822  50.511  1.00  0.00     0.178 HD
BRANCH  20  22
HETATM   22  S1  UNL     1      24.396   1.328  52.818  1.00  0.00     0.235 S 
HETATM   23  O1  UNL     1      23.162   0.800  53.479  1.00  0.00    -0.205 OA
HETATM   24  O2  UNL     1      24.717   2.636  53.501  1.00  0.00    -0.205 OA
BRANCH  22  25
HETATM   25  C2  UNL     1      25.746   0.267  53.146  1.00  0.00     0.150 C 
HETATM   26  C1  UNL     1      26.599   0.073  52.134  1.00  0.00     0.025 C 
ENDBRANCH  22  25
ENDBRANCH  20  22
ENDBRANCH   1  20
TORSDOF 3
ENDMDL
MODEL 6
REMARK VINA RESULT:      -7.1      8.783     11.044
REMARK  3 active torsions:
REMARK  status: ('A' for Active; 'I' for Inactive)
REMARK    1  A    between atoms: C2_2  and  S1_3 
REMARK    2  A    between atoms: S1_3  and  N1_6 
REMARK    3  A    between atoms: N1_6  and  C3_7 
ROOT
HETATM    1  C3  UNL     1      30.683   6.858  48.758  1.00  0.00     0.009 A 
HETATM    2  C4  UNL     1      32.054   6.687  48.852  1.00  0.00     0.057 A 
HETATM    3  C5  UNL     1      32.442   5.583  48.259  1.00  0.00     0.057 A 
HETATM    4  C6  UNL     1      33.628   5.067  47.833  1.00  0.00     0.163 A 
HETATM    5  N2  UNL     1      34.359   4.140  47.190  1.00  0.00    -0.248 NA
HETATM    6  C7  UNL     1      33.591   3.129  46.606  1.00  0.00     0.225 A 
HETATM    7  N3  UNL     1      32.275   3.416  46.869  1.00  0.00    -0.266 NA
HETATM    8  C8  UNL     1      31.975   4.506  47.584  1.00  0.00     0.120 A 
HETATM    9  C9  UNL     1      31.109   5.452  48.004  1.00  0.00     0.093 A 
HETATM   10  C10 UNL     1      29.902   5.869  48.064  1.00  0.00     0.004 A 
HETATM   11  C11 UNL     1      28.618   6.441  48.183  1.00  0.00     0.042 C 
HETATM   12  C12 UNL     1      28.893   7.197  46.990  1.00  0.00    -0.023 A 
HETATM   13 BR1  UNL     1      28.256   8.499  45.663  1.00  0.00    -0.126 Br
HETATM   14  C13 UNL     1      29.965   7.750  46.026  1.00  0.00     0.092 A 
HETATM   15  C14 UNL     1      31.274   7.882  45.706  1.00  0.00     0.012 C 
HETATM   16  C15 UNL     1      32.792   7.670  45.905  1.00  0.00     0.004 C 
HETATM   17  C16 UNL     1      33.849   7.143  46.629  1.00  0.00     0.129 C 
HETATM   18  N4  UNL     1      34.364   6.356  47.796  1.00  0.00    -0.386 N 
HETATM   19  H13 UNL     1      35.019   7.144  48.011  1.00  0.00     0.156 HD
ENDROOT
BRANCH   1  20
HETATM   20  N1  UNL     1      30.475   8.081  49.413  1.00  0.00    -0.291 N 
HETATM   21  H4  UNL     1      30.252   7.749  50.383  1.00  0.00     0.178 HD
BRANCH  20  22
HETATM   22  S1  UNL     1      30.455   9.795  49.206  1.00  0.00     0.235 S 
HETATM   23  O1  UNL     1      31.320  10.264  48.080  1.00  0.00    -0.205 OA
HETATM   24  O2  UNL     1      30.983  10.463  50.455  1.00  0.00    -0.205 OA
BRANCH  22  25
HETATM   25  C2  UNL     1      28.825  10.390  48.992  1.00  0.00     0.150 C 
HETATM   26  C1  UNL     1      27.867   9.728  49.650  1.00  0.00     0.025 C 
ENDBRANCH  22  25
ENDBRANCH  20  22
ENDBRANCH   1  20
TORSDOF 3
ENDMDL
MODEL 7
REMARK VINA RESULT:      -7.0      3.180      4.494
REMARK  3 active torsions:
REMARK  status: ('A' for Active; 'I' for Inactive)
REMARK    1  A    between atoms: C2_2  and  S1_3 
REMARK    2  A    between atoms: S1_3  and  N1_6 
REMARK    3  A    between atoms: N1_6  and  C3_7 
ROOT
HETATM    1  C3  UNL     1      22.979   1.980  50.144  1.00  0.00     0.009 A 
HETATM    2  C4  UNL     1      21.833   1.221  50.301  1.00  0.00     0.057 A 
HETATM    3  C5  UNL     1      21.774   0.683  51.497  1.00  0.00     0.057 A 
HETATM    4  C6  UNL     1      20.811   0.090  52.256  1.00  0.00     0.163 A 
HETATM    5  N2  UNL     1      20.367  -0.446  53.406  1.00  0.00    -0.248 NA
HETATM    6  C7  UNL     1      21.314  -0.431  54.434  1.00  0.00     0.225 A 
HETATM    7  N3  UNL     1      22.444   0.165  53.934  1.00  0.00    -0.266 NA
HETATM    8  C8  UNL     1      22.455   0.580  52.663  1.00  0.00     0.120 A 
HETATM    9  C9  UNL     1      22.966   1.324  51.659  1.00  0.00     0.093 A 
HETATM   10  C10 UNL     1      23.905   2.084  51.240  1.00  0.00     0.004 A 
HETATM   11  C11 UNL     1      24.867   2.943  50.669  1.00  0.00     0.042 C 
HETATM   12  C12 UNL     1      24.071   4.057  51.114  1.00  0.00    -0.023 A 
HETATM   13 BR1  UNL     1      23.859   6.007  51.229  1.00  0.00    -0.126 Br
HETATM   14  C13 UNL     1      22.687   4.553  51.585  1.00  0.00     0.092 A 
HETATM   15  C14 UNL     1      21.391   4.273  51.858  1.00  0.00     0.012 C 
HETATM   16  C15 UNL     1      20.151   3.358  51.975  1.00  0.00     0.004 C 
HETATM   17  C16 UNL     1      19.560   2.111  51.856  1.00  0.00     0.129 C 
HETATM   18  N4  UNL     1      19.651   0.653  51.520  1.00  0.00    -0.386 N 
HETATM   19  H13 UNL     1      18.811   0.763  50.906  1.00  0.00     0.156 HD
ENDROOT
BRANCH   1  20
HETATM   20  N1  UNL     1      22.843   2.482  48.841  1.00  0.00    -0.291 N 
HETATM   21  H4  UNL     1      23.516   1.867  48.322  1.00  0.00     0.178 HD
BRANCH  20  22
HETATM   22  S1  UNL     1      22.033   3.657  47.869  1.00  0.00     0.235 S 
HETATM   23  O1  UNL     1      22.033   3.317  46.412  1.00  0.00    -0.205 OA
HETATM   24  O2  UNL     1      22.733   4.990  47.994  1.00  0.00    -0.205 OA
BRANCH  22  25
HETATM   25  C2  UNL     1      20.395   3.918  48.419  1.00  0.00     0.150 C 
HETATM   26  C1  UNL     1      19.516   2.954  48.123  1.00  0.00     0.025 C 
ENDBRANCH  22  25
ENDBRANCH  20  22
ENDBRANCH   1  20
TORSDOF 3
ENDMDL
MODEL 8
REMARK VINA RESULT:      -7.0      7.263      9.914
REMARK  3 active torsions:
REMARK  status: ('A' for Active; 'I' for Inactive)
REMARK    1  A    between atoms: C2_2  and  S1_3 
REMARK    2  A    between atoms: S1_3  and  N1_6 
REMARK    3  A    between atoms: N1_6  and  C3_7 
ROOT
HETATM    1  C3  UNL     1      28.795   6.931  47.979  1.00  0.00     0.009 A 
HETATM    2  C4  UNL     1      29.748   6.022  48.403  1.00  0.00     0.057 A 
HETATM    3  C5  UNL     1      30.790   6.012  47.605  1.00  0.00     0.057 A 
HETATM    4  C6  UNL     1      32.065   5.538  47.668  1.00  0.00     0.163 A 
HETATM    5  N2  UNL     1      33.310   5.408  47.179  1.00  0.00    -0.248 NA
HETATM    6  C7  UNL     1      33.512   6.085  45.973  1.00  0.00     0.225 A 
HETATM    7  N3  UNL     1      32.331   6.710  45.657  1.00  0.00    -0.266 NA
HETATM    8  C8  UNL     1      31.280   6.570  46.473  1.00  0.00     0.120 A 
HETATM    9  C9  UNL     1      30.073   6.958  46.934  1.00  0.00     0.093 A 
HETATM   10  C10 UNL     1      29.046   7.707  46.794  1.00  0.00     0.004 A 
HETATM   11  C11 UNL     1      27.873   8.490  46.758  1.00  0.00     0.042 C 
HETATM   12  C12 UNL     1      28.529   9.432  47.627  1.00  0.00    -0.023 A 
HETATM   13 BR1  UNL     1      28.434  11.131  48.609  1.00  0.00    -0.126 Br
HETATM   14  C13 UNL     1      29.668   9.685  48.639  1.00  0.00     0.092 A 
HETATM   15  C14 UNL     1      30.725   9.202  49.332  1.00  0.00     0.012 C 
HETATM   16  C15 UNL     1      31.731   8.115  49.775  1.00  0.00     0.004 C 
HETATM   17  C16 UNL     1      32.206   6.816  49.707  1.00  0.00     0.129 C 
HETATM   18  N4  UNL     1      32.126   5.427  49.147  1.00  0.00    -0.386 N 
HETATM   19  H13 UNL     1      32.158   5.055  50.125  1.00  0.00     0.156 HD
ENDROOT
BRANCH   1  20
HETATM   20  N1  UNL     1      27.796   6.815  48.958  1.00  0.00    -0.291 N 
HETATM   21  H4  UNL     1      28.354   6.992  49.829  1.00  0.00     0.178 HD
BRANCH  20  22
HETATM   22  S1  UNL     1      26.118   6.507  49.218  1.00  0.00     0.235 S 
HETATM   23  O1  UNL     1      25.264   6.856  48.040  1.00  0.00    -0.205 OA
HETATM   24  O2  UNL     1      25.619   7.349  50.369  1.00  0.00    -0.205 OA
BRANCH  22  25
HETATM   25  C2  UNL     1      25.840   4.844  49.680  1.00  0.00     0.150 C 
HETATM   26  C1  UNL     1      26.793   3.972  49.332  1.00  0.00     0.025 C 
ENDBRANCH  22  25
ENDBRANCH  20  22
ENDBRANCH   1  20
TORSDOF 3
ENDMDL
MODEL 9
REMARK VINA RESULT:      -7.0      3.485      5.576
REMARK  3 active torsions:
REMARK  status: ('A' for Active; 'I' for Inactive)
REMARK    1  A    between atoms: C2_2  and  S1_3 
REMARK    2  A    between atoms: S1_3  and  N1_6 
REMARK    3  A    between atoms: N1_6  and  C3_7 
ROOT
HETATM    1  C3  UNL     1      21.455   2.344  50.807  1.00  0.00     0.009 A 
HETATM    2  C4  UNL     1      22.010   2.922  51.934  1.00  0.00     0.057 A 
HETATM    3  C5  UNL     1      23.180   2.397  52.216  1.00  0.00     0.057 A 
HETATM    4  C6  UNL     1      24.237   2.732  53.007  1.00  0.00     0.163 A 
HETATM    5  N2  UNL     1      25.489   2.547  53.458  1.00  0.00    -0.248 NA
HETATM    6  C7  UNL     1      26.148   1.471  52.857  1.00  0.00     0.225 A 
HETATM    7  N3  UNL     1      25.281   0.924  51.945  1.00  0.00    -0.266 NA
HETATM    8  C8  UNL     1      24.060   1.454  51.805  1.00  0.00     0.120 A 
HETATM    9  C9  UNL     1      22.916   1.638  51.115  1.00  0.00     0.093 A 
HETATM   10  C10 UNL     1      22.180   1.307  50.122  1.00  0.00     0.004 A 
HETATM   11  C11 UNL     1      21.291   1.042  49.060  1.00  0.00     0.042 C 
HETATM   12  C12 UNL     1      21.927   2.103  48.323  1.00  0.00    -0.023 A 
HETATM   13 BR1  UNL     1      22.027   3.144  46.659  1.00  0.00    -0.126 Br
HETATM   14  C13 UNL     1      22.806   3.372  48.378  1.00  0.00     0.092 A 
HETATM   15  C14 UNL     1      23.501   4.265  49.122  1.00  0.00     0.012 C 
HETATM   16  C15 UNL     1      24.055   4.863  50.434  1.00  0.00     0.004 C 
HETATM   17  C16 UNL     1      24.187   4.825  51.813  1.00  0.00     0.129 C 
HETATM   18  N4  UNL     1      23.900   4.172  53.131  1.00  0.00    -0.386 N 
HETATM   19  H13 UNL     1      23.592   5.102  53.500  1.00  0.00     0.156 HD
ENDROOT
BRANCH   1  20
HETATM   20  N1  UNL     1      20.249   3.046  50.658  1.00  0.00    -0.291 N 
HETATM   21  H4  UNL     1      20.605   3.987  50.360  1.00  0.00     0.178 HD
BRANCH  20  22
HETATM   22  S1  UNL     1      18.532   2.924  50.783  1.00  0.00     0.235 S 
HETATM   23  O1  UNL     1      17.808   3.643  49.689  1.00  0.00    -0.205 OA
HETATM   24  O2  UNL     1      18.071   3.548  52.080  1.00  0.00    -0.205 OA
BRANCH  22  25
HETATM   25  C2  UNL     1      18.015   1.255  50.840  1.00  0.00     0.150 C 
HETATM   26  C1  UNL     1      18.586   0.495  51.781  1.00  0.00     0.025 C 
ENDBRANCH  22  25
ENDBRANCH  20  22
ENDBRANCH   1  20
TORSDOF 3
ENDMDL
