MODEL 1
REMARK VINA RESULT:      -8.8      0.000      0.000
REMARK  5 active torsions:
REMARK  status: ('A' for Active; 'I' for Inactive)
REMARK    1  A    between atoms: C3_3  and  N1_4 
REMARK    2  A    between atoms: N1_4  and  C4_5 
REMARK    3  A    between atoms: N3_17  and  C14_18 
REMARK    4  A    between atoms: C14_18  and  O2_19 
REMARK    5  A    between atoms: O2_19  and  C15_20 
ROOT
HETATM    1  C1  UNL     1      16.925  -4.521  53.580  1.00  0.00     0.014 C 
HETATM    2  C2  UNL     1      16.888  -3.334  53.360  1.00  0.00    -0.098 C 
HETATM    3  C3  UNL     1      16.828  -1.909  53.077  1.00  0.00     0.214 C 
ENDROOT
BRANCH   3   4
HETATM    4  N1  UNL     1      17.960  -1.277  53.690  1.00  0.00    -0.367 N 
HETATM    5  H4  UNL     1      18.328  -1.103  54.658  1.00  0.00     0.161 HD
BRANCH   4   6
HETATM    6  C4  UNL     1      19.058  -0.622  53.102  1.00  0.00     0.107 C 
HETATM    7  C5  UNL     1      19.307  -0.054  51.924  1.00  0.00     0.075 C 
HETATM    8  C6  UNL     1      19.214   0.449  50.581  1.00  0.00     0.029 C 
HETATM    9  C7  UNL     1      19.939   1.118  49.707  1.00  0.00    -0.020 C 
HETATM   10  C8  UNL     1      21.192   1.804  49.384  1.00  0.00     0.002 C 
HETATM   11  C9  UNL     1      22.262   2.047  50.042  1.00  0.00     0.073 C 
HETATM   12  C10 UNL     1      23.427   2.283  50.845  1.00  0.00     0.241 C 
HETATM   13  O1  UNL     1      23.979   2.181  51.958  1.00  0.00    -0.269 OA
HETATM   14  N2  UNL     1      24.648   2.870  50.446  1.00  0.00    -0.358 N 
HETATM   15  C11 UNL     1      25.724   2.980  51.428  1.00  0.00     0.124 C 
HETATM   16  H10 UNL     1      24.592   3.156  49.459  1.00  0.00     0.162 HD
HETATM   17  C12 UNL     1      26.085   1.579  51.864  1.00  0.00     0.041 C 
HETATM   18  C13 UNL     1      27.024   1.561  53.046  1.00  0.00     0.149 C 
HETATM   19  N3  UNL     1      27.085   0.236  53.656  1.00  0.00    -0.282 N 
HETATM   20  N4  UNL     1      26.138  -0.721  53.231  1.00  0.00    -0.186 NA
HETATM   21  C17 UNL     1      24.893  -0.599  53.585  1.00  0.00     0.157 C 
HETATM   22  C18 UNL     1      23.482  -0.598  53.895  1.00  0.00     0.138 C 
HETATM   23  N5  UNL     1      22.274  -0.401  54.295  1.00  0.00    -0.253 NA
HETATM   24  C19 UNL     1      21.216  -1.280  53.926  1.00  0.00     0.234 C 
HETATM   25  N6  UNL     1      20.378  -0.348  53.585  1.00  0.00    -0.229 NA
BRANCH  19  26
HETATM   26  C14 UNL     1      28.141   0.221  54.665  1.00  0.00     0.313 C 
BRANCH  26  27
HETATM   27  O2  UNL     1      29.405   0.346  54.062  1.00  0.00    -0.363 OA
BRANCH  27  28
HETATM   28  C15 UNL     1      30.038  -0.743  53.512  1.00  0.00     0.152 C 
HETATM   29  C16 UNL     1      29.515  -1.958  53.461  1.00  0.00     0.037 C 
ENDBRANCH  27  28
ENDBRANCH  26  27
ENDBRANCH  19  26
ENDBRANCH   4   6
ENDBRANCH   3   4
TORSDOF 5
ENDMDL
MODEL 2
REMARK VINA RESULT:      -8.2      3.072      7.663
REMARK  5 active torsions:
REMARK  status: ('A' for Active; 'I' for Inactive)
REMARK    1  A    between atoms: C3_3  and  N1_4 
REMARK    2  A    between atoms: N1_4  and  C4_5 
REMARK    3  A    between atoms: N3_17  and  C14_18 
REMARK    4  A    between atoms: C14_18  and  O2_19 
REMARK    5  A    between atoms: O2_19  and  C15_20 
ROOT
HETATM    1  C1  UNL     1      29.952  -1.143  53.311  1.00  0.00     0.014 C 
HETATM    2  C2  UNL     1      29.149  -0.541  53.984  1.00  0.00    -0.098 C 
HETATM    3  C3  UNL     1      28.201   0.193  54.805  1.00  0.00     0.214 C 
ENDROOT
BRANCH   3   4
HETATM    4  N1  UNL     1      26.938  -0.485  54.758  1.00  0.00    -0.367 N 
HETATM    5  H4  UNL     1      26.548  -1.427  55.010  1.00  0.00     0.161 HD
BRANCH   4   6
HETATM    6  C4  UNL     1      25.684  -0.032  54.308  1.00  0.00     0.107 C 
HETATM    7  C5  UNL     1      24.423  -0.436  54.440  1.00  0.00     0.075 C 
HETATM    8  C6  UNL     1      23.227  -1.152  54.789  1.00  0.00     0.029 C 
HETATM    9  C7  UNL     1      21.922  -1.067  54.627  1.00  0.00    -0.020 C 
HETATM   10  C8  UNL     1      20.773  -0.337  54.085  1.00  0.00     0.002 C 
HETATM   11  C9  UNL     1      20.648   0.757  53.433  1.00  0.00     0.073 C 
HETATM   12  C10 UNL     1      20.589   1.993  52.708  1.00  0.00     0.241 C 
HETATM   13  O1  UNL     1      21.202   2.978  52.251  1.00  0.00    -0.269 OA
HETATM   14  N2  UNL     1      19.455   2.601  52.125  1.00  0.00    -0.358 N 
HETATM   15  C11 UNL     1      19.633   3.854  51.395  1.00  0.00     0.124 C 
HETATM   16  H10 UNL     1      18.617   2.036  52.319  1.00  0.00     0.162 HD
HETATM   17  C12 UNL     1      20.567   3.577  50.240  1.00  0.00     0.041 C 
HETATM   18  C13 UNL     1      21.016   4.837  49.539  1.00  0.00     0.149 C 
HETATM   19  N3  UNL     1      22.161   4.582  48.671  1.00  0.00    -0.282 N 
HETATM   20  N4  UNL     1      22.797   3.327  48.782  1.00  0.00    -0.186 NA
HETATM   21  C17 UNL     1      23.515   3.057  49.831  1.00  0.00     0.157 C 
HETATM   22  C18 UNL     1      24.340   2.613  50.931  1.00  0.00     0.138 C 
HETATM   23  N5  UNL     1      25.032   2.433  52.002  1.00  0.00    -0.253 NA
HETATM   24  C19 UNL     1      25.712   1.206  52.249  1.00  0.00     0.234 C 
HETATM   25  N6  UNL     1      25.310   1.073  53.478  1.00  0.00    -0.229 NA
BRANCH  19  26
HETATM   26  C14 UNL     1      22.436   5.777  47.877  1.00  0.00     0.313 C 
BRANCH  26  27
HETATM   27  O2  UNL     1      23.819   5.928  47.670  1.00  0.00    -0.363 OA
BRANCH  27  28
HETATM   28  C15 UNL     1      24.634   6.415  48.663  1.00  0.00     0.152 C 
HETATM   29  C16 UNL     1      25.777   5.853  49.028  1.00  0.00     0.037 C 
ENDBRANCH  27  28
ENDBRANCH  26  27
ENDBRANCH  19  26
ENDBRANCH   4   6
ENDBRANCH   3   4
TORSDOF 5
ENDMDL
MODEL 3
REMARK VINA RESULT:      -8.0      3.201      8.482
REMARK  5 active torsions:
REMARK  status: ('A' for Active; 'I' for Inactive)
REMARK    1  A    between atoms: C3_3  and  N1_4 
REMARK    2  A    between atoms: N1_4  and  C4_5 
REMARK    3  A    between atoms: N3_17  and  C14_18 
REMARK    4  A    between atoms: C14_18  and  O2_19 
REMARK    5  A    between atoms: O2_19  and  C15_20 
ROOT
HETATM    1  C1  UNL     1      29.393  -0.354  54.082  1.00  0.00     0.014 C 
HETATM    2  C2  UNL     1      29.133   0.802  53.849  1.00  0.00    -0.098 C 
HETATM    3  C3  UNL     1      28.844   2.199  53.567  1.00  0.00     0.214 C 
ENDROOT
BRANCH   3   4
HETATM    4  N1  UNL     1      27.521   2.493  54.038  1.00  0.00    -0.367 N 
HETATM    5  H4  UNL     1      27.073   3.046  54.810  1.00  0.00     0.161 HD
BRANCH   4   6
HETATM    6  C4  UNL     1      26.271   2.080  53.540  1.00  0.00     0.107 C 
HETATM    7  C5  UNL     1      25.460   1.046  53.746  1.00  0.00     0.075 C 
HETATM    8  C6  UNL     1      24.863  -0.175  54.213  1.00  0.00     0.029 C 
HETATM    9  C7  UNL     1      23.759  -0.877  54.055  1.00  0.00    -0.020 C 
HETATM   10  C8  UNL     1      22.444  -1.018  53.424  1.00  0.00     0.002 C 
HETATM   11  C9  UNL     1      21.768  -0.291  52.617  1.00  0.00     0.073 C 
HETATM   12  C10 UNL     1      21.071   0.580  51.715  1.00  0.00     0.241 C 
HETATM   13  O1  UNL     1      21.046   1.669  51.109  1.00  0.00    -0.269 OA
HETATM   14  N2  UNL     1      19.842   0.344  51.062  1.00  0.00    -0.358 N 
HETATM   15  C11 UNL     1      19.329   1.363  50.150  1.00  0.00     0.124 C 
HETATM   16  H10 UNL     1      19.463  -0.570  51.349  1.00  0.00     0.162 HD
HETATM   17  C12 UNL     1      20.340   1.527  49.039  1.00  0.00     0.041 C 
HETATM   18  C13 UNL     1      20.043   2.713  48.151  1.00  0.00     0.149 C 
HETATM   19  N3  UNL     1      21.191   3.052  47.317  1.00  0.00    -0.282 N 
HETATM   20  N4  UNL     1      22.418   2.418  47.608  1.00  0.00    -0.186 NA
HETATM   21  C17 UNL     1      23.079   2.748  48.677  1.00  0.00     0.157 C 
HETATM   22  C18 UNL     1      23.923   3.007  49.821  1.00  0.00     0.138 C 
HETATM   23  N5  UNL     1      24.510   3.398  50.898  1.00  0.00    -0.253 NA
HETATM   24  C19 UNL     1      25.747   2.830  51.318  1.00  0.00     0.234 C 
HETATM   25  N6  UNL     1      25.399   2.651  52.558  1.00  0.00    -0.229 NA
BRANCH  19  26
HETATM   26  C14 UNL     1      20.795   4.073  46.350  1.00  0.00     0.313 C 
BRANCH  26  27
HETATM   27  O2  UNL     1      21.928   4.696  45.796  1.00  0.00    -0.363 OA
BRANCH  27  28
HETATM   28  C15 UNL     1      22.318   5.949  46.205  1.00  0.00     0.152 C 
HETATM   29  C16 UNL     1      22.926   6.199  47.355  1.00  0.00     0.037 C 
ENDBRANCH  27  28
ENDBRANCH  26  27
ENDBRANCH  19  26
ENDBRANCH   4   6
ENDBRANCH   3   4
TORSDOF 5
ENDMDL
MODEL 4
REMARK VINA RESULT:      -7.8      2.377      5.710
REMARK  5 active torsions:
REMARK  status: ('A' for Active; 'I' for Inactive)
REMARK    1  A    between atoms: C3_3  and  N1_4 
REMARK    2  A    between atoms: N1_4  and  C4_5 
REMARK    3  A    between atoms: N3_17  and  C14_18 
REMARK    4  A    between atoms: C14_18  and  O2_19 
REMARK    5  A    between atoms: O2_19  and  C15_20 
ROOT
HETATM    1  C1  UNL     1      16.997  -4.261  53.585  1.00  0.00     0.014 C 
HETATM    2  C2  UNL     1      17.443  -3.144  53.471  1.00  0.00    -0.098 C 
HETATM    3  C3  UNL     1      17.968  -1.798  53.313  1.00  0.00     0.214 C 
ENDROOT
BRANCH   3   4
HETATM    4  N1  UNL     1      19.165  -1.683  54.096  1.00  0.00    -0.367 N 
HETATM    5  H4  UNL     1      19.504  -1.962  55.049  1.00  0.00     0.161 HD
BRANCH   4   6
HETATM    6  C4  UNL     1      20.401  -1.090  53.775  1.00  0.00     0.107 C 
HETATM    7  C5  UNL     1      21.629  -1.114  54.289  1.00  0.00     0.075 C 
HETATM    8  C6  UNL     1      22.787  -1.374  55.099  1.00  0.00     0.029 C 
HETATM    9  C7  UNL     1      24.071  -1.079  55.140  1.00  0.00    -0.020 C 
HETATM   10  C8  UNL     1      25.217  -0.394  54.538  1.00  0.00     0.002 C 
HETATM   11  C9  UNL     1      25.370   0.315  53.484  1.00  0.00     0.073 C 
HETATM   12  C10 UNL     1      25.462   1.097  52.285  1.00  0.00     0.241 C 
HETATM   13  O1  UNL     1      24.895   1.533  51.264  1.00  0.00    -0.269 OA
HETATM   14  N2  UNL     1      26.579   1.815  51.805  1.00  0.00    -0.358 N 
HETATM   15  C11 UNL     1      26.438   2.579  50.567  1.00  0.00     0.124 C 
HETATM   16  H10 UNL     1      27.380   1.681  52.437  1.00  0.00     0.162 HD
HETATM   17  C12 UNL     1      25.369   3.622  50.797  1.00  0.00     0.041 C 
HETATM   18  C13 UNL     1      24.962   4.330  49.527  1.00  0.00     0.149 C 
HETATM   19  N3  UNL     1      23.716   5.068  49.706  1.00  0.00    -0.282 N 
HETATM   20  N4  UNL     1      22.987   4.838  50.893  1.00  0.00    -0.186 NA
HETATM   21  C17 UNL     1      22.360   3.712  51.059  1.00  0.00     0.157 C 
HETATM   22  C18 UNL     1      21.618   2.517  51.386  1.00  0.00     0.138 C 
HETATM   23  N5  UNL     1      21.026   1.376  51.464  1.00  0.00    -0.253 NA
HETATM   24  C19 UNL     1      20.270   1.008  52.614  1.00  0.00     0.234 C 
HETATM   25  N6  UNL     1      20.783  -0.179  52.739  1.00  0.00    -0.229 NA
BRANCH  19  26
HETATM   26  C14 UNL     1      23.468   5.882  48.519  1.00  0.00     0.313 C 
BRANCH  26  27
HETATM   27  O2  UNL     1      22.201   5.596  47.978  1.00  0.00    -0.363 OA
BRANCH  27  28
HETATM   28  C15 UNL     1      22.076   4.963  46.765  1.00  0.00     0.152 C 
HETATM   29  C16 UNL     1      21.921   3.655  46.623  1.00  0.00     0.037 C 
ENDBRANCH  27  28
ENDBRANCH  26  27
ENDBRANCH  19  26
ENDBRANCH   4   6
ENDBRANCH   3   4
TORSDOF 5
ENDMDL
MODEL 5
REMARK VINA RESULT:      -7.8      2.446      8.058
REMARK  5 active torsions:
REMARK  status: ('A' for Active; 'I' for Inactive)
REMARK    1  A    between atoms: C3_3  and  N1_4 
REMARK    2  A    between atoms: N1_4  and  C4_5 
REMARK    3  A    between atoms: N3_17  and  C14_18 
REMARK    4  A    between atoms: C14_18  and  O2_19 
REMARK    5  A    between atoms: O2_19  and  C15_20 
ROOT
HETATM    1  C1  UNL     1      29.418   1.671  54.427  1.00  0.00     0.014 C 
HETATM    2  C2  UNL     1      29.019   0.556  54.190  1.00  0.00    -0.098 C 
HETATM    3  C3  UNL     1      28.560  -0.792  53.897  1.00  0.00     0.214 C 
ENDROOT
BRANCH   3   4
HETATM    4  N1  UNL     1      27.126  -0.790  53.879  1.00  0.00    -0.367 N 
HETATM    5  H4  UNL     1      26.338  -1.221  54.423  1.00  0.00     0.161 HD
BRANCH   4   6
HETATM    6  C4  UNL     1      26.233  -0.119  53.023  1.00  0.00     0.107 C 
HETATM    7  C5  UNL     1      26.305   0.929  52.206  1.00  0.00     0.075 C 
HETATM    8  C6  UNL     1      26.747   2.068  51.450  1.00  0.00     0.029 C 
HETATM    9  C7  UNL     1      26.287   2.919  50.555  1.00  0.00    -0.020 C 
HETATM   10  C8  UNL     1      25.178   3.368  49.708  1.00  0.00     0.002 C 
HETATM   11  C9  UNL     1      23.988   2.942  49.510  1.00  0.00     0.073 C 
HETATM   12  C10 UNL     1      22.670   2.404  49.340  1.00  0.00     0.241 C 
HETATM   13  O1  UNL     1      21.856   1.501  49.618  1.00  0.00    -0.269 OA
HETATM   14  N2  UNL     1      21.609   2.938  48.578  1.00  0.00    -0.358 N 
HETATM   15  C11 UNL     1      20.328   2.236  48.575  1.00  0.00     0.124 C 
HETATM   16  H10 UNL     1      21.918   3.797  48.102  1.00  0.00     0.162 HD
HETATM   17  C12 UNL     1      19.819   2.217  49.998  1.00  0.00     0.041 C 
HETATM   18  C13 UNL     1      18.615   1.322  50.174  1.00  0.00     0.149 C 
HETATM   19  N3  UNL     1      18.357   1.050  51.584  1.00  0.00    -0.282 N 
HETATM   20  N4  UNL     1      19.344   1.440  52.514  1.00  0.00    -0.186 NA
HETATM   21  C17 UNL     1      20.465   0.787  52.579  1.00  0.00     0.157 C 
HETATM   22  C18 UNL     1      21.754   0.162  52.767  1.00  0.00     0.138 C 
HETATM   23  N5  UNL     1      22.831  -0.544  52.764  1.00  0.00    -0.253 NA
HETATM   24  C19 UNL     1      23.915  -0.249  53.640  1.00  0.00     0.234 C 
HETATM   25  N6  UNL     1      24.846  -0.327  52.737  1.00  0.00    -0.229 NA
BRANCH  19  26
HETATM   26  C14 UNL     1      17.084   0.345  51.711  1.00  0.00     0.313 C 
BRANCH  26  27
HETATM   27  O2  UNL     1      17.043  -0.393  52.907  1.00  0.00    -0.363 OA
BRANCH  27  28
HETATM   28  C15 UNL     1      17.541  -1.673  52.966  1.00  0.00     0.152 C 
HETATM   29  C16 UNL     1      18.486  -2.063  53.809  1.00  0.00     0.037 C 
ENDBRANCH  27  28
ENDBRANCH  26  27
ENDBRANCH  19  26
ENDBRANCH   4   6
ENDBRANCH   3   4
TORSDOF 5
ENDMDL
MODEL 6
REMARK VINA RESULT:      -7.7      2.382      5.250
REMARK  5 active torsions:
REMARK  status: ('A' for Active; 'I' for Inactive)
REMARK    1  A    between atoms: C3_3  and  N1_4 
REMARK    2  A    between atoms: N1_4  and  C4_5 
REMARK    3  A    between atoms: N3_17  and  C14_18 
REMARK    4  A    between atoms: C14_18  and  O2_19 
REMARK    5  A    between atoms: O2_19  and  C15_20 
ROOT
HETATM    1  C1  UNL     1      15.694  -1.625  52.123  1.00  0.00     0.014 C 
HETATM    2  C2  UNL     1      16.688  -1.920  52.743  1.00  0.00    -0.098 C 
HETATM    3  C3  UNL     1      17.874  -2.298  53.494  1.00  0.00     0.214 C 
ENDROOT
BRANCH   3   4
HETATM    4  N1  UNL     1      18.562  -1.101  53.886  1.00  0.00    -0.367 N 
HETATM    5  H4  UNL     1      18.347  -0.209  54.396  1.00  0.00     0.161 HD
BRANCH   4   6
HETATM    6  C4  UNL     1      19.902  -0.722  53.684  1.00  0.00     0.107 C 
HETATM    7  C5  UNL     1      21.063  -0.977  54.282  1.00  0.00     0.075 C 
HETATM    8  C6  UNL     1      22.092  -1.463  55.159  1.00  0.00     0.029 C 
HETATM    9  C7  UNL     1      23.401  -1.398  55.306  1.00  0.00    -0.020 C 
HETATM   10  C8  UNL     1      24.691  -0.901  54.821  1.00  0.00     0.002 C 
HETATM   11  C9  UNL     1      25.045  -0.193  53.817  1.00  0.00     0.073 C 
HETATM   12  C10 UNL     1      25.364   0.603  52.667  1.00  0.00     0.241 C 
HETATM   13  O1  UNL     1      24.961   1.168  51.631  1.00  0.00    -0.269 OA
HETATM   14  N2  UNL     1      26.621   1.133  52.303  1.00  0.00    -0.358 N 
HETATM   15  C11 UNL     1      26.710   1.954  51.098  1.00  0.00     0.124 C 
HETATM   16  H10 UNL     1      27.335   0.839  52.984  1.00  0.00     0.162 HD
HETATM   17  C12 UNL     1      25.820   3.157  51.301  1.00  0.00     0.041 C 
HETATM   18  C13 UNL     1      25.641   3.970  50.041  1.00  0.00     0.149 C 
HETATM   19  N3  UNL     1      24.530   4.907  50.167  1.00  0.00    -0.282 N 
HETATM   20  N4  UNL     1      23.681   4.766  51.286  1.00  0.00    -0.186 NA
HETATM   21  C17 UNL     1      22.860   3.760  51.352  1.00  0.00     0.157 C 
HETATM   22  C18 UNL     1      21.901   2.702  51.566  1.00  0.00     0.138 C 
HETATM   23  N5  UNL     1      21.118   1.679  51.546  1.00  0.00    -0.253 NA
HETATM   24  C19 UNL     1      20.223   1.408  52.620  1.00  0.00     0.234 C 
HETATM   25  N6  UNL     1      20.514   0.146  52.724  1.00  0.00    -0.229 NA
BRANCH  19  26
HETATM   26  C14 UNL     1      24.518   5.794  49.006  1.00  0.00     0.313 C 
BRANCH  26  27
HETATM   27  O2  UNL     1      25.482   6.808  49.148  1.00  0.00    -0.363 OA
BRANCH  27  28
HETATM   28  C15 UNL     1      26.421   7.033  48.170  1.00  0.00     0.152 C 
HETATM   29  C16 UNL     1      27.654   6.548  48.198  1.00  0.00     0.037 C 
ENDBRANCH  27  28
ENDBRANCH  26  27
ENDBRANCH  19  26
ENDBRANCH   4   6
ENDBRANCH   3   4
TORSDOF 5
ENDMDL
MODEL 7
REMARK VINA RESULT:      -7.6      3.749      9.541
REMARK  5 active torsions:
REMARK  status: ('A' for Active; 'I' for Inactive)
REMARK    1  A    between atoms: C3_3  and  N1_4 
REMARK    2  A    between atoms: N1_4  and  C4_5 
REMARK    3  A    between atoms: N3_17  and  C14_18 
REMARK    4  A    between atoms: C14_18  and  O2_19 
REMARK    5  A    between atoms: O2_19  and  C15_20 
ROOT
HETATM    1  C1  UNL     1      25.659   4.578  49.555  1.00  0.00     0.014 C 
HETATM    2  C2  UNL     1      25.052   5.398  50.202  1.00  0.00    -0.098 C 
HETATM    3  C3  UNL     1      24.331   6.402  50.967  1.00  0.00     0.214 C 
ENDROOT
BRANCH   3   4
HETATM    4  N1  UNL     1      23.891   5.806  52.196  1.00  0.00    -0.367 N 
HETATM    5  H4  UNL     1      23.850   6.058  53.214  1.00  0.00     0.161 HD
BRANCH   4   6
HETATM    6  C4  UNL     1      23.302   4.550  52.432  1.00  0.00     0.107 C 
HETATM    7  C5  UNL     1      23.750   3.317  52.657  1.00  0.00     0.075 C 
HETATM    8  C6  UNL     1      24.576   2.160  52.864  1.00  0.00     0.029 C 
HETATM    9  C7  UNL     1      24.456   0.876  53.139  1.00  0.00    -0.020 C 
HETATM   10  C8  UNL     1      23.585  -0.266  53.426  1.00  0.00     0.002 C 
HETATM   11  C9  UNL     1      22.319  -0.404  53.548  1.00  0.00     0.073 C 
HETATM   12  C10 UNL     1      20.892  -0.477  53.672  1.00  0.00     0.241 C 
HETATM   13  O1  UNL     1      19.802   0.128  53.687  1.00  0.00    -0.269 OA
HETATM   14  N2  UNL     1      20.098  -1.630  53.856  1.00  0.00    -0.358 N 
HETATM   15  C11 UNL     1      18.647  -1.476  53.921  1.00  0.00     0.124 C 
HETATM   16  H10 UNL     1      20.700  -2.462  53.926  1.00  0.00     0.162 HD
HETATM   17  C12 UNL     1      18.193  -0.892  52.603  1.00  0.00     0.041 C 
HETATM   18  C13 UNL     1      16.744  -0.468  52.621  1.00  0.00     0.149 C 
HETATM   19  N3  UNL     1      16.427   0.389  51.484  1.00  0.00    -0.282 N 
HETATM   20  N4  UNL     1      17.505   0.866  50.707  1.00  0.00    -0.186 NA
HETATM   21  C17 UNL     1      18.298   1.776  51.191  1.00  0.00     0.157 C 
HETATM   22  C18 UNL     1      19.258   2.779  51.590  1.00  0.00     0.138 C 
HETATM   23  N5  UNL     1      19.988   3.681  52.146  1.00  0.00    -0.253 NA
HETATM   24  C19 UNL     1      21.119   4.237  51.481  1.00  0.00     0.234 C 
HETATM   25  N6  UNL     1      21.934   4.131  52.487  1.00  0.00    -0.229 NA
BRANCH  19  26
HETATM   26  C14 UNL     1      14.985   0.615  51.441  1.00  0.00     0.313 C 
BRANCH  26  27
HETATM   27  O2  UNL     1      14.423   0.474  52.722  1.00  0.00    -0.363 OA
BRANCH  27  28
HETATM   28  C15 UNL     1      13.619   1.454  53.254  1.00  0.00     0.152 C 
HETATM   29  C16 UNL     1      12.355   1.270  53.603  1.00  0.00     0.037 C 
ENDBRANCH  27  28
ENDBRANCH  26  27
ENDBRANCH  19  26
ENDBRANCH   4   6
ENDBRANCH   3   4
TORSDOF 5
ENDMDL
MODEL 8
REMARK VINA RESULT:      -7.6      2.699      8.989
REMARK  5 active torsions:
REMARK  status: ('A' for Active; 'I' for Inactive)
REMARK    1  A    between atoms: C3_3  and  N1_4 
REMARK    2  A    between atoms: N1_4  and  C4_5 
REMARK    3  A    between atoms: N3_17  and  C14_18 
REMARK    4  A    between atoms: C14_18  and  O2_19 
REMARK    5  A    between atoms: O2_19  and  C15_20 
ROOT
HETATM    1  C1  UNL     1      29.160  -0.406  53.504  1.00  0.00     0.014 C 
HETATM    2  C2  UNL     1      29.007   0.792  53.472  1.00  0.00    -0.098 C 
HETATM    3  C3  UNL     1      28.847   2.236  53.429  1.00  0.00     0.214 C 
ENDROOT
BRANCH   3   4
HETATM    4  N1  UNL     1      27.621   2.577  54.092  1.00  0.00    -0.367 N 
HETATM    5  H4  UNL     1      27.273   3.306  54.762  1.00  0.00     0.161 HD
BRANCH   4   6
HETATM    6  C4  UNL     1      26.357   1.961  54.028  1.00  0.00     0.107 C 
HETATM    7  C5  UNL     1      25.802   0.873  54.556  1.00  0.00     0.075 C 
HETATM    8  C6  UNL     1      25.552  -0.341  55.284  1.00  0.00     0.029 C 
HETATM    9  C7  UNL     1      24.567  -1.182  55.526  1.00  0.00    -0.020 C 
HETATM   10  C8  UNL     1      23.163  -1.555  55.331  1.00  0.00     0.002 C 
HETATM   11  C9  UNL     1      22.185  -1.020  54.704  1.00  0.00     0.073 C 
HETATM   12  C10 UNL     1      21.138  -0.358  53.981  1.00  0.00     0.241 C 
HETATM   13  O1  UNL     1      20.779   0.635  53.318  1.00  0.00    -0.269 OA
HETATM   14  N2  UNL     1      19.823  -0.818  53.748  1.00  0.00    -0.358 N 
HETATM   15  C11 UNL     1      18.926   0.011  52.947  1.00  0.00     0.124 C 
HETATM   16  H10 UNL     1      19.683  -1.726  54.213  1.00  0.00     0.162 HD
HETATM   17  C12 UNL     1      19.542   0.151  51.575  1.00  0.00     0.041 C 
HETATM   18  C13 UNL     1      18.831   1.171  50.718  1.00  0.00     0.149 C 
HETATM   19  N3  UNL     1      19.630   1.535  49.553  1.00  0.00    -0.282 N 
HETATM   20  N4  UNL     1      20.969   1.091  49.516  1.00  0.00    -0.186 NA
HETATM   21  C17 UNL     1      21.850   1.629  50.306  1.00  0.00     0.157 C 
HETATM   22  C18 UNL     1      22.936   2.127  51.118  1.00  0.00     0.138 C 
HETATM   23  N5  UNL     1      23.741   2.718  51.931  1.00  0.00    -0.253 NA
HETATM   24  C19 UNL     1      25.116   2.356  52.010  1.00  0.00     0.234 C 
HETATM   25  N6  UNL     1      25.167   2.296  53.307  1.00  0.00    -0.229 NA
BRANCH  19  26
HETATM   26  C14 UNL     1      18.827   2.371  48.664  1.00  0.00     0.313 C 
BRANCH  26  27
HETATM   27  O2  UNL     1      17.456   2.198  48.924  1.00  0.00    -0.363 OA
BRANCH  27  28
HETATM   28  C15 UNL     1      16.516   3.017  48.346  1.00  0.00     0.152 C 
HETATM   29  C16 UNL     1      16.107   2.907  47.091  1.00  0.00     0.037 C 
ENDBRANCH  27  28
ENDBRANCH  26  27
ENDBRANCH  19  26
ENDBRANCH   4   6
ENDBRANCH   3   4
TORSDOF 5
ENDMDL
MODEL 9
REMARK VINA RESULT:      -7.5      3.563      8.668
REMARK  5 active torsions:
REMARK  status: ('A' for Active; 'I' for Inactive)
REMARK    1  A    between atoms: C3_3  and  N1_4 
REMARK    2  A    between atoms: N1_4  and  C4_5 
REMARK    3  A    between atoms: N3_17  and  C14_18 
REMARK    4  A    between atoms: C14_18  and  O2_19 
REMARK    5  A    between atoms: O2_19  and  C15_20 
ROOT
HETATM    1  C1  UNL     1      29.614   0.589  53.808  1.00  0.00     0.014 C 
HETATM    2  C2  UNL     1      28.776  -0.259  53.609  1.00  0.00    -0.098 C 
HETATM    3  C3  UNL     1      27.785  -1.292  53.358  1.00  0.00     0.214 C 
ENDROOT
BRANCH   3   4
HETATM    4  N1  UNL     1      26.480  -0.720  53.529  1.00  0.00    -0.367 N 
HETATM    5  H4  UNL     1      25.698  -0.756  54.228  1.00  0.00     0.161 HD
BRANCH   4   6
HETATM    6  C4  UNL     1      25.772   0.178  52.709  1.00  0.00     0.107 C 
HETATM    7  C5  UNL     1      26.091   1.206  51.926  1.00  0.00     0.075 C 
HETATM    8  C6  UNL     1      26.792   2.230  51.201  1.00  0.00     0.029 C 
HETATM    9  C7  UNL     1      26.548   3.199  50.342  1.00  0.00    -0.020 C 
HETATM   10  C8  UNL     1      25.576   3.933  49.527  1.00  0.00     0.002 C 
HETATM   11  C9  UNL     1      24.317   3.817  49.334  1.00  0.00     0.073 C 
HETATM   12  C10 UNL     1      22.906   3.622  49.167  1.00  0.00     0.241 C 
HETATM   13  O1  UNL     1      21.899   2.935  49.427  1.00  0.00    -0.269 OA
HETATM   14  N2  UNL     1      22.002   4.426  48.439  1.00  0.00    -0.358 N 
HETATM   15  C11 UNL     1      20.588   4.057  48.433  1.00  0.00     0.124 C 
HETATM   16  H10 UNL     1      22.508   5.200  47.987  1.00  0.00     0.162 HD
HETATM   17  C12 UNL     1      20.100   4.111  49.861  1.00  0.00     0.041 C 
HETATM   18  C13 UNL     1      18.715   3.530  50.026  1.00  0.00     0.149 C 
HETATM   19  N3  UNL     1      18.408   3.279  51.430  1.00  0.00    -0.282 N 
HETATM   20  N4  UNL     1      19.467   3.384  52.358  1.00  0.00    -0.186 NA
HETATM   21  C17 UNL     1      20.396   2.475  52.384  1.00  0.00     0.157 C 
HETATM   22  C18 UNL     1      21.495   1.549  52.531  1.00  0.00     0.138 C 
HETATM   23  N5  UNL     1      22.368   0.603  52.488  1.00  0.00    -0.253 NA
HETATM   24  C19 UNL     1      23.497   0.594  53.357  1.00  0.00     0.234 C 
HETATM   25  N6  UNL     1      24.374   0.324  52.437  1.00  0.00    -0.229 NA
BRANCH  19  26
HETATM   26  C14 UNL     1      17.003   2.901  51.553  1.00  0.00     0.313 C 
BRANCH  26  27
HETATM   27  O2  UNL     1      16.337   3.753  52.452  1.00  0.00    -0.363 OA
BRANCH  27  28
HETATM   28  C15 UNL     1      15.006   4.054  52.289  1.00  0.00     0.152 C 
HETATM   29  C16 UNL     1      14.196   3.412  51.460  1.00  0.00     0.037 C 
ENDBRANCH  27  28
ENDBRANCH  26  27
ENDBRANCH  19  26
ENDBRANCH   4   6
ENDBRANCH   3   4
TORSDOF 5
ENDMDL
