MODEL 1
REMARK VINA RESULT:      -8.1      0.000      0.000
REMARK  7 active torsions:
REMARK  status: ('A' for Active; 'I' for Inactive)
REMARK    1  A    between atoms: O1_2  and  C2_3 
REMARK    2  A    between atoms: C6_9  and  N3_10 
REMARK    3  A    between atoms: N3_10  and  C7_11 
REMARK    4  A    between atoms: C7_11  and  C9_13 
REMARK    5  A    between atoms: C17_21  and  N4_22 
REMARK    6  A    between atoms: N4_22  and  C18_23 
REMARK    7  A    between atoms: C18_23  and  C20_25 
ROOT
HETATM    1  C2  UNL     1      25.075  -0.247  53.816  1.00  0.00     0.096 A 
HETATM    2  C3  UNL     1      23.706  -0.330  53.497  1.00  0.00     0.071 A 
HETATM    3  C4  UNL     1      23.263   0.477  52.483  1.00  0.00     0.075 A 
HETATM    4  N1  UNL     1      21.965   0.421  52.153  1.00  0.00    -0.241 NA
HETATM    5  C5  UNL     1      21.464   1.184  51.166  1.00  0.00     0.235 A 
HETATM    6  N2  UNL     1      22.270   2.020  50.492  1.00  0.00    -0.224 NA
HETATM    7  C6  UNL     1      23.581   2.152  50.743  1.00  0.00     0.138 A 
HETATM    8  C15 UNL     1      24.039   1.349  51.762  1.00  0.00     0.041 A 
HETATM    9  C16 UNL     1      25.353   1.412  52.085  1.00  0.00     0.049 A 
HETATM   10  C17 UNL     1      25.881   0.639  53.087  1.00  0.00     0.063 A 
ENDROOT
BRANCH   7  11
HETATM   11  N3  UNL     1      24.401   3.049  49.997  1.00  0.00    -0.366 N 
HETATM   12  H6  UNL     1      24.875   2.873  49.094  1.00  0.00     0.161 HD
BRANCH  11  13
HETATM   13  C7  UNL     1      24.572   4.369  50.606  1.00  0.00     0.112 C 
HETATM   14  C8  UNL     1      23.333   5.226  50.357  1.00  0.00     0.037 C 
BRANCH  13  15
HETATM   15  C9  UNL     1      25.687   5.007  49.838  1.00  0.00    -0.036 A 
HETATM   16  C10 UNL     1      25.699   6.379  49.632  1.00  0.00     0.009 A 
HETATM   17  C11 UNL     1      26.740   6.948  48.905  1.00  0.00     0.001 A 
HETATM   18  C12 UNL     1      27.758   6.128  48.391  1.00  0.00     0.000 A 
HETATM   19  C13 UNL     1      27.711   4.743  48.621  1.00  0.00     0.001 A 
HETATM   20  C14 UNL     1      26.677   4.203  49.341  1.00  0.00     0.009 A 
ENDBRANCH  13  15
ENDBRANCH  11  13
ENDBRANCH   7  11
BRANCH  10  21
HETATM   21  N4  UNL     1      27.142   0.505  53.626  1.00  0.00    -0.377 N 
HETATM   22  H17 UNL     1      26.929  -0.315  54.284  1.00  0.00     0.160 HD
BRANCH  21  23
HETATM   23  C18 UNL     1      28.432   0.368  54.180  1.00  0.00     0.139 C 
HETATM   24  C19 UNL     1      29.301  -0.693  53.548  1.00  0.00     0.039 C 
BRANCH  23  25
HETATM   25  C20 UNL     1      29.247   1.642  54.198  1.00  0.00     0.255 C 
HETATM   26  O2  UNL     1      28.503   2.615  54.225  1.00  0.00    -0.305 OA
ENDBRANCH  23  25
ENDBRANCH  21  23
ENDBRANCH  10  21
BRANCH   1  27
HETATM   27  O1  UNL     1      25.448  -1.094  54.852  1.00  0.00    -0.354 OA
HETATM   28  C1  UNL     1      24.902  -1.036  56.132  1.00  0.00     0.210 C 
ENDBRANCH   1  27
TORSDOF 7
ENDMDL
MODEL 2
REMARK VINA RESULT:      -8.0      1.873      2.290
REMARK  7 active torsions:
REMARK  status: ('A' for Active; 'I' for Inactive)
REMARK    1  A    between atoms: O1_2  and  C2_3 
REMARK    2  A    between atoms: C6_9  and  N3_10 
REMARK    3  A    between atoms: N3_10  and  C7_11 
REMARK    4  A    between atoms: C7_11  and  C9_13 
REMARK    5  A    between atoms: C17_21  and  N4_22 
REMARK    6  A    between atoms: N4_22  and  C18_23 
REMARK    7  A    between atoms: C18_23  and  C20_25 
ROOT
HETATM    1  C2  UNL     1      22.701   0.241  53.461  1.00  0.00     0.096 A 
HETATM    2  C3  UNL     1      21.412   0.773  53.258  1.00  0.00     0.071 A 
HETATM    3  C4  UNL     1      21.341   1.968  52.591  1.00  0.00     0.075 A 
HETATM    4  N1  UNL     1      20.129   2.500  52.379  1.00  0.00    -0.241 NA
HETATM    5  C5  UNL     1      19.986   3.669  51.729  1.00  0.00     0.235 A 
HETATM    6  N2  UNL     1      21.070   4.321  51.279  1.00  0.00    -0.224 NA
HETATM    7  C6  UNL     1      22.326   3.875  51.438  1.00  0.00     0.138 A 
HETATM    8  C15 UNL     1      22.413   2.677  52.110  1.00  0.00     0.041 A 
HETATM    9  C16 UNL     1      23.642   2.146  52.316  1.00  0.00     0.049 A 
HETATM   10  C17 UNL     1      23.806   0.955  52.975  1.00  0.00     0.063 A 
ENDROOT
BRANCH   7  11
HETATM   11  N3  UNL     1      23.447   4.598  50.938  1.00  0.00    -0.366 N 
HETATM   12  H6  UNL     1      24.221   5.022  51.479  1.00  0.00     0.161 HD
BRANCH  11  13
HETATM   13  C7  UNL     1      23.483   4.739  49.482  1.00  0.00     0.112 C 
HETATM   14  C8  UNL     1      23.180   3.398  48.817  1.00  0.00     0.037 C 
BRANCH  13  15
HETATM   15  C9  UNL     1      24.910   5.056  49.159  1.00  0.00    -0.036 A 
HETATM   16  C10 UNL     1      25.252   6.299  48.647  1.00  0.00     0.009 A 
HETATM   17  C11 UNL     1      26.584   6.566  48.344  1.00  0.00     0.001 A 
HETATM   18  C12 UNL     1      27.557   5.575  48.557  1.00  0.00     0.000 A 
HETATM   19  C13 UNL     1      27.171   4.329  49.077  1.00  0.00     0.001 A 
HETATM   20  C14 UNL     1      25.854   4.087  49.371  1.00  0.00     0.009 A 
ENDBRANCH  13  15
ENDBRANCH  11  13
ENDBRANCH   7  11
BRANCH  10  21
HETATM   21  N4  UNL     1      24.904   0.202  53.329  1.00  0.00    -0.377 N 
HETATM   22  H17 UNL     1      25.659   0.911  53.050  1.00  0.00     0.160 HD
BRANCH  21  23
HETATM   23  C18 UNL     1      26.028  -0.568  53.690  1.00  0.00     0.139 C 
HETATM   24  C19 UNL     1      26.740  -1.255  52.549  1.00  0.00     0.039 C 
BRANCH  23  25
HETATM   25  C20 UNL     1      27.083   0.185  54.469  1.00  0.00     0.255 C 
HETATM   26  O2  UNL     1      28.005  -0.566  54.761  1.00  0.00    -0.305 OA
ENDBRANCH  23  25
ENDBRANCH  21  23
ENDBRANCH  10  21
BRANCH   1  27
HETATM   27  O1  UNL     1      22.692  -0.968  54.143  1.00  0.00    -0.354 OA
HETATM   28  C1  UNL     1      21.531  -1.597  54.586  1.00  0.00     0.210 C 
ENDBRANCH   1  27
TORSDOF 7
ENDMDL
MODEL 3
REMARK VINA RESULT:      -7.9      3.008      7.000
REMARK  7 active torsions:
REMARK  status: ('A' for Active; 'I' for Inactive)
REMARK    1  A    between atoms: O1_2  and  C2_3 
REMARK    2  A    between atoms: C6_9  and  N3_10 
REMARK    3  A    between atoms: N3_10  and  C7_11 
REMARK    4  A    between atoms: C7_11  and  C9_13 
REMARK    5  A    between atoms: C17_21  and  N4_22 
REMARK    6  A    between atoms: N4_22  and  C18_23 
REMARK    7  A    between atoms: C18_23  and  C20_25 
ROOT
HETATM    1  C2  UNL     1      25.767   5.759  48.848  1.00  0.00     0.096 A 
HETATM    2  C3  UNL     1      24.513   5.348  49.342  1.00  0.00     0.071 A 
HETATM    3  C4  UNL     1      24.496   4.202  50.093  1.00  0.00     0.075 A 
HETATM    4  N1  UNL     1      23.319   3.784  50.579  1.00  0.00    -0.241 NA
HETATM    5  C5  UNL     1      23.231   2.669  51.326  1.00  0.00     0.235 A 
HETATM    6  N2  UNL     1      24.336   1.955  51.594  1.00  0.00    -0.224 NA
HETATM    7  C6  UNL     1      25.560   2.286  51.156  1.00  0.00     0.138 A 
HETATM    8  C15 UNL     1      25.591   3.433  50.398  1.00  0.00     0.041 A 
HETATM    9  C16 UNL     1      26.786   3.848  49.913  1.00  0.00     0.049 A 
HETATM   10  C17 UNL     1      26.895   4.983  49.153  1.00  0.00     0.063 A 
ENDROOT
BRANCH   7  11
HETATM   11  N3  UNL     1      26.707   1.500  51.472  1.00  0.00    -0.366 N 
HETATM   12  H6  UNL     1      27.389   1.083  50.815  1.00  0.00     0.161 HD
BRANCH  11  13
HETATM   13  C7  UNL     1      26.918   1.276  52.903  1.00  0.00     0.112 C 
HETATM   14  C8  UNL     1      27.917   2.292  53.451  1.00  0.00     0.037 C 
BRANCH  13  15
HETATM   15  C9  UNL     1      27.588  -0.061  52.989  1.00  0.00    -0.036 A 
HETATM   16  C10 UNL     1      28.892  -0.161  53.451  1.00  0.00     0.009 A 
HETATM   17  C11 UNL     1      29.497  -1.413  53.512  1.00  0.00     0.001 A 
HETATM   18  C12 UNL     1      28.781  -2.551  53.104  1.00  0.00     0.000 A 
HETATM   19  C13 UNL     1      27.462  -2.408  52.642  1.00  0.00     0.001 A 
HETATM   20  C14 UNL     1      26.884  -1.166  52.592  1.00  0.00     0.009 A 
ENDBRANCH  13  15
ENDBRANCH  11  13
ENDBRANCH   7  11
BRANCH  10  21
HETATM   21  N4  UNL     1      27.947   5.621  48.534  1.00  0.00    -0.377 N 
HETATM   22  H17 UNL     1      27.530   5.660  47.547  1.00  0.00     0.160 HD
BRANCH  21  23
HETATM   23  C18 UNL     1      29.025   6.274  47.900  1.00  0.00     0.139 C 
HETATM   24  C19 UNL     1      29.321   7.670  48.394  1.00  0.00     0.039 C 
BRANCH  23  25
HETATM   25  C20 UNL     1      30.331   5.514  47.939  1.00  0.00     0.255 C 
HETATM   26  O2  UNL     1      30.824   5.584  49.059  1.00  0.00    -0.305 OA
ENDBRANCH  23  25
ENDBRANCH  21  23
ENDBRANCH  10  21
BRANCH   1  27
HETATM   27  O1  UNL     1      25.703   6.926  48.098  1.00  0.00    -0.354 OA
HETATM   28  C1  UNL     1      24.527   7.635  47.870  1.00  0.00     0.210 C 
ENDBRANCH   1  27
TORSDOF 7
ENDMDL
MODEL 4
REMARK VINA RESULT:      -7.6      3.661      6.759
REMARK  7 active torsions:
REMARK  status: ('A' for Active; 'I' for Inactive)
REMARK    1  A    between atoms: O1_2  and  C2_3 
REMARK    2  A    between atoms: C6_9  and  N3_10 
REMARK    3  A    between atoms: N3_10  and  C7_11 
REMARK    4  A    between atoms: C7_11  and  C9_13 
REMARK    5  A    between atoms: C17_21  and  N4_22 
REMARK    6  A    between atoms: N4_22  and  C18_23 
REMARK    7  A    between atoms: C18_23  and  C20_25 
ROOT
HETATM    1  C2  UNL     1      20.570   2.330  52.308  1.00  0.00     0.096 A 
HETATM    2  C3  UNL     1      20.390   1.362  53.316  1.00  0.00     0.071 A 
HETATM    3  C4  UNL     1      21.486   0.607  53.644  1.00  0.00     0.075 A 
HETATM    4  N1  UNL     1      21.348  -0.321  54.600  1.00  0.00    -0.241 NA
HETATM    5  C5  UNL     1      22.383  -1.095  54.973  1.00  0.00     0.235 A 
HETATM    6  N2  UNL     1      23.579  -0.942  54.383  1.00  0.00    -0.224 NA
HETATM    7  C6  UNL     1      23.822  -0.044  53.417  1.00  0.00     0.138 A 
HETATM    8  C15 UNL     1      22.729   0.719  53.075  1.00  0.00     0.041 A 
HETATM    9  C16 UNL     1      22.880   1.657  52.109  1.00  0.00     0.049 A 
HETATM   10  C17 UNL     1      21.837   2.456  51.719  1.00  0.00     0.063 A 
ENDROOT
BRANCH   7  11
HETATM   11  N3  UNL     1      25.111   0.088  52.822  1.00  0.00    -0.366 N 
HETATM   12  H6  UNL     1      25.385  -0.131  51.849  1.00  0.00     0.161 HD
BRANCH  11  13
HETATM   13  C7  UNL     1      26.148   0.598  53.720  1.00  0.00     0.112 C 
HETATM   14  C8  UNL     1      26.642   1.958  53.232  1.00  0.00     0.037 C 
BRANCH  13  15
HETATM   15  C9  UNL     1      27.297  -0.349  53.561  1.00  0.00    -0.036 A 
HETATM   16  C10 UNL     1      28.556  -0.007  54.032  1.00  0.00     0.009 A 
HETATM   17  C11 UNL     1      29.611  -0.899  53.862  1.00  0.00     0.001 A 
HETATM   18  C12 UNL     1      29.386  -2.126  53.217  1.00  0.00     0.000 A 
HETATM   19  C13 UNL     1      28.096  -2.436  52.755  1.00  0.00     0.001 A 
HETATM   20  C14 UNL     1      27.070  -1.544  52.933  1.00  0.00     0.009 A 
ENDBRANCH  13  15
ENDBRANCH  11  13
ENDBRANCH   7  11
BRANCH  10  21
HETATM   21  N4  UNL     1      21.699   3.457  50.782  1.00  0.00    -0.377 N 
HETATM   22  H17 UNL     1      22.361   3.052  50.042  1.00  0.00     0.160 HD
BRANCH  21  23
HETATM   23  C18 UNL     1      21.558   4.482  49.823  1.00  0.00     0.139 C 
HETATM   24  C19 UNL     1      20.480   4.260  48.788  1.00  0.00     0.039 C 
BRANCH  23  25
HETATM   25  C20 UNL     1      21.325   5.858  50.403  1.00  0.00     0.255 C 
HETATM   26  O2  UNL     1      21.668   5.881  51.579  1.00  0.00    -0.305 OA
ENDBRANCH  23  25
ENDBRANCH  21  23
ENDBRANCH  10  21
BRANCH   1  27
HETATM   27  O1  UNL     1      19.418   3.053  52.032  1.00  0.00    -0.354 OA
HETATM   28  C1  UNL     1      18.243   2.482  51.551  1.00  0.00     0.210 C 
ENDBRANCH   1  27
TORSDOF 7
ENDMDL
MODEL 5
REMARK VINA RESULT:      -7.6      2.202      4.947
REMARK  7 active torsions:
REMARK  status: ('A' for Active; 'I' for Inactive)
REMARK    1  A    between atoms: O1_2  and  C2_3 
REMARK    2  A    between atoms: C6_9  and  N3_10 
REMARK    3  A    between atoms: N3_10  and  C7_11 
REMARK    4  A    between atoms: C7_11  and  C9_13 
REMARK    5  A    between atoms: C17_21  and  N4_22 
REMARK    6  A    between atoms: N4_22  and  C18_23 
REMARK    7  A    between atoms: C18_23  and  C20_25 
ROOT
HETATM    1  C2  UNL     1      23.226  -0.259  53.045  1.00  0.00     0.096 A 
HETATM    2  C3  UNL     1      24.568  -0.508  53.395  1.00  0.00     0.071 A 
HETATM    3  C4  UNL     1      25.491   0.413  52.974  1.00  0.00     0.075 A 
HETATM    4  N1  UNL     1      26.777   0.206  53.291  1.00  0.00    -0.241 NA
HETATM    5  C5  UNL     1      27.735   1.071  52.912  1.00  0.00     0.235 A 
HETATM    6  N2  UNL     1      27.407   2.164  52.204  1.00  0.00    -0.224 NA
HETATM    7  C6  UNL     1      26.153   2.463  51.835  1.00  0.00     0.138 A 
HETATM    8  C15 UNL     1      25.215   1.544  52.248  1.00  0.00     0.041 A 
HETATM    9  C16 UNL     1      23.918   1.764  51.924  1.00  0.00     0.049 A 
HETATM   10  C17 UNL     1      22.928   0.895  52.305  1.00  0.00     0.063 A 
ENDROOT
BRANCH   7  11
HETATM   11  N3  UNL     1      25.851   3.638  51.087  1.00  0.00    -0.366 N 
HETATM   12  H6  UNL     1      25.570   4.565  51.450  1.00  0.00     0.161 HD
BRANCH  11  13
HETATM   13  C7  UNL     1      25.962   3.483  49.636  1.00  0.00     0.112 C 
HETATM   14  C8  UNL     1      27.120   4.325  49.106  1.00  0.00     0.037 C 
BRANCH  13  15
HETATM   15  C9  UNL     1      24.711   4.094  49.085  1.00  0.00    -0.036 A 
HETATM   16  C10 UNL     1      24.638   5.462  48.865  1.00  0.00     0.009 A 
HETATM   17  C11 UNL     1      23.461   6.008  48.363  1.00  0.00     0.001 A 
HETATM   18  C12 UNL     1      22.367   5.170  48.090  1.00  0.00     0.000 A 
HETATM   19  C13 UNL     1      22.480   3.789  48.326  1.00  0.00     0.001 A 
HETATM   20  C14 UNL     1      23.649   3.271  48.819  1.00  0.00     0.009 A 
ENDBRANCH  13  15
ENDBRANCH  11  13
ENDBRANCH   7  11
BRANCH  10  21
HETATM   21  N4  UNL     1      21.565   0.857  52.113  1.00  0.00    -0.377 N 
HETATM   22  H17 UNL     1      21.419  -0.183  52.333  1.00  0.00     0.160 HD
BRANCH  21  23
HETATM   23  C18 UNL     1      20.169   0.817  51.916  1.00  0.00     0.139 C 
HETATM   24  C19 UNL     1      19.415  -0.154  52.793  1.00  0.00     0.039 C 
BRANCH  23  25
HETATM   25  C20 UNL     1      19.476   2.154  52.056  1.00  0.00     0.255 C 
HETATM   26  O2  UNL     1      20.111   2.879  52.813  1.00  0.00    -0.305 OA
ENDBRANCH  23  25
ENDBRANCH  21  23
ENDBRANCH  10  21
BRANCH   1  27
HETATM   27  O1  UNL     1      22.351  -1.233  53.506  1.00  0.00    -0.354 OA
HETATM   28  C1  UNL     1      22.149  -1.516  54.854  1.00  0.00     0.210 C 
ENDBRANCH   1  27
TORSDOF 7
ENDMDL
MODEL 6
REMARK VINA RESULT:      -7.4      2.587      6.377
REMARK  7 active torsions:
REMARK  status: ('A' for Active; 'I' for Inactive)
REMARK    1  A    between atoms: O1_2  and  C2_3 
REMARK    2  A    between atoms: C6_9  and  N3_10 
REMARK    3  A    between atoms: N3_10  and  C7_11 
REMARK    4  A    between atoms: C7_11  and  C9_13 
REMARK    5  A    between atoms: C17_21  and  N4_22 
REMARK    6  A    between atoms: N4_22  and  C18_23 
REMARK    7  A    between atoms: C18_23  and  C20_25 
ROOT
HETATM    1  C2  UNL     1      23.549   3.644  49.329  1.00  0.00     0.096 A 
HETATM    2  C3  UNL     1      22.449   2.781  49.504  1.00  0.00     0.071 A 
HETATM    3  C4  UNL     1      22.528   1.891  50.543  1.00  0.00     0.075 A 
HETATM    4  N1  UNL     1      21.497   1.056  50.737  1.00  0.00    -0.241 NA
HETATM    5  C5  UNL     1      21.507   0.159  51.739  1.00  0.00     0.235 A 
HETATM    6  N2  UNL     1      22.563   0.091  52.564  1.00  0.00    -0.224 NA
HETATM    7  C6  UNL     1      23.644   0.879  52.457  1.00  0.00     0.138 A 
HETATM    8  C15 UNL     1      23.580   1.776  51.415  1.00  0.00     0.041 A 
HETATM    9  C16 UNL     1      24.626   2.616  51.230  1.00  0.00     0.049 A 
HETATM   10  C17 UNL     1      24.632   3.538  50.215  1.00  0.00     0.063 A 
ENDROOT
BRANCH   7  11
HETATM   11  N3  UNL     1      24.741   0.774  53.361  1.00  0.00    -0.366 N 
HETATM   12  H6  UNL     1      25.265   1.543  53.813  1.00  0.00     0.161 HD
BRANCH  11  13
HETATM   13  C7  UNL     1      25.151  -0.597  53.667  1.00  0.00     0.112 C 
HETATM   14  C8  UNL     1      24.614  -1.013  55.035  1.00  0.00     0.037 C 
BRANCH  13  15
HETATM   15  C9  UNL     1      26.641  -0.534  53.802  1.00  0.00    -0.036 A 
HETATM   16  C10 UNL     1      27.226   0.355  54.692  1.00  0.00     0.009 A 
HETATM   17  C11 UNL     1      28.613   0.403  54.791  1.00  0.00     0.001 A 
HETATM   18  C12 UNL     1      29.397  -0.444  53.990  1.00  0.00     0.000 A 
HETATM   19  C13 UNL     1      28.767  -1.331  53.102  1.00  0.00     0.001 A 
HETATM   20  C14 UNL     1      27.399  -1.364  53.020  1.00  0.00     0.009 A 
ENDBRANCH  13  15
ENDBRANCH  11  13
ENDBRANCH   7  11
BRANCH  10  21
HETATM   21  N4  UNL     1      25.537   4.486  49.791  1.00  0.00    -0.377 N 
HETATM   22  H17 UNL     1      26.327   3.816  49.515  1.00  0.00     0.160 HD
BRANCH  21  23
HETATM   23  C18 UNL     1      26.464   5.457  49.357  1.00  0.00     0.139 C 
HETATM   24  C19 UNL     1      27.657   4.924  48.601  1.00  0.00     0.039 C 
BRANCH  23  25
HETATM   25  C20 UNL     1      25.870   6.558  48.508  1.00  0.00     0.255 C 
HETATM   26  O2  UNL     1      25.365   7.414  49.225  1.00  0.00    -0.305 OA
ENDBRANCH  23  25
ENDBRANCH  21  23
ENDBRANCH  10  21
BRANCH   1  27
HETATM   27  O1  UNL     1      23.396   4.515  48.259  1.00  0.00    -0.354 OA
HETATM   28  C1  UNL     1      22.361   5.440  48.157  1.00  0.00     0.210 C 
ENDBRANCH   1  27
TORSDOF 7
ENDMDL
MODEL 7
REMARK VINA RESULT:      -7.4      2.958      7.074
REMARK  7 active torsions:
REMARK  status: ('A' for Active; 'I' for Inactive)
REMARK    1  A    between atoms: O1_2  and  C2_3 
REMARK    2  A    between atoms: C6_9  and  N3_10 
REMARK    3  A    between atoms: N3_10  and  C7_11 
REMARK    4  A    between atoms: C7_11  and  C9_13 
REMARK    5  A    between atoms: C17_21  and  N4_22 
REMARK    6  A    between atoms: N4_22  and  C18_23 
REMARK    7  A    between atoms: C18_23  and  C20_25 
ROOT
HETATM    1  C2  UNL     1      22.120   2.928  49.527  1.00  0.00     0.096 A 
HETATM    2  C3  UNL     1      23.271   3.525  48.976  1.00  0.00     0.071 A 
HETATM    3  C4  UNL     1      24.448   3.321  49.647  1.00  0.00     0.075 A 
HETATM    4  N1  UNL     1      25.562   3.874  49.148  1.00  0.00    -0.241 NA
HETATM    5  C5  UNL     1      26.752   3.711  49.754  1.00  0.00     0.235 A 
HETATM    6  N2  UNL     1      26.835   2.983  50.879  1.00  0.00    -0.224 NA
HETATM    7  C6  UNL     1      25.781   2.388  51.460  1.00  0.00     0.138 A 
HETATM    8  C15 UNL     1      24.592   2.589  50.798  1.00  0.00     0.041 A 
HETATM    9  C16 UNL     1      23.472   2.023  51.310  1.00  0.00     0.049 A 
HETATM   10  C17 UNL     1      22.252   2.176  50.703  1.00  0.00     0.063 A 
ENDROOT
BRANCH   7  11
HETATM   11  N3  UNL     1      25.918   1.619  52.652  1.00  0.00    -0.366 N 
HETATM   12  H6  UNL     1      25.970   1.964  53.627  1.00  0.00     0.161 HD
BRANCH  11  13
HETATM   13  C7  UNL     1      25.987   0.173  52.441  1.00  0.00     0.112 C 
HETATM   14  C8  UNL     1      25.023  -0.543  53.384  1.00  0.00     0.037 C 
BRANCH  13  15
HETATM   15  C9  UNL     1      27.367  -0.216  52.876  1.00  0.00    -0.036 A 
HETATM   16  C10 UNL     1      27.774  -1.540  52.811  1.00  0.00     0.009 A 
HETATM   17  C11 UNL     1      29.057  -1.878  53.231  1.00  0.00     0.001 A 
HETATM   18  C12 UNL     1      29.915  -0.877  53.715  1.00  0.00     0.000 A 
HETATM   19  C13 UNL     1      29.466   0.453  53.765  1.00  0.00     0.001 A 
HETATM   20  C14 UNL     1      28.199   0.765  53.344  1.00  0.00     0.009 A 
ENDBRANCH  13  15
ENDBRANCH  11  13
ENDBRANCH   7  11
BRANCH  10  21
HETATM   21  N4  UNL     1      20.979   1.739  50.995  1.00  0.00    -0.377 N 
HETATM   22  H17 UNL     1      20.510   2.045  50.080  1.00  0.00     0.160 HD
BRANCH  21  23
HETATM   23  C18 UNL     1      19.675   1.292  51.294  1.00  0.00     0.139 C 
HETATM   24  C19 UNL     1      19.571   0.298  52.426  1.00  0.00     0.039 C 
BRANCH  23  25
HETATM   25  C20 UNL     1      18.685   2.395  51.593  1.00  0.00     0.255 C 
HETATM   26  O2  UNL     1      19.242   3.306  52.193  1.00  0.00    -0.305 OA
ENDBRANCH  23  25
ENDBRANCH  21  23
ENDBRANCH  10  21
BRANCH   1  27
HETATM   27  O1  UNL     1      20.969   3.180  48.793  1.00  0.00    -0.354 OA
HETATM   28  C1  UNL     1      20.928   4.016  47.681  1.00  0.00     0.210 C 
ENDBRANCH   1  27
TORSDOF 7
ENDMDL
MODEL 8
REMARK VINA RESULT:      -7.3      5.679      9.231
REMARK  7 active torsions:
REMARK  status: ('A' for Active; 'I' for Inactive)
REMARK    1  A    between atoms: O1_2  and  C2_3 
REMARK    2  A    between atoms: C6_9  and  N3_10 
REMARK    3  A    between atoms: N3_10  and  C7_11 
REMARK    4  A    between atoms: C7_11  and  C9_13 
REMARK    5  A    between atoms: C17_21  and  N4_22 
REMARK    6  A    between atoms: N4_22  and  C18_23 
REMARK    7  A    between atoms: C18_23  and  C20_25 
ROOT
HETATM    1  C2  UNL     1      32.808   7.349  47.913  1.00  0.00     0.096 A 
HETATM    2  C3  UNL     1      32.521   8.723  48.037  1.00  0.00     0.071 A 
HETATM    3  C4  UNL     1      31.244   9.051  48.410  1.00  0.00     0.075 A 
HETATM    4  N1  UNL     1      30.939  10.350  48.539  1.00  0.00    -0.241 NA
HETATM    5  C5  UNL     1      29.706  10.743  48.905  1.00  0.00     0.235 A 
HETATM    6  N2  UNL     1      28.757   9.825  49.148  1.00  0.00    -0.224 NA
HETATM    7  C6  UNL     1      28.958   8.502  49.048  1.00  0.00     0.138 A 
HETATM    8  C15 UNL     1      30.236   8.158  48.670  1.00  0.00     0.041 A 
HETATM    9  C16 UNL     1      30.534   6.843  48.546  1.00  0.00     0.049 A 
HETATM   10  C17 UNL     1      31.786   6.425  48.177  1.00  0.00     0.063 A 
ENDROOT
BRANCH   7  11
HETATM   11  N3  UNL     1      27.921   7.563  49.322  1.00  0.00    -0.366 N 
HETATM   12  H6  UNL     1      27.555   7.273  50.245  1.00  0.00     0.161 HD
BRANCH  11  13
HETATM   13  C7  UNL     1      27.320   6.954  48.134  1.00  0.00     0.112 C 
HETATM   14  C8  UNL     1      26.270   7.890  47.539  1.00  0.00     0.037 C 
BRANCH  13  15
HETATM   15  C9  UNL     1      26.578   5.759  48.646  1.00  0.00    -0.036 A 
HETATM   16  C10 UNL     1      25.205   5.817  48.834  1.00  0.00     0.009 A 
HETATM   17  C11 UNL     1      24.538   4.696  49.322  1.00  0.00     0.001 A 
HETATM   18  C12 UNL     1      25.263   3.530  49.617  1.00  0.00     0.000 A 
HETATM   19  C13 UNL     1      26.653   3.511  49.412  1.00  0.00     0.001 A 
HETATM   20  C14 UNL     1      27.290   4.625  48.929  1.00  0.00     0.009 A 
ENDBRANCH  13  15
ENDBRANCH  11  13
ENDBRANCH   7  11
BRANCH  10  21
HETATM   21  N4  UNL     1      32.357   5.189  47.965  1.00  0.00    -0.377 N 
HETATM   22  H17 UNL     1      31.467   4.669  47.669  1.00  0.00     0.160 HD
BRANCH  21  23
HETATM   23  C18 UNL     1      32.941   3.923  47.748  1.00  0.00     0.139 C 
HETATM   24  C19 UNL     1      32.250   3.055  46.725  1.00  0.00     0.039 C 
BRANCH  23  25
HETATM   25  C20 UNL     1      34.404   3.963  47.367  1.00  0.00     0.255 C 
HETATM   26  O2  UNL     1      35.042   3.190  48.071  1.00  0.00    -0.305 OA
ENDBRANCH  23  25
ENDBRANCH  21  23
ENDBRANCH  10  21
BRANCH   1  27
HETATM   27  O1  UNL     1      34.118   7.096  47.532  1.00  0.00    -0.354 OA
HETATM   28  C1  UNL     1      35.228   7.478  48.281  1.00  0.00     0.210 C 
ENDBRANCH   1  27
TORSDOF 7
ENDMDL
MODEL 9
REMARK VINA RESULT:      -7.3      2.927      6.728
REMARK  7 active torsions:
REMARK  status: ('A' for Active; 'I' for Inactive)
REMARK    1  A    between atoms: O1_2  and  C2_3 
REMARK    2  A    between atoms: C6_9  and  N3_10 
REMARK    3  A    between atoms: N3_10  and  C7_11 
REMARK    4  A    between atoms: C7_11  and  C9_13 
REMARK    5  A    between atoms: C17_21  and  N4_22 
REMARK    6  A    between atoms: N4_22  and  C18_23 
REMARK    7  A    between atoms: C18_23  and  C20_25 
ROOT
HETATM    1  C2  UNL     1      23.463   5.346  50.539  1.00  0.00     0.096 A 
HETATM    2  C3  UNL     1      22.533   4.487  51.158  1.00  0.00     0.071 A 
HETATM    3  C4  UNL     1      23.018   3.292  51.621  1.00  0.00     0.075 A 
HETATM    4  N1  UNL     1      22.159   2.452  52.217  1.00  0.00    -0.241 NA
HETATM    5  C5  UNL     1      22.568   1.264  52.696  1.00  0.00     0.235 A 
HETATM    6  N2  UNL     1      23.856   0.904  52.581  1.00  0.00    -0.224 NA
HETATM    7  C6  UNL     1      24.794   1.669  52.003  1.00  0.00     0.138 A 
HETATM    8  C15 UNL     1      24.320   2.872  51.530  1.00  0.00     0.041 A 
HETATM    9  C16 UNL     1      25.197   3.714  50.932  1.00  0.00     0.049 A 
HETATM   10  C17 UNL     1      24.798   4.930  50.440  1.00  0.00     0.063 A 
ENDROOT
BRANCH   7  11
HETATM   11  N3  UNL     1      26.152   1.248  51.908  1.00  0.00    -0.366 N 
HETATM   12  H6  UNL     1      26.683   1.007  51.053  1.00  0.00     0.161 HD
BRANCH  11  13
HETATM   13  C7  UNL     1      26.854   1.156  53.189  1.00  0.00     0.112 C 
HETATM   14  C8  UNL     1      27.934   2.232  53.274  1.00  0.00     0.037 C 
BRANCH  13  15
HETATM   15  C9  UNL     1      27.571  -0.158  53.144  1.00  0.00    -0.036 A 
HETATM   16  C10 UNL     1      26.903  -1.306  52.744  1.00  0.00     0.009 A 
HETATM   17  C11 UNL     1      27.589  -2.517  52.721  1.00  0.00     0.001 A 
HETATM   18  C12 UNL     1      28.940  -2.559  53.103  1.00  0.00     0.000 A 
HETATM   19  C13 UNL     1      29.581  -1.373  53.501  1.00  0.00     0.001 A 
HETATM   20  C14 UNL     1      28.888  -0.191  53.516  1.00  0.00     0.009 A 
ENDBRANCH  13  15
ENDBRANCH  11  13
ENDBRANCH   7  11
BRANCH  10  21
HETATM   21  N4  UNL     1      25.448   5.957  49.791  1.00  0.00    -0.377 N 
HETATM   22  H17 UNL     1      25.337   5.586  48.791  1.00  0.00     0.160 HD
BRANCH  21  23
HETATM   23  C18 UNL     1      26.113   7.008  49.127  1.00  0.00     0.139 C 
HETATM   24  C19 UNL     1      26.498   8.184  49.992  1.00  0.00     0.039 C 
BRANCH  23  25
HETATM   25  C20 UNL     1      27.361   6.591  48.382  1.00  0.00     0.255 C 
HETATM   26  O2  UNL     1      27.682   7.461  47.581  1.00  0.00    -0.305 OA
ENDBRANCH  23  25
ENDBRANCH  21  23
ENDBRANCH  10  21
BRANCH   1  27
HETATM   27  O1  UNL     1      22.898   6.535  50.097  1.00  0.00    -0.354 OA
HETATM   28  C1  UNL     1      21.617   6.957  50.440  1.00  0.00     0.210 C 
ENDBRANCH   1  27
TORSDOF 7
ENDMDL
