MODEL 1
REMARK VINA RESULT:      -9.0      0.000      0.000
REMARK  1 active torsions:
REMARK  status: ('A' for Active; 'I' for Inactive)
REMARK    1  A    between atoms: O1_2  and  C2_3 
ROOT
HETATM    1  C2  UNL     1      20.931  -0.325  53.691  1.00  0.00     0.069 A 
HETATM    2  C3  UNL     1      21.652  -1.198  54.494  1.00  0.00     0.037 A 
HETATM    3  C4  UNL     1      23.034  -1.188  54.553  1.00  0.00     0.011 A 
HETATM    4  C5  UNL     1      23.779  -0.276  53.790  1.00  0.00    -0.043 A 
HETATM    5  C6  UNL     1      23.008   0.578  53.000  1.00  0.00    -0.010 A 
HETATM    6  C7  UNL     1      21.620   0.579  52.932  1.00  0.00     0.049 A 
HETATM    7  C8  UNL     1      23.385   1.645  52.054  1.00  0.00     0.053 C 
HETATM    8  C9  UNL     1      22.771   1.518  50.897  1.00  0.00    -0.019 A 
HETATM    9  C10 UNL     1      21.828   0.657  50.218  1.00  0.00     0.013 A 
HETATM   10  C11 UNL     1      21.514   1.025  48.992  1.00  0.00     0.007 A 
HETATM   11  C12 UNL     1      22.293   2.259  48.752  1.00  0.00    -0.061 A 
HETATM   12  C13 UNL     1      22.083   2.858  47.392  1.00  0.00     0.048 C 
HETATM   13  C14 UNL     1      22.994   2.507  49.855  1.00  0.00     0.019 A 
HETATM   14  C15 UNL     1      24.364   2.749  52.209  1.00  0.00     0.257 C 
HETATM   15  O2  UNL     1      23.941   3.802  51.703  1.00  0.00    -0.267 OA
HETATM   16  N1  UNL     1      25.670   2.741  52.841  1.00  0.00    -0.333 N 
HETATM   17  C16 UNL     1      26.293   1.907  53.832  1.00  0.00     0.087 C 
HETATM   18  C17 UNL     1      26.040   0.674  54.235  1.00  0.00    -0.005 C 
HETATM   19  C18 UNL     1      25.210  -0.518  54.095  1.00  0.00     0.068 C 
HETATM   20  H13 UNL     1      26.206   3.533  52.442  1.00  0.00     0.168 HD
ENDROOT
BRANCH   1  21
HETATM   21  O1  UNL     1      19.557  -0.280  53.583  1.00  0.00    -0.356 OA
HETATM   22  C1  UNL     1      18.877  -0.143  52.349  1.00  0.00     0.210 C 
ENDBRANCH   1  21
TORSDOF 1
ENDMDL
MODEL 2
REMARK VINA RESULT:      -8.4      2.528      5.492
REMARK  1 active torsions:
REMARK  status: ('A' for Active; 'I' for Inactive)
REMARK    1  A    between atoms: O1_2  and  C2_3 
ROOT
HETATM    1  C2  UNL     1      22.970   3.518  52.361  1.00  0.00     0.069 A 
HETATM    2  C3  UNL     1      21.712   3.534  51.775  1.00  0.00     0.037 A 
HETATM    3  C4  UNL     1      20.908   2.411  51.704  1.00  0.00     0.011 A 
HETATM    4  C5  UNL     1      21.339   1.184  52.231  1.00  0.00    -0.043 A 
HETATM    5  C6  UNL     1      22.610   1.220  52.808  1.00  0.00    -0.010 A 
HETATM    6  C7  UNL     1      23.427   2.343  52.887  1.00  0.00     0.049 A 
HETATM    7  C8  UNL     1      23.429   0.171  53.442  1.00  0.00     0.053 C 
HETATM    8  C9  UNL     1      24.654   0.143  52.963  1.00  0.00    -0.019 A 
HETATM    9  C10 UNL     1      25.491   0.810  51.990  1.00  0.00     0.013 A 
HETATM   10  C11 UNL     1      26.734   0.373  51.925  1.00  0.00     0.007 A 
HETATM   11  C12 UNL     1      26.813  -0.704  52.935  1.00  0.00    -0.061 A 
HETATM   12  C13 UNL     1      28.163  -1.352  53.031  1.00  0.00     0.048 C 
HETATM   13  C14 UNL     1      25.614  -0.806  53.503  1.00  0.00     0.019 A 
HETATM   14  C15 UNL     1      23.051  -0.845  54.455  1.00  0.00     0.257 C 
HETATM   15  O2  UNL     1      23.956  -1.008  55.291  1.00  0.00    -0.267 OA
HETATM   16  N1  UNL     1      21.829  -1.618  54.574  1.00  0.00    -0.333 N 
HETATM   17  C16 UNL     1      20.484  -1.438  54.098  1.00  0.00     0.087 C 
HETATM   18  C17 UNL     1      19.987  -0.717  53.107  1.00  0.00    -0.005 C 
HETATM   19  C18 UNL     1      20.249   0.204  52.007  1.00  0.00     0.068 C 
HETATM   20  H13 UNL     1      22.055  -2.462  55.133  1.00  0.00     0.168 HD
ENDROOT
BRANCH   1  21
HETATM   21  O1  UNL     1      23.822   4.597  52.466  1.00  0.00    -0.356 OA
HETATM   22  C1  UNL     1      23.774   5.717  51.602  1.00  0.00     0.210 C 
ENDBRANCH   1  21
TORSDOF 1
ENDMDL
MODEL 3
REMARK VINA RESULT:      -8.4      2.283      5.262
REMARK  1 active torsions:
REMARK  status: ('A' for Active; 'I' for Inactive)
REMARK    1  A    between atoms: O1_2  and  C2_3 
ROOT
HETATM    1  C2  UNL     1      26.385   1.755  53.466  1.00  0.00     0.069 A 
HETATM    2  C3  UNL     1      27.266   2.114  52.456  1.00  0.00     0.037 A 
HETATM    3  C4  UNL     1      26.841   2.602  51.233  1.00  0.00     0.011 A 
HETATM    4  C5  UNL     1      25.473   2.758  50.958  1.00  0.00    -0.043 A 
HETATM    5  C6  UNL     1      24.630   2.382  52.004  1.00  0.00    -0.010 A 
HETATM    6  C7  UNL     1      25.045   1.892  53.238  1.00  0.00     0.049 A 
HETATM    7  C8  UNL     1      23.159   2.367  52.121  1.00  0.00     0.053 C 
HETATM    8  C9  UNL     1      22.712   1.214  52.568  1.00  0.00    -0.019 A 
HETATM    9  C10 UNL     1      23.188  -0.086  52.990  1.00  0.00     0.013 A 
HETATM   10  C11 UNL     1      22.253  -0.923  53.393  1.00  0.00     0.007 A 
HETATM   11  C12 UNL     1      20.985  -0.175  53.254  1.00  0.00    -0.061 A 
HETATM   12  C13 UNL     1      19.769  -0.954  53.664  1.00  0.00     0.048 C 
HETATM   13  C14 UNL     1      21.285   1.032  52.783  1.00  0.00     0.019 A 
HETATM   14  C15 UNL     1      22.168   3.410  51.758  1.00  0.00     0.257 C 
HETATM   15  O2  UNL     1      21.253   3.472  52.597  1.00  0.00    -0.267 OA
HETATM   16  N1  UNL     1      22.146   4.303  50.617  1.00  0.00    -0.333 N 
HETATM   17  C16 UNL     1      23.153   4.799  49.718  1.00  0.00     0.087 C 
HETATM   18  C17 UNL     1      24.351   4.342  49.396  1.00  0.00    -0.005 C 
HETATM   19  C18 UNL     1      25.364   3.310  49.587  1.00  0.00     0.068 C 
HETATM   20  H13 UNL     1      21.163   4.606  50.486  1.00  0.00     0.168 HD
ENDROOT
BRANCH   1  21
HETATM   21  O1  UNL     1      26.738   1.262  54.704  1.00  0.00    -0.356 OA
HETATM   22  C1  UNL     1      27.663   0.207  54.889  1.00  0.00     0.210 C 
ENDBRANCH   1  21
TORSDOF 1
ENDMDL
MODEL 4
REMARK VINA RESULT:      -8.3      2.631      5.737
REMARK  1 active torsions:
REMARK  status: ('A' for Active; 'I' for Inactive)
REMARK    1  A    between atoms: O1_2  and  C2_3 
ROOT
HETATM    1  C2  UNL     1      20.833   3.720  51.874  1.00  0.00     0.069 A 
HETATM    2  C3  UNL     1      19.692   3.632  51.090  1.00  0.00     0.037 A 
HETATM    3  C4  UNL     1      18.988   2.453  50.927  1.00  0.00     0.011 A 
HETATM    4  C5  UNL     1      19.407   1.272  51.559  1.00  0.00    -0.043 A 
HETATM    5  C6  UNL     1      20.559   1.413  52.334  1.00  0.00    -0.010 A 
HETATM    6  C7  UNL     1      21.275   2.592  52.507  1.00  0.00     0.049 A 
HETATM    7  C8  UNL     1      21.331   0.439  53.129  1.00  0.00     0.053 C 
HETATM    8  C9  UNL     1      22.617   0.488  52.858  1.00  0.00    -0.019 A 
HETATM    9  C10 UNL     1      23.557   1.191  52.012  1.00  0.00     0.013 A 
HETATM   10  C11 UNL     1      24.819   0.843  52.166  1.00  0.00     0.007 A 
HETATM   11  C12 UNL     1      24.803  -0.203  53.211  1.00  0.00    -0.061 A 
HETATM   12  C13 UNL     1      26.159  -0.750  53.549  1.00  0.00     0.048 C 
HETATM   13  C14 UNL     1      23.536  -0.377  53.579  1.00  0.00     0.019 A 
HETATM   14  C15 UNL     1      20.859  -0.579  54.100  1.00  0.00     0.257 C 
HETATM   15  O2  UNL     1      21.622  -0.657  55.078  1.00  0.00    -0.267 OA
HETATM   16  N1  UNL     1      19.689  -1.434  54.044  1.00  0.00    -0.333 N 
HETATM   17  C16 UNL     1      18.432  -1.361  53.349  1.00  0.00     0.087 C 
HETATM   18  C17 UNL     1      18.059  -0.700  52.267  1.00  0.00    -0.005 C 
HETATM   19  C18 UNL     1      18.437   0.213  51.194  1.00  0.00     0.068 C 
HETATM   20  H13 UNL     1      19.875  -2.246  54.661  1.00  0.00     0.168 HD
ENDROOT
BRANCH   1  21
HETATM   21  O1  UNL     1      21.583   4.859  52.081  1.00  0.00    -0.356 OA
HETATM   22  C1  UNL     1      22.991   4.901  51.944  1.00  0.00     0.210 C 
ENDBRANCH   1  21
TORSDOF 1
ENDMDL
MODEL 5
REMARK VINA RESULT:      -8.3      2.563      4.545
REMARK  1 active torsions:
REMARK  status: ('A' for Active; 'I' for Inactive)
REMARK    1  A    between atoms: O1_2  and  C2_3 
ROOT
HETATM    1  C2  UNL     1      25.628   0.432  52.650  1.00  0.00     0.069 A 
HETATM    2  C3  UNL     1      25.673  -0.494  53.684  1.00  0.00     0.037 A 
HETATM    3  C4  UNL     1      24.547  -0.879  54.389  1.00  0.00     0.011 A 
HETATM    4  C5  UNL     1      23.288  -0.340  54.083  1.00  0.00    -0.043 A 
HETATM    5  C6  UNL     1      23.297   0.586  53.038  1.00  0.00    -0.010 A 
HETATM    6  C7  UNL     1      24.421   0.980  52.321  1.00  0.00     0.049 A 
HETATM    7  C8  UNL     1      22.219   1.386  52.428  1.00  0.00     0.053 C 
HETATM    8  C9  UNL     1      22.541   2.658  52.333  1.00  0.00    -0.019 A 
HETATM    9  C10 UNL     1      23.625   3.565  52.642  1.00  0.00     0.013 A 
HETATM   10  C11 UNL     1      23.423   4.820  52.292  1.00  0.00     0.007 A 
HETATM   11  C12 UNL     1      22.079   4.834  51.677  1.00  0.00    -0.061 A 
HETATM   12  C13 UNL     1      21.640   6.187  51.199  1.00  0.00     0.048 C 
HETATM   13  C14 UNL     1      21.609   3.590  51.718  1.00  0.00     0.019 A 
HETATM   14  C15 UNL     1      20.864   0.972  51.987  1.00  0.00     0.257 C 
HETATM   15  O2  UNL     1      20.544   1.535  50.925  1.00  0.00    -0.267 OA
HETATM   16  N1  UNL     1      19.933   0.049  52.608  1.00  0.00    -0.333 N 
HETATM   17  C16 UNL     1      20.077  -1.038  53.538  1.00  0.00     0.087 C 
HETATM   18  C17 UNL     1      21.026  -1.334  54.410  1.00  0.00    -0.005 C 
HETATM   19  C18 UNL     1      22.308  -0.968  55.001  1.00  0.00     0.068 C 
HETATM   20  H13 UNL     1      18.987   0.288  52.257  1.00  0.00     0.168 HD
ENDROOT
BRANCH   1  21
HETATM   21  O1  UNL     1      26.708   0.861  51.908  1.00  0.00    -0.356 OA
HETATM   22  C1  UNL     1      26.754   2.115  51.252  1.00  0.00     0.210 C 
ENDBRANCH   1  21
TORSDOF 1
ENDMDL
MODEL 6
REMARK VINA RESULT:      -8.2      2.376      4.344
REMARK  1 active torsions:
REMARK  status: ('A' for Active; 'I' for Inactive)
REMARK    1  A    between atoms: O1_2  and  C2_3 
ROOT
HETATM    1  C2  UNL     1      24.777  -0.825  53.944  1.00  0.00     0.069 A 
HETATM    2  C3  UNL     1      24.010  -1.157  55.052  1.00  0.00     0.037 A 
HETATM    3  C4  UNL     1      22.663  -0.853  55.145  1.00  0.00     0.011 A 
HETATM    4  C5  UNL     1      22.004  -0.185  54.102  1.00  0.00    -0.043 A 
HETATM    5  C6  UNL     1      22.818   0.127  53.013  1.00  0.00    -0.010 A 
HETATM    6  C7  UNL     1      24.172  -0.174  52.906  1.00  0.00     0.049 A 
HETATM    7  C8  UNL     1      22.536   0.829  51.746  1.00  0.00     0.053 C 
HETATM    8  C9  UNL     1      23.415   1.776  51.501  1.00  0.00    -0.019 A 
HETATM    9  C10 UNL     1      24.596   2.384  52.074  1.00  0.00     0.013 A 
HETATM   10  C11 UNL     1      25.137   3.347  51.354  1.00  0.00     0.007 A 
HETATM   11  C12 UNL     1      24.281   3.454  50.153  1.00  0.00    -0.061 A 
HETATM   12  C13 UNL     1      24.722   4.508  49.181  1.00  0.00     0.048 C 
HETATM   13  C14 UNL     1      23.314   2.548  50.272  1.00  0.00     0.019 A 
HETATM   14  C15 UNL     1      21.411   0.654  50.795  1.00  0.00     0.257 C 
HETATM   15  O2  UNL     1      21.799   0.742  49.617  1.00  0.00    -0.267 OA
HETATM   16  N1  UNL     1      20.006   0.410  51.063  1.00  0.00    -0.333 N 
HETATM   17  C16 UNL     1      19.284  -0.132  52.182  1.00  0.00     0.087 C 
HETATM   18  C17 UNL     1      19.597  -0.253  53.460  1.00  0.00    -0.005 C 
HETATM   19  C18 UNL     1      20.586  -0.032  54.509  1.00  0.00     0.068 C 
HETATM   20  H13 UNL     1      19.479   0.717  50.225  1.00  0.00     0.168 HD
ENDROOT
BRANCH   1  21
HETATM   21  O1  UNL     1      26.119  -1.096  53.785  1.00  0.00    -0.356 OA
HETATM   22  C1  UNL     1      26.883  -0.633  52.686  1.00  0.00     0.210 C 
ENDBRANCH   1  21
TORSDOF 1
ENDMDL
MODEL 7
REMARK VINA RESULT:      -7.8      2.292      6.266
REMARK  1 active torsions:
REMARK  status: ('A' for Active; 'I' for Inactive)
REMARK    1  A    between atoms: O1_2  and  C2_3 
ROOT
HETATM    1  C2  UNL     1      24.480   4.793  49.996  1.00  0.00     0.069 A 
HETATM    2  C3  UNL     1      23.785   4.787  48.795  1.00  0.00     0.037 A 
HETATM    3  C4  UNL     1      22.984   3.730  48.402  1.00  0.00     0.011 A 
HETATM    4  C5  UNL     1      22.838   2.597  49.216  1.00  0.00    -0.043 A 
HETATM    5  C6  UNL     1      23.558   2.651  50.411  1.00  0.00    -0.010 A 
HETATM    6  C7  UNL     1      24.365   3.707  50.818  1.00  0.00     0.049 A 
HETATM    7  C8  UNL     1      23.698   1.684  51.516  1.00  0.00     0.053 C 
HETATM    8  C9  UNL     1      24.958   1.480  51.837  1.00  0.00    -0.019 A 
HETATM    9  C10 UNL     1      26.292   1.891  51.455  1.00  0.00     0.013 A 
HETATM   10  C11 UNL     1      27.267   1.363  52.169  1.00  0.00     0.007 A 
HETATM   11  C12 UNL     1      26.591   0.491  53.154  1.00  0.00    -0.061 A 
HETATM   12  C13 UNL     1      27.530  -0.221  54.084  1.00  0.00     0.048 C 
HETATM   13  C14 UNL     1      25.282   0.583  52.935  1.00  0.00     0.019 A 
HETATM   14  C15 UNL     1      22.658   0.905  52.232  1.00  0.00     0.257 C 
HETATM   15  O2  UNL     1      22.904   0.839  53.449  1.00  0.00    -0.267 OA
HETATM   16  N1  UNL     1      21.470   0.257  51.713  1.00  0.00    -0.333 N 
HETATM   17  C16 UNL     1      20.670   0.439  50.532  1.00  0.00     0.087 C 
HETATM   18  C17 UNL     1      20.936   0.995  49.362  1.00  0.00    -0.005 C 
HETATM   19  C18 UNL     1      21.913   1.672  48.518  1.00  0.00     0.068 C 
HETATM   20  H13 UNL     1      21.203  -0.480  52.391  1.00  0.00     0.168 HD
ENDROOT
BRANCH   1  21
HETATM   21  O1  UNL     1      25.294   5.808  50.450  1.00  0.00    -0.356 OA
HETATM   22  C1  UNL     1      24.894   7.165  50.500  1.00  0.00     0.210 C 
ENDBRANCH   1  21
TORSDOF 1
ENDMDL
MODEL 8
REMARK VINA RESULT:      -7.6      2.320      3.728
REMARK  1 active torsions:
REMARK  status: ('A' for Active; 'I' for Inactive)
REMARK    1  A    between atoms: O1_2  and  C2_3 
ROOT
HETATM    1  C2  UNL     1      24.987  -0.172  53.826  1.00  0.00     0.069 A 
HETATM    2  C3  UNL     1      26.229  -0.275  53.216  1.00  0.00     0.037 A 
HETATM    3  C4  UNL     1      26.592   0.498  52.127  1.00  0.00     0.011 A 
HETATM    4  C5  UNL     1      25.702   1.436  51.583  1.00  0.00    -0.043 A 
HETATM    5  C6  UNL     1      24.467   1.500  52.230  1.00  0.00    -0.010 A 
HETATM    6  C7  UNL     1      24.091   0.731  53.326  1.00  0.00     0.049 A 
HETATM    7  C8  UNL     1      23.266   2.316  51.972  1.00  0.00     0.053 C 
HETATM    8  C9  UNL     1      22.172   1.586  51.934  1.00  0.00    -0.019 A 
HETATM    9  C10 UNL     1      21.738   0.211  52.057  1.00  0.00     0.013 A 
HETATM   10  C11 UNL     1      20.438   0.021  51.952  1.00  0.00     0.007 A 
HETATM   11  C12 UNL     1      19.871   1.370  51.732  1.00  0.00    -0.061 A 
HETATM   12  C13 UNL     1      18.378   1.388  51.583  1.00  0.00     0.048 C 
HETATM   13  C14 UNL     1      20.885   2.231  51.728  1.00  0.00     0.019 A 
HETATM   14  C15 UNL     1      23.146   3.770  51.702  1.00  0.00     0.257 C 
HETATM   15  O2  UNL     1      22.152   4.254  52.269  1.00  0.00    -0.267 OA
HETATM   16  N1  UNL     1      23.998   4.633  50.906  1.00  0.00    -0.333 N 
HETATM   17  C16 UNL     1      25.366   4.557  50.470  1.00  0.00     0.087 C 
HETATM   18  C17 UNL     1      26.194   3.535  50.333  1.00  0.00    -0.005 C 
HETATM   19  C18 UNL     1      26.398   2.096  50.453  1.00  0.00     0.068 C 
HETATM   20  H13 UNL     1      23.429   5.455  50.634  1.00  0.00     0.168 HD
ENDROOT
BRANCH   1  21
HETATM   21  O1  UNL     1      24.560  -0.908  54.910  1.00  0.00    -0.356 OA
HETATM   22  C1  UNL     1      23.208  -1.269  55.124  1.00  0.00     0.210 C 
ENDBRANCH   1  21
TORSDOF 1
ENDMDL
MODEL 9
REMARK VINA RESULT:      -7.5      2.695      5.077
REMARK  1 active torsions:
REMARK  status: ('A' for Active; 'I' for Inactive)
REMARK    1  A    between atoms: O1_2  and  C2_3 
ROOT
HETATM    1  C2  UNL     1      26.218   1.951  52.253  1.00  0.00     0.069 A 
HETATM    2  C3  UNL     1      25.635   1.282  53.320  1.00  0.00     0.037 A 
HETATM    3  C4  UNL     1      24.280   1.011  53.380  1.00  0.00     0.011 A 
HETATM    4  C5  UNL     1      23.421   1.408  52.344  1.00  0.00    -0.043 A 
HETATM    5  C6  UNL     1      24.055   2.077  51.296  1.00  0.00    -0.010 A 
HETATM    6  C7  UNL     1      25.415   2.354  51.223  1.00  0.00     0.049 A 
HETATM    7  C8  UNL     1      23.530   2.669  50.051  1.00  0.00     0.053 C 
HETATM    8  C9  UNL     1      23.954   3.901  49.873  1.00  0.00    -0.019 A 
HETATM    9  C10 UNL     1      24.779   4.905  50.510  1.00  0.00     0.013 A 
HETATM   10  C11 UNL     1      24.894   6.039  49.848  1.00  0.00     0.007 A 
HETATM   11  C12 UNL     1      24.084   5.852  48.625  1.00  0.00    -0.061 A 
HETATM   12  C13 UNL     1      24.075   7.043  47.712  1.00  0.00     0.048 C 
HETATM   13  C14 UNL     1      23.566   4.628  48.675  1.00  0.00     0.019 A 
HETATM   14  C15 UNL     1      22.586   2.103  49.056  1.00  0.00     0.257 C 
HETATM   15  O2  UNL     1      22.921   2.399  47.896  1.00  0.00    -0.267 OA
HETATM   16  N1  UNL     1      21.397   1.300  49.266  1.00  0.00    -0.333 N 
HETATM   17  C16 UNL     1      20.940   0.455  50.337  1.00  0.00     0.087 C 
HETATM   18  C17 UNL     1      21.257   0.406  51.620  1.00  0.00    -0.005 C 
HETATM   19  C18 UNL     1      22.057   0.955  52.709  1.00  0.00     0.068 C 
HETATM   20  H13 UNL     1      20.802   1.409  48.424  1.00  0.00     0.168 HD
ENDROOT
BRANCH   1  21
HETATM   21  O1  UNL     1      27.557   2.254  52.128  1.00  0.00    -0.356 OA
HETATM   22  C1  UNL     1      28.443   2.338  53.228  1.00  0.00     0.210 C 
ENDBRANCH   1  21
TORSDOF 1
ENDMDL
