MODEL 1
REMARK VINA RESULT:      -9.4      0.000      0.000
REMARK  5 active torsions:
REMARK  status: ('A' for Active; 'I' for Inactive)
REMARK    1  A    between atoms: C3_3  and  C4_4 
REMARK    2  A    between atoms: C5_5  and  C6_6 
REMARK    3  A    between atoms: C7_7  and  C8_8 
REMARK    4  A    between atoms: C10_10  and  N1_11 
REMARK    5  A    between atoms: N1_11  and  C11_12 
ROOT
HETATM    1  N1  UNL     1      26.437   2.298  50.779  1.00  0.00    -0.340 N 
HETATM    2  H11 UNL     1      26.854   1.745  49.964  1.00  0.00     0.167 HD
ENDROOT
BRANCH   1   3
HETATM    3  C10 UNL     1      27.005   1.964  52.072  1.00  0.00     0.131 A 
HETATM    4  C9  UNL     1      26.393   1.092  52.944  1.00  0.00     0.082 A 
HETATM    5  C8  UNL     1      26.863   0.733  54.173  1.00  0.00     0.061 A 
HETATM    6  N3  UNL     1      28.026   1.309  54.511  1.00  0.00    -0.242 NA
HETATM    7  C22 UNL     1      28.682   2.168  53.717  1.00  0.00     0.235 A 
HETATM    8  N2  UNL     1      28.165   2.485  52.510  1.00  0.00    -0.224 NA
BRANCH   5   9
HETATM    9  C7  UNL     1      26.101  -0.203  54.983  1.00  0.00     0.032 C 
HETATM   10  C6  UNL     1      24.951  -0.763  54.655  1.00  0.00     0.002 C 
BRANCH  10  11
HETATM   11  C5  UNL     1      24.060  -0.706  53.508  1.00  0.00     0.000 C 
HETATM   12  C4  UNL     1      22.750  -0.592  53.392  1.00  0.00    -0.000 C 
BRANCH  12  13
HETATM   13  C3  UNL     1      21.898  -0.491  54.548  1.00  0.00    -0.004 C 
HETATM   14  C2  UNL     1      20.798   0.259  54.489  1.00  0.00    -0.031 C 
HETATM   15  C1  UNL     1      20.503   0.959  53.230  1.00  0.00     0.036 C 
ENDBRANCH  12  13
ENDBRANCH  10  11
ENDBRANCH   5   9
ENDBRANCH   1   3
BRANCH   1  16
HETATM   16  C11 UNL     1      25.426   3.331  50.786  1.00  0.00     0.047 C 
HETATM   17  C12 UNL     1      24.319   2.875  51.409  1.00  0.00     0.032 C 
HETATM   18  C13 UNL     1      22.975   3.390  51.752  1.00  0.00     0.026 C 
HETATM   19  C14 UNL     1      22.470   4.628  51.612  1.00  0.00     0.135 C 
HETATM   20  O1  UNL     1      22.909   5.853  51.143  1.00  0.00    -0.359 OA
HETATM   21  C15 UNL     1      24.145   6.520  51.187  1.00  0.00     0.214 C 
HETATM   22  C16 UNL     1      25.191   5.890  50.341  1.00  0.00    -0.019 A 
HETATM   23  C17 UNL     1      25.766   6.862  49.535  1.00  0.00     0.010 A 
HETATM   24  C21 UNL     1      25.689   4.613  50.191  1.00  0.00     0.038 A 
HETATM   25  C18 UNL     1      26.772   6.565  48.640  1.00  0.00     0.004 A 
HETATM   26  C19 UNL     1      27.256   5.257  48.512  1.00  0.00     0.043 A 
HETATM   27  C20 UNL     1      26.693   4.294  49.305  1.00  0.00     0.129 A 
HETATM   28  F1  UNL     1      27.206   3.066  49.120  1.00  0.00    -0.205 F 
ENDBRANCH   1  16
TORSDOF 5
ENDMDL
MODEL 2
REMARK VINA RESULT:      -9.3      2.865      7.678
REMARK  5 active torsions:
REMARK  status: ('A' for Active; 'I' for Inactive)
REMARK    1  A    between atoms: C3_3  and  C4_4 
REMARK    2  A    between atoms: C5_5  and  C6_6 
REMARK    3  A    between atoms: C7_7  and  C8_8 
REMARK    4  A    between atoms: C10_10  and  N1_11 
REMARK    5  A    between atoms: N1_11  and  C11_12 
ROOT
HETATM    1  N1  UNL     1      23.364   1.274  51.488  1.00  0.00    -0.340 N 
HETATM    2  H11 UNL     1      22.582   0.823  50.914  1.00  0.00     0.167 HD
ENDROOT
BRANCH   1   3
HETATM    3  C10 UNL     1      23.362   2.725  51.453  1.00  0.00     0.131 A 
HETATM    4  C9  UNL     1      23.238   3.434  50.280  1.00  0.00     0.082 A 
HETATM    5  C8  UNL     1      23.231   4.793  50.167  1.00  0.00     0.061 A 
HETATM    6  N3  UNL     1      23.359   5.446  51.332  1.00  0.00    -0.242 NA
HETATM    7  C22 UNL     1      23.484   4.826  52.516  1.00  0.00     0.235 A 
HETATM    8  N2  UNL     1      23.484   3.476  52.561  1.00  0.00    -0.224 NA
BRANCH   5   9
HETATM    9  C7  UNL     1      23.092   5.401  48.854  1.00  0.00     0.032 C 
HETATM   10  C6  UNL     1      23.907   6.288  48.315  1.00  0.00     0.002 C 
BRANCH  10  11
HETATM   11  C5  UNL     1      25.129   6.959  48.728  1.00  0.00     0.000 C 
HETATM   12  C4  UNL     1      26.338   6.520  49.027  1.00  0.00    -0.000 C 
BRANCH  12  13
HETATM   13  C3  UNL     1      26.664   5.118  48.978  1.00  0.00    -0.004 C 
HETATM   14  C2  UNL     1      27.879   4.740  48.582  1.00  0.00    -0.031 C 
HETATM   15  C1  UNL     1      28.843   5.786  48.208  1.00  0.00     0.036 C 
ENDBRANCH  12  13
ENDBRANCH  10  11
ENDBRANCH   5   9
ENDBRANCH   1   3
BRANCH   1  16
HETATM   16  C11 UNL     1      24.393   0.668  52.303  1.00  0.00     0.047 C 
HETATM   17  C12 UNL     1      25.607   0.974  51.799  1.00  0.00     0.032 C 
HETATM   18  C13 UNL     1      27.022   0.693  52.128  1.00  0.00     0.026 C 
HETATM   19  C14 UNL     1      27.546   0.073  53.199  1.00  0.00     0.135 C 
HETATM   20  O1  UNL     1      27.076  -0.521  54.356  1.00  0.00    -0.359 OA
HETATM   21  C15 UNL     1      26.010  -0.235  55.226  1.00  0.00     0.214 C 
HETATM   22  C16 UNL     1      24.672  -0.480  54.628  1.00  0.00    -0.019 A 
HETATM   23  C17 UNL     1      23.926  -1.267  55.495  1.00  0.00     0.010 A 
HETATM   24  C21 UNL     1      24.043  -0.114  53.458  1.00  0.00     0.038 A 
HETATM   25  C18 UNL     1      22.638  -1.656  55.200  1.00  0.00     0.004 A 
HETATM   26  C19 UNL     1      22.026  -1.268  54.002  1.00  0.00     0.043 A 
HETATM   27  C20 UNL     1      22.757  -0.491  53.143  1.00  0.00     0.129 A 
HETATM   28  F1  UNL     1      22.104  -0.164  52.015  1.00  0.00    -0.205 F 
ENDBRANCH   1  16
TORSDOF 5
ENDMDL
MODEL 3
REMARK VINA RESULT:      -9.0      3.225      7.095
REMARK  5 active torsions:
REMARK  status: ('A' for Active; 'I' for Inactive)
REMARK    1  A    between atoms: C3_3  and  C4_4 
REMARK    2  A    between atoms: C5_5  and  C6_6 
REMARK    3  A    between atoms: C7_7  and  C8_8 
REMARK    4  A    between atoms: C10_10  and  N1_11 
REMARK    5  A    between atoms: N1_11  and  C11_12 
ROOT
HETATM    1  N1  UNL     1      23.586   1.314  51.483  1.00  0.00    -0.340 N 
HETATM    2  H11 UNL     1      22.818   0.899  50.865  1.00  0.00     0.167 HD
ENDROOT
BRANCH   1   3
HETATM    3  C10 UNL     1      23.627   2.765  51.482  1.00  0.00     0.131 A 
HETATM    4  C9  UNL     1      23.836   3.497  50.335  1.00  0.00     0.082 A 
HETATM    5  C8  UNL     1      23.889   4.857  50.257  1.00  0.00     0.061 A 
HETATM    6  N3  UNL     1      23.717   5.487  51.429  1.00  0.00    -0.242 NA
HETATM    7  C22 UNL     1      23.508   4.844  52.588  1.00  0.00     0.235 A 
HETATM    8  N2  UNL     1      23.466   3.494  52.601  1.00  0.00    -0.224 NA
BRANCH   5   9
HETATM    9  C7  UNL     1      24.119   5.490  48.969  1.00  0.00     0.032 C 
HETATM   10  C6  UNL     1      23.268   5.539  47.961  1.00  0.00     0.002 C 
BRANCH  10  11
HETATM   11  C5  UNL     1      21.918   5.056  47.719  1.00  0.00     0.000 C 
HETATM   12  C4  UNL     1      21.434   3.876  47.376  1.00  0.00    -0.000 C 
BRANCH  12  13
HETATM   13  C3  UNL     1      22.295   2.741  47.165  1.00  0.00    -0.004 C 
HETATM   14  C2  UNL     1      22.088   1.622  47.858  1.00  0.00    -0.031 C 
HETATM   15  C1  UNL     1      20.975   1.598  48.819  1.00  0.00     0.036 C 
ENDBRANCH  12  13
ENDBRANCH  10  11
ENDBRANCH   5   9
ENDBRANCH   1   3
BRANCH   1  16
HETATM   16  C11 UNL     1      24.561   0.660  52.327  1.00  0.00     0.047 C 
HETATM   17  C12 UNL     1      25.802   0.911  51.861  1.00  0.00     0.032 C 
HETATM   18  C13 UNL     1      27.192   0.566  52.231  1.00  0.00     0.026 C 
HETATM   19  C14 UNL     1      27.655  -0.081  53.316  1.00  0.00     0.135 C 
HETATM   20  O1  UNL     1      27.123  -0.655  54.456  1.00  0.00    -0.359 OA
HETATM   21  C15 UNL     1      26.045  -0.323  55.294  1.00  0.00     0.214 C 
HETATM   22  C16 UNL     1      24.716  -0.505  54.655  1.00  0.00    -0.019 A 
HETATM   23  C17 UNL     1      23.909  -1.259  55.495  1.00  0.00     0.010 A 
HETATM   24  C21 UNL     1      24.140  -0.108  53.467  1.00  0.00     0.038 A 
HETATM   25  C18 UNL     1      22.614  -1.589  55.160  1.00  0.00     0.004 A 
HETATM   26  C19 UNL     1      22.057  -1.170  53.945  1.00  0.00     0.043 A 
HETATM   27  C20 UNL     1      22.848  -0.425  53.111  1.00  0.00     0.129 A 
HETATM   28  F1  UNL     1      22.247  -0.066  51.965  1.00  0.00    -0.205 F 
ENDBRANCH   1  16
TORSDOF 5
ENDMDL
MODEL 4
REMARK VINA RESULT:      -8.8      2.140      3.792
REMARK  5 active torsions:
REMARK  status: ('A' for Active; 'I' for Inactive)
REMARK    1  A    between atoms: C3_3  and  C4_4 
REMARK    2  A    between atoms: C5_5  and  C6_6 
REMARK    3  A    between atoms: C7_7  and  C8_8 
REMARK    4  A    between atoms: C10_10  and  N1_11 
REMARK    5  A    between atoms: N1_11  and  C11_12 
ROOT
HETATM    1  N1  UNL     1      25.409   3.637  49.640  1.00  0.00    -0.340 N 
HETATM    2  H11 UNL     1      26.115   2.857  49.452  1.00  0.00     0.167 HD
ENDROOT
BRANCH   1   3
HETATM    3  C10 UNL     1      24.562   3.402  50.796  1.00  0.00     0.131 A 
HETATM    4  C9  UNL     1      24.000   2.174  51.062  1.00  0.00     0.082 A 
HETATM    5  C8  UNL     1      23.195   1.879  52.123  1.00  0.00     0.061 A 
HETATM    6  N3  UNL     1      22.964   2.912  52.947  1.00  0.00    -0.242 NA
HETATM    7  C22 UNL     1      23.476   4.137  52.756  1.00  0.00     0.235 A 
HETATM    8  N2  UNL     1      24.267   4.367  51.685  1.00  0.00    -0.224 NA
BRANCH   5   9
HETATM    9  C7  UNL     1      22.674   0.530  52.270  1.00  0.00     0.032 C 
HETATM   10  C6  UNL     1      23.143  -0.404  53.077  1.00  0.00     0.002 C 
BRANCH  10  11
HETATM   11  C5  UNL     1      24.230  -0.492  54.039  1.00  0.00     0.000 C 
HETATM   12  C4  UNL     1      25.542  -0.579  53.908  1.00  0.00    -0.000 C 
BRANCH  12  13
HETATM   13  C3  UNL     1      26.169  -0.599  52.613  1.00  0.00    -0.004 C 
HETATM   14  C2  UNL     1      26.901   0.444  52.222  1.00  0.00    -0.031 C 
HETATM   15  C1  UNL     1      27.035   1.581  53.144  1.00  0.00     0.036 C 
ENDBRANCH  12  13
ENDBRANCH  10  11
ENDBRANCH   5   9
ENDBRANCH   1   3
BRANCH   1  16
HETATM   16  C11 UNL     1      25.187   4.884  48.944  1.00  0.00     0.047 C 
HETATM   17  C12 UNL     1      23.871   5.025  48.678  1.00  0.00     0.032 C 
HETATM   18  C13 UNL     1      22.996   6.021  48.021  1.00  0.00     0.026 C 
HETATM   19  C14 UNL     1      23.293   7.244  47.549  1.00  0.00     0.135 C 
HETATM   20  O1  UNL     1      24.412   8.052  47.464  1.00  0.00    -0.359 OA
HETATM   21  C15 UNL     1      25.515   8.269  48.307  1.00  0.00     0.214 C 
HETATM   22  C16 UNL     1      26.436   7.106  48.394  1.00  0.00    -0.019 A 
HETATM   23  C17 UNL     1      27.733   7.538  48.155  1.00  0.00     0.010 A 
HETATM   24  C21 UNL     1      26.288   5.759  48.647  1.00  0.00     0.038 A 
HETATM   25  C18 UNL     1      28.804   6.670  48.171  1.00  0.00     0.004 A 
HETATM   26  C19 UNL     1      28.621   5.306  48.431  1.00  0.00     0.043 A 
HETATM   27  C20 UNL     1      27.343   4.875  48.667  1.00  0.00     0.129 A 
HETATM   28  F1  UNL     1      27.248   3.556  48.903  1.00  0.00    -0.205 F 
ENDBRANCH   1  16
TORSDOF 5
ENDMDL
MODEL 5
REMARK VINA RESULT:      -8.7      3.103      6.036
REMARK  5 active torsions:
REMARK  status: ('A' for Active; 'I' for Inactive)
REMARK    1  A    between atoms: C3_3  and  C4_4 
REMARK    2  A    between atoms: C5_5  and  C6_6 
REMARK    3  A    between atoms: C7_7  and  C8_8 
REMARK    4  A    between atoms: C10_10  and  N1_11 
REMARK    5  A    between atoms: N1_11  and  C11_12 
ROOT
HETATM    1  N1  UNL     1      25.162  -1.314  52.562  1.00  0.00    -0.340 N 
HETATM    2  H11 UNL     1      25.161  -2.277  52.098  1.00  0.00     0.167 HD
ENDROOT
BRANCH   1   3
HETATM    3  C10 UNL     1      24.036  -1.084  53.449  1.00  0.00     0.131 A 
HETATM    4  C9  UNL     1      22.806  -0.670  52.988  1.00  0.00     0.082 A 
HETATM    5  C8  UNL     1      21.706  -0.432  53.758  1.00  0.00     0.061 A 
HETATM    6  N3  UNL     1      21.895  -0.633  55.071  1.00  0.00    -0.242 NA
HETATM    7  C22 UNL     1      23.062  -1.036  55.596  1.00  0.00     0.235 A 
HETATM    8  N2  UNL     1      24.116  -1.255  54.780  1.00  0.00    -0.224 NA
BRANCH   5   9
HETATM    9  C7  UNL     1      20.472   0.003  53.125  1.00  0.00     0.032 C 
HETATM   10  C6  UNL     1      20.255   1.177  52.562  1.00  0.00     0.002 C 
BRANCH  10  11
HETATM   11  C5  UNL     1      21.035   2.386  52.352  1.00  0.00     0.000 C 
HETATM   12  C4  UNL     1      21.864   2.766  51.397  1.00  0.00    -0.000 C 
BRANCH  12  13
HETATM   13  C3  UNL     1      22.152   1.920  50.269  1.00  0.00    -0.004 C 
HETATM   14  C2  UNL     1      22.877   2.398  49.258  1.00  0.00    -0.031 C 
HETATM   15  C1  UNL     1      23.353   3.787  49.343  1.00  0.00     0.036 C 
ENDBRANCH  12  13
ENDBRANCH  10  11
ENDBRANCH   5   9
ENDBRANCH   1   3
BRANCH   1  16
HETATM   16  C11 UNL     1      26.113  -0.229  52.463  1.00  0.00     0.047 C 
HETATM   17  C12 UNL     1      25.504   0.860  51.948  1.00  0.00     0.032 C 
HETATM   18  C13 UNL     1      25.876   2.248  51.597  1.00  0.00     0.026 C 
HETATM   19  C14 UNL     1      27.026   2.909  51.817  1.00  0.00     0.135 C 
HETATM   20  O1  UNL     1      28.251   2.644  52.401  1.00  0.00    -0.359 OA
HETATM   21  C15 UNL     1      28.648   1.880  53.512  1.00  0.00     0.214 C 
HETATM   22  C16 UNL     1      28.492   0.416  53.313  1.00  0.00    -0.019 A 
HETATM   23  C17 UNL     1      29.683  -0.215  53.646  1.00  0.00     0.010 A 
HETATM   24  C21 UNL     1      27.473  -0.411  52.891  1.00  0.00     0.038 A 
HETATM   25  C18 UNL     1      29.834  -1.582  53.558  1.00  0.00     0.004 A 
HETATM   26  C19 UNL     1      28.779  -2.395  53.125  1.00  0.00     0.043 A 
HETATM   27  C20 UNL     1      27.602  -1.778  52.795  1.00  0.00     0.129 A 
HETATM   28  F1  UNL     1      26.641  -2.623  52.385  1.00  0.00    -0.205 F 
ENDBRANCH   1  16
TORSDOF 5
ENDMDL
MODEL 6
REMARK VINA RESULT:      -8.5      3.160      7.213
REMARK  5 active torsions:
REMARK  status: ('A' for Active; 'I' for Inactive)
REMARK    1  A    between atoms: C3_3  and  C4_4 
REMARK    2  A    between atoms: C5_5  and  C6_6 
REMARK    3  A    between atoms: C7_7  and  C8_8 
REMARK    4  A    between atoms: C10_10  and  N1_11 
REMARK    5  A    between atoms: N1_11  and  C11_12 
ROOT
HETATM    1  N1  UNL     1      21.400   2.047  50.739  1.00  0.00    -0.340 N 
HETATM    2  H11 UNL     1      20.737   2.127  49.904  1.00  0.00     0.167 HD
ENDROOT
BRANCH   1   3
HETATM    3  C10 UNL     1      22.282   3.188  50.905  1.00  0.00     0.131 A 
HETATM    4  C9  UNL     1      23.601   3.164  50.510  1.00  0.00     0.082 A 
HETATM    5  C8  UNL     1      24.488   4.191  50.635  1.00  0.00     0.061 A 
HETATM    6  N3  UNL     1      23.980   5.297  51.198  1.00  0.00    -0.242 NA
HETATM    7  C22 UNL     1      22.706   5.398  51.608  1.00  0.00     0.235 A 
HETATM    8  N2  UNL     1      21.875   4.344  51.457  1.00  0.00    -0.224 NA
BRANCH   5   9
HETATM    9  C7  UNL     1      25.855   4.016  50.170  1.00  0.00     0.032 C 
HETATM   10  C6  UNL     1      26.654   3.007  50.461  1.00  0.00     0.002 C 
BRANCH  10  11
HETATM   11  C5  UNL     1      26.547   1.796  51.259  1.00  0.00     0.000 C 
HETATM   12  C4  UNL     1      27.011   1.460  52.449  1.00  0.00    -0.000 C 
BRANCH  12  13
HETATM   13  C3  UNL     1      27.797   2.374  53.237  1.00  0.00    -0.004 C 
HETATM   14  C2  UNL     1      28.913   1.942  53.824  1.00  0.00    -0.031 C 
HETATM   15  C1  UNL     1      29.293   0.534  53.637  1.00  0.00     0.036 C 
ENDBRANCH  12  13
ENDBRANCH  10  11
ENDBRANCH   5   9
ENDBRANCH   1   3
BRANCH   1  16
HETATM   16  C11 UNL     1      21.532   1.003  51.730  1.00  0.00     0.047 C 
HETATM   17  C12 UNL     1      22.827   0.886  52.092  1.00  0.00     0.032 C 
HETATM   18  C13 UNL     1      23.625   0.053  53.019  1.00  0.00     0.026 C 
HETATM   19  C14 UNL     1      23.215  -0.845  53.933  1.00  0.00     0.135 C 
HETATM   20  O1  UNL     1      22.011  -1.352  54.386  1.00  0.00    -0.359 OA
HETATM   21  C15 UNL     1      20.738  -0.792  54.580  1.00  0.00     0.214 C 
HETATM   22  C16 UNL     1      20.044  -0.438  53.315  1.00  0.00    -0.019 A 
HETATM   23  C17 UNL     1      18.767  -0.983  53.331  1.00  0.00     0.010 A 
HETATM   24  C21 UNL     1      20.377   0.278  52.185  1.00  0.00     0.038 A 
HETATM   25  C18 UNL     1      17.891  -0.817  52.281  1.00  0.00     0.004 A 
HETATM   26  C19 UNL     1      18.259  -0.083  51.146  1.00  0.00     0.043 A 
HETATM   27  C20 UNL     1      19.517   0.457  51.125  1.00  0.00     0.129 A 
HETATM   28  F1  UNL     1      19.797   1.140  50.003  1.00  0.00    -0.205 F 
ENDBRANCH   1  16
TORSDOF 5
ENDMDL
MODEL 7
REMARK VINA RESULT:      -8.3      3.014      8.149
REMARK  5 active torsions:
REMARK  status: ('A' for Active; 'I' for Inactive)
REMARK    1  A    between atoms: C3_3  and  C4_4 
REMARK    2  A    between atoms: C5_5  and  C6_6 
REMARK    3  A    between atoms: C7_7  and  C8_8 
REMARK    4  A    between atoms: C10_10  and  N1_11 
REMARK    5  A    between atoms: N1_11  and  C11_12 
ROOT
HETATM    1  N1  UNL     1      22.470   1.983  50.423  1.00  0.00    -0.340 N 
HETATM    2  H11 UNL     1      21.896   1.953  49.521  1.00  0.00     0.167 HD
ENDROOT
BRANCH   1   3
HETATM    3  C10 UNL     1      23.360   3.126  50.519  1.00  0.00     0.131 A 
HETATM    4  C9  UNL     1      24.611   3.137  49.947  1.00  0.00     0.082 A 
HETATM    5  C8  UNL     1      25.501   4.169  49.997  1.00  0.00     0.061 A 
HETATM    6  N3  UNL     1      25.068   5.242  50.676  1.00  0.00    -0.242 NA
HETATM    7  C22 UNL     1      23.862   5.307  51.261  1.00  0.00     0.235 A 
HETATM    8  N2  UNL     1      23.025   4.251  51.177  1.00  0.00    -0.224 NA
BRANCH   5   9
HETATM    9  C7  UNL     1      26.792   4.032  49.341  1.00  0.00     0.032 C 
HETATM   10  C6  UNL     1      27.422   4.970  48.658  1.00  0.00     0.002 C 
BRANCH  10  11
HETATM   11  C5  UNL     1      27.154   6.354  48.306  1.00  0.00     0.000 C 
HETATM   12  C4  UNL     1      27.903   7.313  47.792  1.00  0.00    -0.000 C 
BRANCH  12  13
HETATM   13  C3  UNL     1      29.286   7.091  47.461  1.00  0.00    -0.004 C 
HETATM   14  C2  UNL     1      29.790   7.633  46.352  1.00  0.00    -0.031 C 
HETATM   15  C1  UNL     1      28.898   8.442  45.509  1.00  0.00     0.036 C 
ENDBRANCH  12  13
ENDBRANCH  10  11
ENDBRANCH   5   9
ENDBRANCH   1   3
BRANCH   1  16
HETATM   16  C11 UNL     1      22.476   1.087  51.558  1.00  0.00     0.047 C 
HETATM   17  C12 UNL     1      23.743   0.914  51.989  1.00  0.00     0.032 C 
HETATM   18  C13 UNL     1      24.432   0.160  53.059  1.00  0.00     0.026 C 
HETATM   19  C14 UNL     1      23.915  -0.558  54.072  1.00  0.00     0.135 C 
HETATM   20  O1  UNL     1      22.656  -0.889  54.539  1.00  0.00    -0.359 OA
HETATM   21  C15 UNL     1      21.433  -0.200  54.595  1.00  0.00     0.214 C 
HETATM   22  C16 UNL     1      20.814   0.024  53.263  1.00  0.00    -0.019 A 
HETATM   23  C17 UNL     1      19.494  -0.402  53.301  1.00  0.00     0.010 A 
HETATM   24  C21 UNL     1      21.246   0.537  52.059  1.00  0.00     0.038 A 
HETATM   25  C18 UNL     1      18.669  -0.316  52.200  1.00  0.00     0.004 A 
HETATM   26  C19 UNL     1      19.138   0.210  50.990  1.00  0.00     0.043 A 
HETATM   27  C20 UNL     1      20.439   0.632  50.947  1.00  0.00     0.129 A 
HETATM   28  F1  UNL     1      20.816   1.119  49.753  1.00  0.00    -0.205 F 
ENDBRANCH   1  16
TORSDOF 5
ENDMDL
MODEL 8
REMARK VINA RESULT:      -8.3      2.825      4.234
REMARK  5 active torsions:
REMARK  status: ('A' for Active; 'I' for Inactive)
REMARK    1  A    between atoms: C3_3  and  C4_4 
REMARK    2  A    between atoms: C5_5  and  C6_6 
REMARK    3  A    between atoms: C7_7  and  C8_8 
REMARK    4  A    between atoms: C10_10  and  N1_11 
REMARK    5  A    between atoms: N1_11  and  C11_12 
ROOT
HETATM    1  N1  UNL     1      24.096   2.835  50.494  1.00  0.00    -0.340 N 
HETATM    2  H11 UNL     1      25.081   2.705  50.889  1.00  0.00     0.167 HD
ENDROOT
BRANCH   1   3
HETATM    3  C10 UNL     1      23.040   2.357  51.370  1.00  0.00     0.131 A 
HETATM    4  C9  UNL     1      23.066   1.105  51.941  1.00  0.00     0.082 A 
HETATM    5  C8  UNL     1      22.113   0.587  52.768  1.00  0.00     0.061 A 
HETATM    6  N3  UNL     1      21.084   1.412  53.012  1.00  0.00    -0.242 NA
HETATM    7  C22 UNL     1      20.988   2.646  52.493  1.00  0.00     0.235 A 
HETATM    8  N2  UNL     1      21.964   3.102  51.680  1.00  0.00    -0.224 NA
BRANCH   5   9
HETATM    9  C7  UNL     1      22.280  -0.757  53.296  1.00  0.00     0.032 C 
HETATM   10  C6  UNL     1      23.282  -1.184  54.042  1.00  0.00     0.002 C 
BRANCH  10  11
HETATM   11  C5  UNL     1      24.491  -0.592  54.591  1.00  0.00     0.000 C 
HETATM   12  C4  UNL     1      25.723  -0.475  54.132  1.00  0.00    -0.000 C 
BRANCH  12  13
HETATM   13  C3  UNL     1      26.097  -0.988  52.839  1.00  0.00    -0.004 C 
HETATM   14  C2  UNL     1      26.655  -0.172  51.946  1.00  0.00    -0.031 C 
HETATM   15  C1  UNL     1      26.865   1.233  52.326  1.00  0.00     0.036 C 
ENDBRANCH  12  13
ENDBRANCH  10  11
ENDBRANCH   5   9
ENDBRANCH   1   3
BRANCH   1  16
HETATM   16  C11 UNL     1      23.658   3.427  49.251  1.00  0.00     0.047 C 
HETATM   17  C12 UNL     1      22.867   2.557  48.589  1.00  0.00     0.032 C 
HETATM   18  C13 UNL     1      22.116   2.523  47.315  1.00  0.00     0.026 C 
HETATM   19  C14 UNL     1      21.910   3.501  46.416  1.00  0.00     0.135 C 
HETATM   20  O1  UNL     1      22.254   4.832  46.270  1.00  0.00    -0.359 OA
HETATM   21  C15 UNL     1      22.406   5.897  47.175  1.00  0.00     0.214 C 
HETATM   22  C16 UNL     1      23.582   5.752  48.072  1.00  0.00    -0.019 A 
HETATM   23  C17 UNL     1      24.327   6.923  48.033  1.00  0.00     0.010 A 
HETATM   24  C21 UNL     1      24.069   4.758  48.892  1.00  0.00     0.038 A 
HETATM   25  C18 UNL     1      25.481   7.077  48.770  1.00  0.00     0.004 A 
HETATM   26  C19 UNL     1      25.950   6.047  49.595  1.00  0.00     0.043 A 
HETATM   27  C20 UNL     1      25.219   4.890  49.637  1.00  0.00     0.129 A 
HETATM   28  F1  UNL     1      25.735   3.949  50.445  1.00  0.00    -0.205 F 
ENDBRANCH   1  16
TORSDOF 5
ENDMDL
MODEL 9
REMARK VINA RESULT:      -8.3      3.023      7.418
REMARK  5 active torsions:
REMARK  status: ('A' for Active; 'I' for Inactive)
REMARK    1  A    between atoms: C3_3  and  C4_4 
REMARK    2  A    between atoms: C5_5  and  C6_6 
REMARK    3  A    between atoms: C7_7  and  C8_8 
REMARK    4  A    between atoms: C10_10  and  N1_11 
REMARK    5  A    between atoms: N1_11  and  C11_12 
ROOT
HETATM    1  N1  UNL     1      23.454   1.573  51.282  1.00  0.00    -0.340 N 
HETATM    2  H11 UNL     1      22.734   1.304  50.539  1.00  0.00     0.167 HD
ENDROOT
BRANCH   1   3
HETATM    3  C10 UNL     1      23.630   3.006  51.442  1.00  0.00     0.131 A 
HETATM    4  C9  UNL     1      24.270   3.780  50.500  1.00  0.00     0.082 A 
HETATM    5  C8  UNL     1      24.475   5.125  50.581  1.00  0.00     0.061 A 
HETATM    6  N3  UNL     1      23.992   5.693  51.696  1.00  0.00    -0.242 NA
HETATM    7  C22 UNL     1      23.358   5.007  52.659  1.00  0.00     0.235 A 
HETATM    8  N2  UNL     1      23.185   3.674  52.520  1.00  0.00    -0.224 NA
BRANCH   5   9
HETATM    9  C7  UNL     1      25.170   5.808  49.502  1.00  0.00     0.032 C 
HETATM   10  C6  UNL     1      24.622   6.287  48.401  1.00  0.00     0.002 C 
BRANCH  10  11
HETATM   11  C5  UNL     1      23.277   6.341  47.851  1.00  0.00     0.000 C 
HETATM   12  C4  UNL     1      22.181   6.980  48.218  1.00  0.00    -0.000 C 
BRANCH  12  13
HETATM   13  C3  UNL     1      22.160   7.835  49.376  1.00  0.00    -0.004 C 
HETATM   14  C2  UNL     1      20.995   8.126  49.955  1.00  0.00    -0.031 C 
HETATM   15  C1  UNL     1      19.771   7.553  49.376  1.00  0.00     0.036 C 
ENDBRANCH  12  13
ENDBRANCH  10  11
ENDBRANCH   5   9
ENDBRANCH   1   3
BRANCH   1  16
HETATM   16  C11 UNL     1      24.248   0.743  52.159  1.00  0.00     0.047 C 
HETATM   17  C12 UNL     1      25.553   0.862  51.834  1.00  0.00     0.032 C 
HETATM   18  C13 UNL     1      26.844   0.315  52.305  1.00  0.00     0.026 C 
HETATM   19  C14 UNL     1      27.109  -0.458  53.373  1.00  0.00     0.135 C 
HETATM   20  O1  UNL     1      26.395  -1.035  54.408  1.00  0.00    -0.359 OA
HETATM   21  C15 UNL     1      25.284  -0.624  55.164  1.00  0.00     0.214 C 
HETATM   22  C16 UNL     1      24.017  -0.589  54.389  1.00  0.00    -0.019 A 
HETATM   23  C17 UNL     1      23.041  -1.287  55.086  1.00  0.00     0.010 A 
HETATM   24  C21 UNL     1      23.621  -0.040  53.188  1.00  0.00     0.038 A 
HETATM   25  C18 UNL     1      21.757  -1.423  54.605  1.00  0.00     0.004 A 
HETATM   26  C19 UNL     1      21.385  -0.853  53.380  1.00  0.00     0.043 A 
HETATM   27  C20 UNL     1      22.344  -0.162  52.688  1.00  0.00     0.129 A 
HETATM   28  F1  UNL     1      21.913   0.349  51.523  1.00  0.00    -0.205 F 
ENDBRANCH   1  16
TORSDOF 5
ENDMDL
