MODEL 1
REMARK VINA RESULT:      -7.4      0.000      0.000
REMARK  8 active torsions:
REMARK  status: ('A' for Active; 'I' for Inactive)
REMARK    1  A    between atoms: C3_3  and  C4_4 
REMARK    2  A    between atoms: C5_5  and  N1_6 
REMARK    3  A    between atoms: N1_6  and  C6_7 
REMARK    4  A    between atoms: C9_12  and  C11_14 
REMARK    5  A    between atoms: C10_13  and  C11_14 
REMARK    6  A    between atoms: C13_16  and  C14_17 
REMARK    7  A    between atoms: C14_17  and  C15_18 
REMARK    8  A    between atoms: C15_18  and  O1_19 
ROOT
HETATM    1  C1  UNL     1      27.172   4.332  48.942  1.00  0.00     0.018 C 
HETATM    2  C2  UNL     1      26.363   5.229  49.041  1.00  0.00    -0.077 C 
HETATM    3  C3  UNL     1      25.427   6.298  49.145  1.00  0.00     0.028 C 
HETATM    4  C17 UNL     1      25.020   7.042  48.131  1.00  0.00     0.114 C 
HETATM    5  C18 UNL     1      24.082   8.114  48.252  1.00  0.00     0.089 C 
HETATM    6  N4  UNL     1      23.298   8.982  48.355  1.00  0.00    -0.192 NA
ENDROOT
BRANCH   3   7
HETATM    7  C4  UNL     1      24.844   6.555  50.461  1.00  0.00     0.038 C 
HETATM    8  C5  UNL     1      24.354   5.578  51.193  1.00  0.00     0.091 C 
BRANCH   8   9
HETATM    9  N1  UNL     1      23.736   5.613  52.509  1.00  0.00    -0.352 N 
HETATM   10  H4  UNL     1      23.585   6.047  53.429  1.00  0.00     0.166 HD
BRANCH   9  11
HETATM   11  C6  UNL     1      22.960   4.456  52.452  1.00  0.00     0.141 A 
HETATM   12  N2  UNL     1      21.682   4.241  52.055  1.00  0.00    -0.246 NA
HETATM   13  C7  UNL     1      21.377   2.759  52.124  1.00  0.00     0.392 A 
HETATM   14  N3  UNL     1      22.713   2.245  52.530  1.00  0.00     0.002 N 
HETATM   15  C8  UNL     1      23.964   1.710  52.945  1.00  0.00     0.208 A 
HETATM   16  C11 UNL     1      23.638   1.640  52.851  1.00  0.00     0.204 A 
HETATM   17  C10 UNL     1      23.507   3.087  52.714  1.00  0.00     0.237 A 
HETATM   18  C9  UNL     1      24.888   2.862  53.151  1.00  0.00     0.121 A 
HETATM   19  C13 UNL     1      24.520   0.468  53.193  1.00  0.00    -0.039 A 
HETATM   20  C12 UNL     1      23.237   0.269  52.815  1.00  0.00     0.021 A 
BRANCH  19  21
HETATM   21  C14 UNL     1      25.682  -0.332  53.585  1.00  0.00     0.063 C 
BRANCH  21  22
HETATM   22  C15 UNL     1      26.203   0.036  54.958  1.00  0.00     0.171 C 
BRANCH  22  23
HETATM   23  O1  UNL     1      27.428  -0.505  55.078  1.00  0.00    -0.396 OA
HETATM   24  C16 UNL     1      28.518   0.248  54.743  1.00  0.00     0.201 C 
ENDBRANCH  22  23
ENDBRANCH  21  22
ENDBRANCH  19  21
ENDBRANCH   9  11
ENDBRANCH   8   9
ENDBRANCH   3   7
TORSDOF 8
ENDMDL
MODEL 2
REMARK VINA RESULT:      -7.2      1.387      1.592
REMARK  8 active torsions:
REMARK  status: ('A' for Active; 'I' for Inactive)
REMARK    1  A    between atoms: C3_3  and  C4_4 
REMARK    2  A    between atoms: C5_5  and  N1_6 
REMARK    3  A    between atoms: N1_6  and  C6_7 
REMARK    4  A    between atoms: C9_12  and  C11_14 
REMARK    5  A    between atoms: C10_13  and  C11_14 
REMARK    6  A    between atoms: C13_16  and  C14_17 
REMARK    7  A    between atoms: C14_17  and  C15_18 
REMARK    8  A    between atoms: C15_18  and  O1_19 
ROOT
HETATM    1  C1  UNL     1      23.069   5.693  47.744  1.00  0.00     0.018 C 
HETATM    2  C2  UNL     1      23.804   6.362  48.437  1.00  0.00    -0.077 C 
HETATM    3  C3  UNL     1      24.684   7.149  49.235  1.00  0.00     0.028 C 
HETATM    4  C17 UNL     1      25.284   8.253  48.826  1.00  0.00     0.114 C 
HETATM    5  C18 UNL     1      26.168   9.030  49.637  1.00  0.00     0.089 C 
HETATM    6  N4  UNL     1      26.880   9.674  50.314  1.00  0.00    -0.192 NA
ENDROOT
BRANCH   3   7
HETATM    7  C4  UNL     1      24.899   6.724  50.618  1.00  0.00     0.038 C 
HETATM    8  C5  UNL     1      23.932   6.177  51.322  1.00  0.00     0.091 C 
BRANCH   8   9
HETATM    9  N1  UNL     1      23.930   5.692  52.692  1.00  0.00    -0.352 N 
HETATM   10  H4  UNL     1      24.203   5.766  53.681  1.00  0.00     0.166 HD
BRANCH   9  11
HETATM   11  C6  UNL     1      23.147   4.548  52.552  1.00  0.00     0.141 A 
HETATM   12  N2  UNL     1      21.887   4.364  52.087  1.00  0.00    -0.246 NA
HETATM   13  C7  UNL     1      21.565   2.883  52.081  1.00  0.00     0.392 A 
HETATM   14  N3  UNL     1      22.875   2.338  52.529  1.00  0.00     0.002 N 
HETATM   15  C8  UNL     1      24.099   1.772  52.980  1.00  0.00     0.208 A 
HETATM   16  C11 UNL     1      23.778   1.710  52.869  1.00  0.00     0.204 A 
HETATM   17  C10 UNL     1      23.667   3.163  52.784  1.00  0.00     0.237 A 
HETATM   18  C9  UNL     1      25.023   2.905  53.276  1.00  0.00     0.121 A 
HETATM   19  C13 UNL     1      24.631   0.515  53.204  1.00  0.00    -0.039 A 
HETATM   20  C12 UNL     1      23.365   0.346  52.758  1.00  0.00     0.021 A 
BRANCH  19  21
HETATM   21  C14 UNL     1      25.765  -0.313  53.618  1.00  0.00     0.063 C 
BRANCH  21  22
HETATM   22  C15 UNL     1      26.132  -0.109  55.072  1.00  0.00     0.171 C 
BRANCH  22  23
HETATM   23  O1  UNL     1      27.299   0.560  55.099  1.00  0.00    -0.396 OA
HETATM   24  C16 UNL     1      28.365   0.055  54.409  1.00  0.00     0.201 C 
ENDBRANCH  22  23
ENDBRANCH  21  22
ENDBRANCH  19  21
ENDBRANCH   9  11
ENDBRANCH   8   9
ENDBRANCH   3   7
TORSDOF 8
ENDMDL
MODEL 3
REMARK VINA RESULT:      -7.1      4.494      8.221
REMARK  8 active torsions:
REMARK  status: ('A' for Active; 'I' for Inactive)
REMARK    1  A    between atoms: C3_3  and  C4_4 
REMARK    2  A    between atoms: C5_5  and  N1_6 
REMARK    3  A    between atoms: N1_6  and  C6_7 
REMARK    4  A    between atoms: C9_12  and  C11_14 
REMARK    5  A    between atoms: C10_13  and  C11_14 
REMARK    6  A    between atoms: C13_16  and  C14_17 
REMARK    7  A    between atoms: C14_17  and  C15_18 
REMARK    8  A    between atoms: C15_18  and  O1_19 
ROOT
HETATM    1  C1  UNL     1      15.939   0.367  51.765  1.00  0.00     0.018 C 
HETATM    2  C2  UNL     1      16.216  -0.718  52.230  1.00  0.00    -0.077 C 
HETATM    3  C3  UNL     1      16.519  -1.994  52.787  1.00  0.00     0.028 C 
HETATM    4  C17 UNL     1      15.754  -3.065  52.672  1.00  0.00     0.114 C 
HETATM    5  C18 UNL     1      16.070  -4.338  53.240  1.00  0.00     0.089 C 
HETATM    6  N4  UNL     1      16.345  -5.386  53.694  1.00  0.00    -0.192 NA
ENDROOT
BRANCH   3   7
HETATM    7  C4  UNL     1      17.792  -2.132  53.495  1.00  0.00     0.038 C 
HETATM    8  C5  UNL     1      18.694  -1.175  53.472  1.00  0.00     0.091 C 
BRANCH   8   9
HETATM    9  N1  UNL     1      20.005  -1.110  54.096  1.00  0.00    -0.352 N 
HETATM   10  H4  UNL     1      20.698  -1.426  54.786  1.00  0.00     0.166 HD
BRANCH   9  11
HETATM   11  C6  UNL     1      20.588  -0.090  53.345  1.00  0.00     0.141 A 
HETATM   12  N2  UNL     1      20.056   0.970  52.690  1.00  0.00    -0.246 NA
HETATM   13  C7  UNL     1      21.171   1.812  52.106  1.00  0.00     0.392 A 
HETATM   14  N3  UNL     1      22.349   1.071  52.633  1.00  0.00     0.002 N 
HETATM   15  C8  UNL     1      23.505   0.381  53.092  1.00  0.00     0.208 A 
HETATM   16  C11 UNL     1      23.384   0.653  52.916  1.00  0.00     0.204 A 
HETATM   17  C10 UNL     1      22.068   0.109  53.239  1.00  0.00     0.237 A 
HETATM   18  C9  UNL     1      23.031  -0.818  53.840  1.00  0.00     0.121 A 
HETATM   19  C13 UNL     1      24.880   0.521  53.029  1.00  0.00    -0.039 A 
HETATM   20  C12 UNL     1      24.335   1.564  52.361  1.00  0.00     0.021 A 
BRANCH  19  21
HETATM   21  C14 UNL     1      26.210   0.023  53.384  1.00  0.00     0.063 C 
BRANCH  21  22
HETATM   22  C15 UNL     1      26.575   0.317  54.823  1.00  0.00     0.171 C 
BRANCH  22  23
HETATM   23  O1  UNL     1      27.716  -0.344  55.088  1.00  0.00    -0.396 OA
HETATM   24  C16 UNL     1      28.762  -0.232  54.216  1.00  0.00     0.201 C 
ENDBRANCH  22  23
ENDBRANCH  21  22
ENDBRANCH  19  21
ENDBRANCH   9  11
ENDBRANCH   8   9
ENDBRANCH   3   7
TORSDOF 8
ENDMDL
MODEL 4
REMARK VINA RESULT:      -7.0      2.141      2.703
REMARK  8 active torsions:
REMARK  status: ('A' for Active; 'I' for Inactive)
REMARK    1  A    between atoms: C3_3  and  C4_4 
REMARK    2  A    between atoms: C5_5  and  N1_6 
REMARK    3  A    between atoms: N1_6  and  C6_7 
REMARK    4  A    between atoms: C9_12  and  C11_14 
REMARK    5  A    between atoms: C10_13  and  C11_14 
REMARK    6  A    between atoms: C13_16  and  C14_17 
REMARK    7  A    between atoms: C14_17  and  C15_18 
REMARK    8  A    between atoms: C15_18  and  O1_19 
ROOT
HETATM    1  C1  UNL     1      22.325   8.114  49.609  1.00  0.00     0.018 C 
HETATM    2  C2  UNL     1      23.529   8.170  49.742  1.00  0.00    -0.077 C 
HETATM    3  C3  UNL     1      24.945   8.245  49.876  1.00  0.00     0.028 C 
HETATM    4  C17 UNL     1      25.670   9.314  49.602  1.00  0.00     0.114 C 
HETATM    5  C18 UNL     1      27.092   9.373  49.738  1.00  0.00     0.089 C 
HETATM    6  N4  UNL     1      28.258   9.420  49.869  1.00  0.00    -0.192 NA
ENDROOT
BRANCH   3   7
HETATM    7  C4  UNL     1      25.633   7.065  50.399  1.00  0.00     0.038 C 
HETATM    8  C5  UNL     1      25.636   5.927  49.739  1.00  0.00     0.091 C 
BRANCH   8   9
HETATM    9  N1  UNL     1      26.247   4.651  50.075  1.00  0.00    -0.352 N 
HETATM   10  H4  UNL     1      27.065   4.037  50.180  1.00  0.00     0.166 HD
BRANCH   9  11
HETATM   11  C6  UNL     1      25.117   3.920  50.433  1.00  0.00     0.141 A 
HETATM   12  N2  UNL     1      23.821   4.005  50.045  1.00  0.00    -0.246 NA
HETATM   13  C7  UNL     1      23.026   2.893  50.698  1.00  0.00     0.392 A 
HETATM   14  N3  UNL     1      24.124   2.180  51.405  1.00  0.00     0.002 N 
HETATM   15  C8  UNL     1      25.135   1.481  52.121  1.00  0.00     0.208 A 
HETATM   16  C11 UNL     1      24.799   1.493  52.035  1.00  0.00     0.204 A 
HETATM   17  C10 UNL     1      25.170   2.695  51.294  1.00  0.00     0.237 A 
HETATM   18  C9  UNL     1      26.412   2.222  51.912  1.00  0.00     0.121 A 
HETATM   19  C13 UNL     1      25.240   0.355  52.917  1.00  0.00    -0.039 A 
HETATM   20  C12 UNL     1      23.946   0.463  52.538  1.00  0.00     0.021 A 
BRANCH  19  21
HETATM   21  C14 UNL     1      26.075  -0.546  53.715  1.00  0.00     0.063 C 
BRANCH  21  22
HETATM   22  C15 UNL     1      26.390   0.017  55.084  1.00  0.00     0.171 C 
BRANCH  22  23
HETATM   23  O1  UNL     1      27.454   0.827  54.947  1.00  0.00    -0.396 OA
HETATM   24  C16 UNL     1      28.641   0.293  54.528  1.00  0.00     0.201 C 
ENDBRANCH  22  23
ENDBRANCH  21  22
ENDBRANCH  19  21
ENDBRANCH   9  11
ENDBRANCH   8   9
ENDBRANCH   3   7
TORSDOF 8
ENDMDL
MODEL 5
REMARK VINA RESULT:      -6.9      2.476      3.277
REMARK  8 active torsions:
REMARK  status: ('A' for Active; 'I' for Inactive)
REMARK    1  A    between atoms: C3_3  and  C4_4 
REMARK    2  A    between atoms: C5_5  and  N1_6 
REMARK    3  A    between atoms: N1_6  and  C6_7 
REMARK    4  A    between atoms: C9_12  and  C11_14 
REMARK    5  A    between atoms: C10_13  and  C11_14 
REMARK    6  A    between atoms: C13_16  and  C14_17 
REMARK    7  A    between atoms: C14_17  and  C15_18 
REMARK    8  A    between atoms: C15_18  and  O1_19 
ROOT
HETATM    1  C1  UNL     1      24.786   7.280  48.494  1.00  0.00     0.018 C 
HETATM    2  C2  UNL     1      25.819   6.646  48.516  1.00  0.00    -0.077 C 
HETATM    3  C3  UNL     1      27.037   5.907  48.519  1.00  0.00     0.028 C 
HETATM    4  C17 UNL     1      28.194   6.363  48.074  1.00  0.00     0.114 C 
HETATM    5  C18 UNL     1      29.408   5.608  48.079  1.00  0.00     0.089 C 
HETATM    6  N4  UNL     1      30.405   4.988  48.103  1.00  0.00    -0.192 NA
ENDROOT
BRANCH   3   7
HETATM    7  C4  UNL     1      27.007   4.565  49.100  1.00  0.00     0.038 C 
HETATM    8  C5  UNL     1      26.024   4.183  49.885  1.00  0.00     0.091 C 
BRANCH   8   9
HETATM    9  N1  UNL     1      25.803   2.914  50.560  1.00  0.00    -0.352 N 
HETATM   10  H4  UNL     1      26.110   1.978  50.854  1.00  0.00     0.166 HD
BRANCH   9  11
HETATM   11  C6  UNL     1      24.509   3.108  51.041  1.00  0.00     0.141 A 
HETATM   12  N2  UNL     1      23.617   4.112  50.860  1.00  0.00    -0.246 NA
HETATM   13  C7  UNL     1      22.318   3.761  51.556  1.00  0.00     0.392 A 
HETATM   14  N3  UNL     1      22.653   2.396  52.043  1.00  0.00     0.002 N 
HETATM   15  C8  UNL     1      22.937   1.098  52.551  1.00  0.00     0.208 A 
HETATM   16  C11 UNL     1      22.700   1.349  52.519  1.00  0.00     0.204 A 
HETATM   17  C10 UNL     1      23.752   2.067  51.806  1.00  0.00     0.237 A 
HETATM   18  C9  UNL     1      24.352   0.788  52.197  1.00  0.00     0.121 A 
HETATM   19  C13 UNL     1      22.281   0.101  53.251  1.00  0.00    -0.039 A 
HETATM   20  C12 UNL     1      21.407   1.119  53.081  1.00  0.00     0.021 A 
BRANCH  19  21
HETATM   21  C14 UNL     1      22.305  -1.232  53.855  1.00  0.00     0.063 C 
BRANCH  21  22
HETATM   22  C15 UNL     1      22.973  -1.243  55.212  1.00  0.00     0.171 C 
BRANCH  22  23
HETATM   23  O1  UNL     1      24.291  -1.066  55.009  1.00  0.00    -0.396 OA
HETATM   24  C16 UNL     1      25.115  -0.946  56.093  1.00  0.00     0.201 C 
ENDBRANCH  22  23
ENDBRANCH  21  22
ENDBRANCH  19  21
ENDBRANCH   9  11
ENDBRANCH   8   9
ENDBRANCH   3   7
TORSDOF 8
ENDMDL
MODEL 6
REMARK VINA RESULT:      -6.8      2.954      4.209
REMARK  8 active torsions:
REMARK  status: ('A' for Active; 'I' for Inactive)
REMARK    1  A    between atoms: C3_3  and  C4_4 
REMARK    2  A    between atoms: C5_5  and  N1_6 
REMARK    3  A    between atoms: N1_6  and  C6_7 
REMARK    4  A    between atoms: C9_12  and  C11_14 
REMARK    5  A    between atoms: C10_13  and  C11_14 
REMARK    6  A    between atoms: C13_16  and  C14_17 
REMARK    7  A    between atoms: C14_17  and  C15_18 
REMARK    8  A    between atoms: C15_18  and  O1_19 
ROOT
HETATM    1  C1  UNL     1      22.182   1.681  48.030  1.00  0.00     0.018 C 
HETATM    2  C2  UNL     1      22.611   2.779  48.314  1.00  0.00    -0.077 C 
HETATM    3  C3  UNL     1      23.127   4.070  48.626  1.00  0.00     0.028 C 
HETATM    4  C17 UNL     1      23.034   5.127  47.838  1.00  0.00     0.114 C 
HETATM    5  C18 UNL     1      23.560   6.415  48.163  1.00  0.00     0.089 C 
HETATM    6  N4  UNL     1      23.979   7.476  48.444  1.00  0.00    -0.192 NA
ENDROOT
BRANCH   3   7
HETATM    7  C4  UNL     1      23.762   4.242  49.932  1.00  0.00     0.038 C 
HETATM    8  C5  UNL     1      24.860   3.592  50.248  1.00  0.00     0.091 C 
BRANCH   8   9
HETATM    9  N1  UNL     1      25.642   3.614  51.474  1.00  0.00    -0.352 N 
HETATM   10  H4  UNL     1      26.145   4.111  52.220  1.00  0.00     0.166 HD
BRANCH   9  11
HETATM   11  C6  UNL     1      25.727   2.249  51.741  1.00  0.00     0.141 A 
HETATM   12  N2  UNL     1      26.738   1.358  51.593  1.00  0.00    -0.246 NA
HETATM   13  C7  UNL     1      26.301   0.008  52.125  1.00  0.00     0.392 A 
HETATM   14  N3  UNL     1      24.953   0.366  52.643  1.00  0.00     0.002 N 
HETATM   15  C8  UNL     1      23.647   0.654  53.128  1.00  0.00     0.208 A 
HETATM   16  C11 UNL     1      23.894   0.414  53.092  1.00  0.00     0.204 A 
HETATM   17  C10 UNL     1      24.649   1.479  52.440  1.00  0.00     0.237 A 
HETATM   18  C9  UNL     1      23.368   2.085  52.815  1.00  0.00     0.121 A 
HETATM   19  C13 UNL     1      22.623  -0.008  53.781  1.00  0.00    -0.039 A 
HETATM   20  C12 UNL     1      23.632  -0.892  53.608  1.00  0.00     0.021 A 
BRANCH  19  21
HETATM   21  C14 UNL     1      21.284   0.023  54.372  1.00  0.00     0.063 C 
BRANCH  21  22
HETATM   22  C15 UNL     1      20.213  -0.442  53.409  1.00  0.00     0.171 C 
BRANCH  22  23
HETATM   23  O1  UNL     1      19.854   0.620  52.667  1.00  0.00    -0.396 OA
HETATM   24  C16 UNL     1      20.101   0.599  51.323  1.00  0.00     0.201 C 
ENDBRANCH  22  23
ENDBRANCH  21  22
ENDBRANCH  19  21
ENDBRANCH   9  11
ENDBRANCH   8   9
ENDBRANCH   3   7
TORSDOF 8
ENDMDL
MODEL 7
REMARK VINA RESULT:      -6.7      4.377      6.837
REMARK  8 active torsions:
REMARK  status: ('A' for Active; 'I' for Inactive)
REMARK    1  A    between atoms: C3_3  and  C4_4 
REMARK    2  A    between atoms: C5_5  and  N1_6 
REMARK    3  A    between atoms: N1_6  and  C6_7 
REMARK    4  A    between atoms: C9_12  and  C11_14 
REMARK    5  A    between atoms: C10_13  and  C11_14 
REMARK    6  A    between atoms: C13_16  and  C14_17 
REMARK    7  A    between atoms: C14_17  and  C15_18 
REMARK    8  A    between atoms: C15_18  and  O1_19 
ROOT
HETATM    1  C1  UNL     1      26.539  -0.881  52.908  1.00  0.00     0.018 C 
HETATM    2  C2  UNL     1      26.198   0.137  52.344  1.00  0.00    -0.077 C 
HETATM    3  C3  UNL     1      25.812   1.345  51.694  1.00  0.00     0.028 C 
HETATM    4  C17 UNL     1      26.654   2.224  51.181  1.00  0.00     0.114 C 
HETATM    5  C18 UNL     1      26.252   3.434  50.536  1.00  0.00     0.089 C 
HETATM    6  N4  UNL     1      25.914   4.419  49.991  1.00  0.00    -0.192 NA
ENDROOT
BRANCH   3   7
HETATM    7  C4  UNL     1      24.379   1.600  51.547  1.00  0.00     0.038 C 
HETATM    8  C5  UNL     1      23.653   2.016  52.561  1.00  0.00     0.091 C 
BRANCH   8   9
HETATM    9  N1  UNL     1      22.233   2.324  52.633  1.00  0.00    -0.352 N 
HETATM   10  H4  UNL     1      21.434   2.957  52.495  1.00  0.00     0.166 HD
BRANCH   9  11
HETATM   11  C6  UNL     1      21.744   1.128  53.155  1.00  0.00     0.141 A 
HETATM   12  N2  UNL     1      22.219   0.298  54.115  1.00  0.00    -0.246 NA
HETATM   13  C7  UNL     1      21.228  -0.826  54.342  1.00  0.00     0.392 A 
HETATM   14  N3  UNL     1      20.144  -0.397  53.418  1.00  0.00     0.002 N 
HETATM   15  C8  UNL     1      19.092  -0.042  52.529  1.00  0.00     0.208 A 
HETATM   16  C11 UNL     1      19.203  -0.266  52.768  1.00  0.00     0.204 A 
HETATM   17  C10 UNL     1      20.399   0.569  52.807  1.00  0.00     0.237 A 
HETATM   18  C9  UNL     1      19.525   1.189  51.807  1.00  0.00     0.121 A 
HETATM   19  C13 UNL     1      17.840  -0.513  52.176  1.00  0.00    -0.039 A 
HETATM   20  C12 UNL     1      18.334  -1.345  53.121  1.00  0.00     0.021 A 
BRANCH  19  21
HETATM   21  C14 UNL     1      16.625  -0.367  51.373  1.00  0.00     0.063 C 
BRANCH  21  22
HETATM   22  C15 UNL     1      15.693   0.693  51.919  1.00  0.00     0.171 C 
BRANCH  22  23
HETATM   23  O1  UNL     1      15.240   0.254  53.107  1.00  0.00    -0.396 OA
HETATM   24  C16 UNL     1      13.950   0.532  53.465  1.00  0.00     0.201 C 
ENDBRANCH  22  23
ENDBRANCH  21  22
ENDBRANCH  19  21
ENDBRANCH   9  11
ENDBRANCH   8   9
ENDBRANCH   3   7
TORSDOF 8
ENDMDL
MODEL 8
REMARK VINA RESULT:      -6.7      3.443      6.513
REMARK  8 active torsions:
REMARK  status: ('A' for Active; 'I' for Inactive)
REMARK    1  A    between atoms: C3_3  and  C4_4 
REMARK    2  A    between atoms: C5_5  and  N1_6 
REMARK    3  A    between atoms: N1_6  and  C6_7 
REMARK    4  A    between atoms: C9_12  and  C11_14 
REMARK    5  A    between atoms: C10_13  and  C11_14 
REMARK    6  A    between atoms: C13_16  and  C14_17 
REMARK    7  A    between atoms: C14_17  and  C15_18 
REMARK    8  A    between atoms: C15_18  and  O1_19 
ROOT
HETATM    1  C1  UNL     1      18.460   1.927  49.656  1.00  0.00     0.018 C 
HETATM    2  C2  UNL     1      18.528   1.079  50.520  1.00  0.00    -0.077 C 
HETATM    3  C3  UNL     1      18.588   0.091  51.545  1.00  0.00     0.028 C 
HETATM    4  C17 UNL     1      17.572  -0.665  51.920  1.00  0.00     0.114 C 
HETATM    5  C18 UNL     1      17.646  -1.650  52.953  1.00  0.00     0.089 C 
HETATM    6  N4  UNL     1      17.719  -2.470  53.792  1.00  0.00    -0.192 NA
ENDROOT
BRANCH   3   7
HETATM    7  C4  UNL     1      19.882  -0.128  52.191  1.00  0.00     0.038 C 
HETATM    8  C5  UNL     1      20.517   0.851  52.798  1.00  0.00     0.091 C 
BRANCH   8   9
HETATM    9  N1  UNL     1      21.794   0.851  53.491  1.00  0.00    -0.352 N 
HETATM   10  H4  UNL     1      22.373   0.692  54.326  1.00  0.00     0.166 HD
BRANCH   9  11
HETATM   11  C6  UNL     1      22.633   1.294  52.470  1.00  0.00     0.141 A 
HETATM   12  N2  UNL     1      22.382   1.951  51.312  1.00  0.00    -0.246 NA
HETATM   13  C7  UNL     1      23.690   2.259  50.614  1.00  0.00     0.392 A 
HETATM   14  N3  UNL     1      24.646   1.737  51.628  1.00  0.00     0.002 N 
HETATM   15  C8  UNL     1      25.597   1.228  52.555  1.00  0.00     0.208 A 
HETATM   16  C11 UNL     1      25.548   1.391  52.254  1.00  0.00     0.204 A 
HETATM   17  C10 UNL     1      24.127   1.237  52.551  1.00  0.00     0.237 A 
HETATM   18  C9  UNL     1      24.830   0.616  53.678  1.00  0.00     0.121 A 
HETATM   19  C13 UNL     1      26.972   1.155  52.682  1.00  0.00    -0.039 A 
HETATM   20  C12 UNL     1      26.707   1.792  51.519  1.00  0.00     0.021 A 
BRANCH  19  21
HETATM   21  C14 UNL     1      28.141   0.740  53.461  1.00  0.00     0.063 C 
BRANCH  21  22
HETATM   22  C15 UNL     1      28.588  -0.667  53.130  1.00  0.00     0.171 C 
BRANCH  22  23
HETATM   23  O1  UNL     1      27.574  -1.493  53.445  1.00  0.00    -0.396 OA
HETATM   24  C16 UNL     1      27.146  -2.398  52.514  1.00  0.00     0.201 C 
ENDBRANCH  22  23
ENDBRANCH  21  22
ENDBRANCH  19  21
ENDBRANCH   9  11
ENDBRANCH   8   9
ENDBRANCH   3   7
TORSDOF 8
ENDMDL
MODEL 9
REMARK VINA RESULT:      -6.7      1.859      2.722
REMARK  8 active torsions:
REMARK  status: ('A' for Active; 'I' for Inactive)
REMARK    1  A    between atoms: C3_3  and  C4_4 
REMARK    2  A    between atoms: C5_5  and  N1_6 
REMARK    3  A    between atoms: N1_6  and  C6_7 
REMARK    4  A    between atoms: C9_12  and  C11_14 
REMARK    5  A    between atoms: C10_13  and  C11_14 
REMARK    6  A    between atoms: C13_16  and  C14_17 
REMARK    7  A    between atoms: C14_17  and  C15_18 
REMARK    8  A    between atoms: C15_18  and  O1_19 
ROOT
HETATM    1  C1  UNL     1      23.728   7.661  47.483  1.00  0.00     0.018 C 
HETATM    2  C2  UNL     1      23.568   6.531  47.893  1.00  0.00    -0.077 C 
HETATM    3  C3  UNL     1      23.358   5.206  48.372  1.00  0.00     0.028 C 
HETATM    4  C17 UNL     1      22.614   4.297  47.766  1.00  0.00     0.114 C 
HETATM    5  C18 UNL     1      22.408   2.972  48.261  1.00  0.00     0.089 C 
HETATM    6  N4  UNL     1      22.258   1.879  48.665  1.00  0.00    -0.192 NA
ENDROOT
BRANCH   3   7
HETATM    7  C4  UNL     1      24.055   4.816  49.597  1.00  0.00     0.038 C 
HETATM    8  C5  UNL     1      23.614   5.184  50.780  1.00  0.00     0.091 C 
BRANCH   8   9
HETATM    9  N1  UNL     1      24.148   4.912  52.105  1.00  0.00    -0.352 N 
HETATM   10  H4  UNL     1      24.721   5.163  52.921  1.00  0.00     0.166 HD
BRANCH   9  11
HETATM   11  C6  UNL     1      23.556   3.677  52.365  1.00  0.00     0.141 A 
HETATM   12  N2  UNL     1      22.266   3.266  52.328  1.00  0.00    -0.246 NA
HETATM   13  C7  UNL     1      22.203   1.781  52.623  1.00  0.00     0.392 A 
HETATM   14  N3  UNL     1      23.657   1.484  52.730  1.00  0.00     0.002 N 
HETATM   15  C8  UNL     1      25.034   1.156  52.868  1.00  0.00     0.208 A 
HETATM   16  C11 UNL     1      24.709   1.037  52.868  1.00  0.00     0.204 A 
HETATM   17  C10 UNL     1      24.341   2.428  52.620  1.00  0.00     0.237 A 
HETATM   18  C9  UNL     1      25.804   2.424  52.714  1.00  0.00     0.121 A 
HETATM   19  C13 UNL     1      25.806   0.031  53.094  1.00  0.00    -0.039 A 
HETATM   20  C12 UNL     1      24.512  -0.363  53.075  1.00  0.00     0.021 A 
BRANCH  19  21
HETATM   21  C14 UNL     1      27.131  -0.570  53.261  1.00  0.00     0.063 C 
BRANCH  21  22
HETATM   22  C15 UNL     1      27.813  -0.127  54.537  1.00  0.00     0.171 C 
BRANCH  22  23
HETATM   23  O1  UNL     1      29.035   0.322  54.201  1.00  0.00    -0.396 OA
HETATM   24  C16 UNL     1      29.910  -0.536  53.595  1.00  0.00     0.201 C 
ENDBRANCH  22  23
ENDBRANCH  21  22
ENDBRANCH  19  21
ENDBRANCH   9  11
ENDBRANCH   8   9
ENDBRANCH   3   7
TORSDOF 8
ENDMDL
