MODEL 1
REMARK VINA RESULT:      -9.1      0.000      0.000
REMARK  4 active torsions:
REMARK  status: ('A' for Active; 'I' for Inactive)
REMARK    1  A    between atoms: O1_1  and  C1_2 
REMARK    2  A    between atoms: C3_5  and  N1_6 
REMARK    3  A    between atoms: C4_8  and  C5_9 
REMARK    4  A    between atoms: C12_17  and  C13_18 
ROOT
HETATM    1  N1  UNL     1      25.516   1.333  52.231  1.00  0.00    -0.236 N 
HETATM    2  N2  UNL     1      24.513   0.462  52.737  1.00  0.00    -0.173 NA
HETATM    3  C4  UNL     1      23.337   0.892  52.445  1.00  0.00     0.067 C 
HETATM    4  C11 UNL     1      23.500   2.175  51.667  1.00  0.00     0.094 C 
HETATM    5  C12 UNL     1      24.890   1.860  51.081  1.00  0.00     0.157 C 
ENDROOT
BRANCH   5   6
HETATM    6  C13 UNL     1      25.477   3.019  50.427  1.00  0.00    -0.005 A 
HETATM    7  C14 UNL     1      26.542   3.169  49.654  1.00  0.00     0.017 A 
HETATM    8  C15 UNL     1      27.040   4.396  49.047  1.00  0.00     0.025 A 
HETATM    9  C16 UNL     1      26.556   5.626  49.125  1.00  0.00     0.039 A 
HETATM   10 CL2  UNL     1      27.297   7.012  48.314  1.00  0.00    -0.084 Cl
HETATM   11  C17 UNL     1      25.334   5.895  49.918  1.00  0.00     0.060 A 
HETATM   12  S2  UNL     1      24.616   4.615  50.689  1.00  0.00    -0.173 SA
HETATM   13  H13 UNL     1      23.200   4.701  50.925  1.00  0.00     0.100 HD
ENDBRANCH   5   6
BRANCH   1  14
HETATM   14  C3  UNL     1      26.776   1.410  52.972  1.00  0.00     0.192 A 
HETATM   15  S1  UNL     1      27.177  -0.434  53.178  1.00  0.00    -0.058 SA
HETATM   16  C2  UNL     1      28.766   0.008  54.117  1.00  0.00     0.111 A 
HETATM   17  C1  UNL     1      28.683   1.456  54.091  1.00  0.00     0.171 A 
HETATM   18  N3  UNL     1      27.626   1.937  53.479  1.00  0.00    -0.198 NA
BRANCH  17  19
HETATM   19  O1  UNL     1      29.548   2.441  54.614  1.00  0.00    -0.344 OA
HETATM   20  H1  UNL     1      29.547   3.379  54.227  1.00  0.00     0.219 HD
ENDBRANCH  17  19
ENDBRANCH   1  14
BRANCH   3  21
HETATM   21  C5  UNL     1      22.076   0.266  52.794  1.00  0.00    -0.010 A 
HETATM   22  C6  UNL     1      22.004  -0.605  53.854  1.00  0.00     0.015 A 
HETATM   23  C7  UNL     1      20.770  -1.174  54.134  1.00  0.00     0.024 A 
HETATM   24  C8  UNL     1      19.631  -0.901  53.396  1.00  0.00     0.034 A 
HETATM   25 CL1  UNL     1      18.081  -1.613  53.744  1.00  0.00    -0.084 Cl
HETATM   26  C9  UNL     1      19.700  -0.023  52.325  1.00  0.00     0.024 A 
HETATM   27  C10 UNL     1      20.944   0.545  52.050  1.00  0.00     0.015 A 
ENDBRANCH   3  21
TORSDOF 4
ENDMDL
MODEL 2
REMARK VINA RESULT:      -8.9      1.974      7.072
REMARK  4 active torsions:
REMARK  status: ('A' for Active; 'I' for Inactive)
REMARK    1  A    between atoms: O1_1  and  C1_2 
REMARK    2  A    between atoms: C3_5  and  N1_6 
REMARK    3  A    between atoms: C4_8  and  C5_9 
REMARK    4  A    between atoms: C12_17  and  C13_18 
ROOT
HETATM    1  N1  UNL     1      26.094   1.226  52.230  1.00  0.00    -0.236 N 
HETATM    2  N2  UNL     1      26.744   2.283  51.537  1.00  0.00    -0.173 NA
HETATM    3  C4  UNL     1      25.907   2.952  50.825  1.00  0.00     0.067 C 
HETATM    4  C11 UNL     1      24.545   2.331  51.018  1.00  0.00     0.094 C 
HETATM    5  C12 UNL     1      24.801   1.757  52.425  1.00  0.00     0.157 C 
ENDROOT
BRANCH   5   6
HETATM    6  C13 UNL     1      23.731   0.870  52.851  1.00  0.00    -0.005 A 
HETATM    7  C14 UNL     1      23.684  -0.126  53.722  1.00  0.00     0.017 A 
HETATM    8  C15 UNL     1      22.538  -0.956  54.072  1.00  0.00     0.025 A 
HETATM    9  C16 UNL     1      21.299  -0.911  53.607  1.00  0.00     0.039 A 
HETATM   10 CL2  UNL     1      20.022  -2.007  54.151  1.00  0.00    -0.084 Cl
HETATM   11  C17 UNL     1      20.924   0.093  52.585  1.00  0.00     0.060 A 
HETATM   12  S2  UNL     1      22.100   1.136  52.058  1.00  0.00    -0.173 SA
HETATM   13  H13 UNL     1      21.671   2.423  51.582  1.00  0.00     0.100 HD
ENDBRANCH   5   6
BRANCH   1  14
HETATM   14  C3  UNL     1      26.882   0.026  52.517  1.00  0.00     0.192 A 
HETATM   15  S1  UNL     1      28.356   0.784  53.443  1.00  0.00    -0.058 SA
HETATM   16  C2  UNL     1      29.122  -0.940  53.651  1.00  0.00     0.111 A 
HETATM   17  C1  UNL     1      28.119  -1.747  52.983  1.00  0.00     0.171 A 
HETATM   18  N3  UNL     1      27.102  -1.073  52.499  1.00  0.00    -0.198 NA
BRANCH  17  19
HETATM   19  O1  UNL     1      28.048  -3.140  52.764  1.00  0.00    -0.344 OA
HETATM   20  H1  UNL     1      28.755  -3.755  53.154  1.00  0.00     0.219 HD
ENDBRANCH  17  19
ENDBRANCH   1  14
BRANCH   3  21
HETATM   21  C5  UNL     1      26.207   4.096  49.987  1.00  0.00    -0.010 A 
HETATM   22  C6  UNL     1      27.348   4.117  49.222  1.00  0.00     0.015 A 
HETATM   23  C7  UNL     1      27.580   5.242  48.445  1.00  0.00     0.024 A 
HETATM   24  C8  UNL     1      26.719   6.326  48.415  1.00  0.00     0.034 A 
HETATM   25 CL1  UNL     1      27.006   7.740  47.442  1.00  0.00    -0.084 Cl
HETATM   26  C9  UNL     1      25.567   6.310  49.186  1.00  0.00     0.024 A 
HETATM   27  C10 UNL     1      25.341   5.175  49.964  1.00  0.00     0.015 A 
ENDBRANCH   3  21
TORSDOF 4
ENDMDL
MODEL 3
REMARK VINA RESULT:      -8.5      2.815      4.823
REMARK  4 active torsions:
REMARK  status: ('A' for Active; 'I' for Inactive)
REMARK    1  A    between atoms: O1_1  and  C1_2 
REMARK    2  A    between atoms: C3_5  and  N1_6 
REMARK    3  A    between atoms: C4_8  and  C5_9 
REMARK    4  A    between atoms: C12_17  and  C13_18 
ROOT
HETATM    1  N1  UNL     1      24.253   1.720  52.046  1.00  0.00    -0.236 N 
HETATM    2  N2  UNL     1      22.834   1.735  51.965  1.00  0.00    -0.173 NA
HETATM    3  C4  UNL     1      22.344   0.578  52.243  1.00  0.00     0.067 C 
HETATM    4  C11 UNL     1      23.497  -0.345  52.549  1.00  0.00     0.094 C 
HETATM    5  C12 UNL     1      24.478   0.739  53.036  1.00  0.00     0.157 C 
ENDROOT
BRANCH   5   6
HETATM    6  C13 UNL     1      25.822   0.213  53.215  1.00  0.00    -0.005 A 
HETATM    7  C14 UNL     1      26.432  -0.868  52.753  1.00  0.00     0.017 A 
HETATM    8  C15 UNL     1      27.801  -1.299  53.004  1.00  0.00     0.025 A 
HETATM    9  C16 UNL     1      28.738  -0.723  53.741  1.00  0.00     0.039 A 
HETATM   10 CL2  UNL     1      30.363  -1.393  53.936  1.00  0.00    -0.084 Cl
HETATM   11  C17 UNL     1      28.452   0.545  54.450  1.00  0.00     0.060 A 
HETATM   12  S2  UNL     1      26.937   1.198  54.285  1.00  0.00    -0.173 SA
HETATM   13  H13 UNL     1      26.818   2.625  54.421  1.00  0.00     0.100 HD
ENDBRANCH   5   6
BRANCH   1  14
HETATM   14  C3  UNL     1      24.986   2.641  51.176  1.00  0.00     0.192 A 
HETATM   15  S1  UNL     1      23.548   3.545  50.329  1.00  0.00    -0.058 SA
HETATM   16  C2  UNL     1      24.780   4.594  49.338  1.00  0.00     0.111 A 
HETATM   17  C1  UNL     1      26.031   4.058  49.839  1.00  0.00     0.171 A 
HETATM   18  N3  UNL     1      25.905   3.107  50.734  1.00  0.00    -0.198 NA
BRANCH  17  19
HETATM   19  O1  UNL     1      27.368   4.386  49.527  1.00  0.00    -0.344 OA
HETATM   20  H1  UNL     1      28.051   3.652  49.368  1.00  0.00     0.219 HD
ENDBRANCH  17  19
ENDBRANCH   1  14
BRANCH   3  21
HETATM   21  C5  UNL     1      20.939   0.217  52.262  1.00  0.00    -0.010 A 
HETATM   22  C6  UNL     1      20.408  -0.448  53.339  1.00  0.00     0.015 A 
HETATM   23  C7  UNL     1      19.059  -0.769  53.295  1.00  0.00     0.024 A 
HETATM   24  C8  UNL     1      18.245  -0.450  52.220  1.00  0.00     0.034 A 
HETATM   25 CL1  UNL     1      16.553  -0.851  52.159  1.00  0.00    -0.084 Cl
HETATM   26  C9  UNL     1      18.779   0.220  51.130  1.00  0.00     0.024 A 
HETATM   27  C10 UNL     1      20.135   0.540  51.183  1.00  0.00     0.015 A 
ENDBRANCH   3  21
TORSDOF 4
ENDMDL
MODEL 4
REMARK VINA RESULT:      -8.5      2.216      7.500
REMARK  4 active torsions:
REMARK  status: ('A' for Active; 'I' for Inactive)
REMARK    1  A    between atoms: O1_1  and  C1_2 
REMARK    2  A    between atoms: C3_5  and  N1_6 
REMARK    3  A    between atoms: C4_8  and  C5_9 
REMARK    4  A    between atoms: C12_17  and  C13_18 
ROOT
HETATM    1  N1  UNL     1      25.883   2.379  51.160  1.00  0.00    -0.236 N 
HETATM    2  N2  UNL     1      26.834   3.313  50.665  1.00  0.00    -0.173 NA
HETATM    3  C4  UNL     1      26.339   4.008  49.703  1.00  0.00     0.067 C 
HETATM    4  C11 UNL     1      24.921   3.542  49.483  1.00  0.00     0.094 C 
HETATM    5  C12 UNL     1      24.665   3.049  50.920  1.00  0.00     0.157 C 
ENDROOT
BRANCH   5   6
HETATM    6  C13 UNL     1      23.419   2.306  51.024  1.00  0.00    -0.005 A 
HETATM    7  C14 UNL     1      22.587   1.817  50.117  1.00  0.00     0.017 A 
HETATM    8  C15 UNL     1      21.351   1.079  50.342  1.00  0.00     0.025 A 
HETATM    9  C16 UNL     1      20.779   0.733  51.484  1.00  0.00     0.039 A 
HETATM   10 CL2  UNL     1      19.262  -0.173  51.571  1.00  0.00    -0.084 Cl
HETATM   11  C17 UNL     1      21.409   1.100  52.773  1.00  0.00     0.060 A 
HETATM   12  S2  UNL     1      22.834   1.947  52.723  1.00  0.00    -0.173 SA
HETATM   13  H13 UNL     1      23.732   1.787  53.834  1.00  0.00     0.100 HD
ENDBRANCH   5   6
BRANCH   1  14
HETATM   14  C3  UNL     1      26.399   1.131  51.725  1.00  0.00     0.192 A 
HETATM   15  S1  UNL     1      27.661   1.803  52.974  1.00  0.00    -0.058 SA
HETATM   16  C2  UNL     1      28.107   0.031  53.488  1.00  0.00     0.111 A 
HETATM   17  C1  UNL     1      27.220  -0.717  52.619  1.00  0.00     0.171 A 
HETATM   18  N3  UNL     1      26.468   0.017  51.833  1.00  0.00    -0.198 NA
BRANCH  17  19
HETATM   19  O1  UNL     1      27.025  -2.108  52.473  1.00  0.00    -0.344 OA
HETATM   20  H1  UNL     1      26.298  -2.461  51.860  1.00  0.00     0.219 HD
ENDBRANCH  17  19
ENDBRANCH   1  14
BRANCH   3  21
HETATM   21  C5  UNL     1      27.014   5.053  48.957  1.00  0.00    -0.010 A 
HETATM   22  C6  UNL     1      26.335   6.187  48.582  1.00  0.00     0.015 A 
HETATM   23  C7  UNL     1      27.035   7.148  47.866  1.00  0.00     0.024 A 
HETATM   24  C8  UNL     1      28.369   7.005  47.522  1.00  0.00     0.034 A 
HETATM   25 CL1  UNL     1      29.251   8.207  46.624  1.00  0.00    -0.084 Cl
HETATM   26  C9  UNL     1      29.057   5.862  47.898  1.00  0.00     0.024 A 
HETATM   27  C10 UNL     1      28.346   4.902  48.617  1.00  0.00     0.015 A 
ENDBRANCH   3  21
TORSDOF 4
ENDMDL
MODEL 5
REMARK VINA RESULT:      -8.1      3.820      7.540
REMARK  4 active torsions:
REMARK  status: ('A' for Active; 'I' for Inactive)
REMARK    1  A    between atoms: O1_1  and  C1_2 
REMARK    2  A    between atoms: C3_5  and  N1_6 
REMARK    3  A    between atoms: C4_8  and  C5_9 
REMARK    4  A    between atoms: C12_17  and  C13_18 
ROOT
HETATM    1  N1  UNL     1      23.271   2.131  51.365  1.00  0.00    -0.236 N 
HETATM    2  N2  UNL     1      24.673   1.977  51.543  1.00  0.00    -0.173 NA
HETATM    3  C4  UNL     1      24.936   0.956  52.279  1.00  0.00     0.067 C 
HETATM    4  C11 UNL     1      23.622   0.321  52.664  1.00  0.00     0.094 C 
HETATM    5  C12 UNL     1      22.820   0.796  51.438  1.00  0.00     0.157 C 
ENDROOT
BRANCH   5   6
HETATM    6  C13 UNL     1      21.396   0.539  51.588  1.00  0.00    -0.005 A 
HETATM    7  C14 UNL     1      20.357   0.750  50.795  1.00  0.00     0.017 A 
HETATM    8  C15 UNL     1      18.956   0.447  51.057  1.00  0.00     0.025 A 
HETATM    9  C16 UNL     1      18.403  -0.097  52.129  1.00  0.00     0.039 A 
HETATM   10 CL2  UNL     1      16.666  -0.395  52.276  1.00  0.00    -0.084 Cl
HETATM   11  C17 UNL     1      19.246  -0.492  53.281  1.00  0.00     0.060 A 
HETATM   12  S2  UNL     1      20.879  -0.226  53.171  1.00  0.00    -0.173 SA
HETATM   13  H13 UNL     1      21.738  -1.096  53.928  1.00  0.00     0.100 HD
ENDBRANCH   5   6
BRANCH   1  14
HETATM   14  C3  UNL     1      22.764   3.490  51.168  1.00  0.00     0.192 A 
HETATM   15  S1  UNL     1      22.510   3.504  49.287  1.00  0.00    -0.058 SA
HETATM   16  C2  UNL     1      21.887   5.294  49.376  1.00  0.00     0.111 A 
HETATM   17  C1  UNL     1      21.992   5.530  50.803  1.00  0.00     0.171 A 
HETATM   18  N3  UNL     1      22.445   4.513  51.498  1.00  0.00    -0.198 NA
BRANCH  17  19
HETATM   19  O1  UNL     1      21.689   6.672  51.576  1.00  0.00    -0.344 OA
HETATM   20  H1  UNL     1      22.306   6.957  52.329  1.00  0.00     0.219 HD
ENDBRANCH  17  19
ENDBRANCH   1  14
BRANCH   3  21
HETATM   21  C5  UNL     1      26.251   0.490  52.673  1.00  0.00    -0.010 A 
HETATM   22  C6  UNL     1      27.209   1.384  53.085  1.00  0.00     0.015 A 
HETATM   23  C7  UNL     1      28.449   0.876  53.445  1.00  0.00     0.024 A 
HETATM   24  C8  UNL     1      28.750  -0.475  53.401  1.00  0.00     0.034 A 
HETATM   25 CL1  UNL     1      30.303  -1.116  53.850  1.00  0.00    -0.084 Cl
HETATM   26  C9  UNL     1      27.786  -1.380  52.984  1.00  0.00     0.024 A 
HETATM   27  C10 UNL     1      26.542  -0.861  52.625  1.00  0.00     0.015 A 
ENDBRANCH   3  21
TORSDOF 4
ENDMDL
MODEL 6
REMARK VINA RESULT:      -8.0      3.141      4.960
REMARK  4 active torsions:
REMARK  status: ('A' for Active; 'I' for Inactive)
REMARK    1  A    between atoms: O1_1  and  C1_2 
REMARK    2  A    between atoms: C3_5  and  N1_6 
REMARK    3  A    between atoms: C4_8  and  C5_9 
REMARK    4  A    between atoms: C12_17  and  C13_18 
ROOT
HETATM    1  N1  UNL     1      22.984   2.401  52.134  1.00  0.00    -0.236 N 
HETATM    2  N2  UNL     1      21.596   2.099  52.081  1.00  0.00    -0.173 NA
HETATM    3  C4  UNL     1      21.383   0.858  52.343  1.00  0.00     0.067 C 
HETATM    4  C11 UNL     1      22.720   0.210  52.605  1.00  0.00     0.094 C 
HETATM    5  C12 UNL     1      23.446   1.477  53.096  1.00  0.00     0.157 C 
ENDROOT
BRANCH   5   6
HETATM    6  C13 UNL     1      24.877   1.262  53.237  1.00  0.00    -0.005 A 
HETATM    7  C14 UNL     1      25.890   2.083  53.469  1.00  0.00     0.017 A 
HETATM    8  C15 UNL     1      27.303   1.748  53.591  1.00  0.00     0.025 A 
HETATM    9  C16 UNL     1      27.895   0.568  53.498  1.00  0.00     0.039 A 
HETATM   10 CL2  UNL     1      29.640   0.344  53.676  1.00  0.00    -0.084 Cl
HETATM   11  C17 UNL     1      27.091  -0.649  53.237  1.00  0.00     0.060 A 
HETATM   12  S2  UNL     1      25.451  -0.470  53.068  1.00  0.00    -0.173 SA
HETATM   13  H13 UNL     1      24.629  -1.596  53.418  1.00  0.00     0.100 HD
ENDBRANCH   5   6
BRANCH   1  14
HETATM   14  C3  UNL     1      23.471   3.477  51.270  1.00  0.00     0.192 A 
HETATM   15  S1  UNL     1      23.326   4.963  52.442  1.00  0.00    -0.058 SA
HETATM   16  C2  UNL     1      23.996   6.108  51.086  1.00  0.00     0.111 A 
HETATM   17  C1  UNL     1      24.197   5.149  50.018  1.00  0.00     0.171 A 
HETATM   18  N3  UNL     1      23.875   3.912  50.319  1.00  0.00    -0.198 NA
BRANCH  17  19
HETATM   19  O1  UNL     1      24.681   5.316  48.702  1.00  0.00    -0.344 OA
HETATM   20  H1  UNL     1      24.869   4.507  48.119  1.00  0.00     0.219 HD
ENDBRANCH  17  19
ENDBRANCH   1  14
BRANCH   3  21
HETATM   21  C5  UNL     1      20.095   0.192  52.382  1.00  0.00    -0.010 A 
HETATM   22  C6  UNL     1      19.770  -0.631  53.433  1.00  0.00     0.015 A 
HETATM   23  C7  UNL     1      18.525  -1.242  53.409  1.00  0.00     0.024 A 
HETATM   24  C8  UNL     1      17.616  -1.057  52.380  1.00  0.00     0.034 A 
HETATM   25 CL1  UNL     1      16.054  -1.823  52.346  1.00  0.00    -0.084 Cl
HETATM   26  C9  UNL     1      17.941  -0.229  51.317  1.00  0.00     0.024 A 
HETATM   27  C10 UNL     1      19.194   0.382  51.349  1.00  0.00     0.015 A 
ENDBRANCH   3  21
TORSDOF 4
ENDMDL
MODEL 7
REMARK VINA RESULT:      -7.9      3.789      6.920
REMARK  4 active torsions:
REMARK  status: ('A' for Active; 'I' for Inactive)
REMARK    1  A    between atoms: O1_1  and  C1_2 
REMARK    2  A    between atoms: C3_5  and  N1_6 
REMARK    3  A    between atoms: C4_8  and  C5_9 
REMARK    4  A    between atoms: C12_17  and  C13_18 
ROOT
HETATM    1  N1  UNL     1      24.403   2.968  51.227  1.00  0.00    -0.236 N 
HETATM    2  N2  UNL     1      25.711   2.462  51.456  1.00  0.00    -0.173 NA
HETATM    3  C4  UNL     1      25.674   1.386  52.160  1.00  0.00     0.067 C 
HETATM    4  C11 UNL     1      24.226   1.090  52.464  1.00  0.00     0.094 C 
HETATM    5  C12 UNL     1      23.630   1.787  51.226  1.00  0.00     0.157 C 
ENDROOT
BRANCH   5   6
HETATM    6  C13 UNL     1      22.182   1.891  51.308  1.00  0.00    -0.005 A 
HETATM    7  C14 UNL     1      21.366   2.341  52.249  1.00  0.00     0.017 A 
HETATM    8  C15 UNL     1      19.910   2.396  52.219  1.00  0.00     0.025 A 
HETATM    9  C16 UNL     1      19.077   2.016  51.263  1.00  0.00     0.039 A 
HETATM   10 CL2  UNL     1      17.319   2.158  51.398  1.00  0.00    -0.084 Cl
HETATM   11  C17 UNL     1      19.603   1.441  50.004  1.00  0.00     0.060 A 
HETATM   12  S2  UNL     1      21.248   1.296  49.848  1.00  0.00    -0.173 SA
HETATM   13  H13 UNL     1      21.787   1.334  48.515  1.00  0.00     0.100 HD
ENDBRANCH   5   6
BRANCH   1  14
HETATM   14  C3  UNL     1      24.261   4.416  51.065  1.00  0.00     0.192 A 
HETATM   15  S1  UNL     1      25.689   4.779  49.869  1.00  0.00    -0.058 SA
HETATM   16  C2  UNL     1      25.236   6.622  49.877  1.00  0.00     0.111 A 
HETATM   17  C1  UNL     1      24.100   6.602  50.777  1.00  0.00     0.171 A 
HETATM   18  N3  UNL     1      23.790   5.417  51.248  1.00  0.00    -0.198 NA
BRANCH  17  19
HETATM   19  O1  UNL     1      23.267   7.644  51.238  1.00  0.00    -0.344 OA
HETATM   20  H1  UNL     1      22.321   7.738  50.881  1.00  0.00     0.219 HD
ENDBRANCH  17  19
ENDBRANCH   1  14
BRANCH   3  21
HETATM   21  C5  UNL     1      26.810   0.594  52.588  1.00  0.00    -0.010 A 
HETATM   22  C6  UNL     1      26.778  -0.776  52.491  1.00  0.00     0.015 A 
HETATM   23  C7  UNL     1      27.895  -1.477  52.922  1.00  0.00     0.024 A 
HETATM   24  C8  UNL     1      29.020  -0.855  53.438  1.00  0.00     0.034 A 
HETATM   25 CL1  UNL     1      30.423  -1.730  53.979  1.00  0.00    -0.084 Cl
HETATM   26  C9  UNL     1      29.056   0.527  53.538  1.00  0.00     0.024 A 
HETATM   27  C10 UNL     1      27.930   1.224  53.102  1.00  0.00     0.015 A 
ENDBRANCH   3  21
TORSDOF 4
ENDMDL
MODEL 8
REMARK VINA RESULT:      -7.8      4.032      5.519
REMARK  4 active torsions:
REMARK  status: ('A' for Active; 'I' for Inactive)
REMARK    1  A    between atoms: O1_1  and  C1_2 
REMARK    2  A    between atoms: C3_5  and  N1_6 
REMARK    3  A    between atoms: C4_8  and  C5_9 
REMARK    4  A    between atoms: C12_17  and  C13_18 
ROOT
HETATM    1  N1  UNL     1      23.503   4.107  49.302  1.00  0.00    -0.236 N 
HETATM    2  N2  UNL     1      22.726   3.209  50.083  1.00  0.00    -0.173 NA
HETATM    3  C4  UNL     1      23.479   2.416  50.761  1.00  0.00     0.067 C 
HETATM    4  C11 UNL     1      24.912   2.767  50.446  1.00  0.00     0.094 C 
HETATM    5  C12 UNL     1      24.666   4.246  50.090  1.00  0.00     0.157 C 
ENDROOT
BRANCH   5   6
HETATM    6  C13 UNL     1      25.844   4.866  49.504  1.00  0.00    -0.005 A 
HETATM    7  C14 UNL     1      26.986   4.372  49.050  1.00  0.00     0.017 A 
HETATM    8  C15 UNL     1      28.111   5.100  48.477  1.00  0.00     0.025 A 
HETATM    9  C16 UNL     1      28.254   6.402  48.283  1.00  0.00     0.039 A 
HETATM   10 CL2  UNL     1      29.703   7.120  47.567  1.00  0.00    -0.084 Cl
HETATM   11  C17 UNL     1      27.169   7.335  48.667  1.00  0.00     0.060 A 
HETATM   12  S2  UNL     1      25.797   6.690  49.339  1.00  0.00    -0.173 SA
HETATM   13  H13 UNL     1      24.572   7.420  49.157  1.00  0.00     0.100 HD
ENDBRANCH   5   6
BRANCH   1  14
HETATM   14  C3  UNL     1      22.921   4.582  48.046  1.00  0.00     0.192 A 
HETATM   15  S1  UNL     1      22.099   2.992  47.415  1.00  0.00    -0.058 SA
HETATM   16  C2  UNL     1      21.482   3.914  45.875  1.00  0.00     0.111 A 
HETATM   17  C1  UNL     1      22.015   5.236  46.138  1.00  0.00     0.171 A 
HETATM   18  N3  UNL     1      22.690   5.346  47.258  1.00  0.00    -0.198 NA
BRANCH  17  19
HETATM   19  O1  UNL     1      21.932   6.432  45.392  1.00  0.00    -0.344 OA
HETATM   20  H1  UNL     1      21.089   6.994  45.420  1.00  0.00     0.219 HD
ENDBRANCH  17  19
ENDBRANCH   1  14
BRANCH   3  21
HETATM   21  C5  UNL     1      23.040   1.371  51.666  1.00  0.00    -0.010 A 
HETATM   22  C6  UNL     1      21.776   0.846  51.559  1.00  0.00     0.015 A 
HETATM   23  C7  UNL     1      21.415  -0.148  52.457  1.00  0.00     0.024 A 
HETATM   24  C8  UNL     1      22.269  -0.619  53.440  1.00  0.00     0.034 A 
HETATM   25 CL1  UNL     1      21.821  -1.865  54.569  1.00  0.00    -0.084 Cl
HETATM   26  C9  UNL     1      23.546  -0.091  53.552  1.00  0.00     0.024 A 
HETATM   27  C10 UNL     1      23.901   0.907  52.645  1.00  0.00     0.015 A 
ENDBRANCH   3  21
TORSDOF 4
ENDMDL
MODEL 9
REMARK VINA RESULT:      -7.6      4.134      6.474
REMARK  4 active torsions:
REMARK  status: ('A' for Active; 'I' for Inactive)
REMARK    1  A    between atoms: O1_1  and  C1_2 
REMARK    2  A    between atoms: C3_5  and  N1_6 
REMARK    3  A    between atoms: C4_8  and  C5_9 
REMARK    4  A    between atoms: C12_17  and  C13_18 
ROOT
HETATM    1  N1  UNL     1      22.694   1.674  52.511  1.00  0.00    -0.236 N 
HETATM    2  N2  UNL     1      23.733   0.857  53.032  1.00  0.00    -0.173 NA
HETATM    3  C4  UNL     1      24.868   1.163  52.508  1.00  0.00     0.067 C 
HETATM    4  C11 UNL     1      24.631   2.288  51.531  1.00  0.00     0.094 C 
HETATM    5  C12 UNL     1      23.382   2.871  52.220  1.00  0.00     0.157 C 
ENDROOT
BRANCH   5   6
HETATM    6  C13 UNL     1      22.730   3.878  51.397  1.00  0.00    -0.005 A 
HETATM    7  C14 UNL     1      21.789   4.774  51.653  1.00  0.00     0.017 A 
HETATM    8  C15 UNL     1      21.206   5.745  50.736  1.00  0.00     0.025 A 
HETATM    9  C16 UNL     1      21.472   5.954  49.457  1.00  0.00     0.039 A 
HETATM   10 CL2  UNL     1      20.658   7.189  48.488  1.00  0.00    -0.084 Cl
HETATM   11  C17 UNL     1      22.497   5.136  48.768  1.00  0.00     0.060 A 
HETATM   12  S2  UNL     1      23.279   3.971  49.652  1.00  0.00    -0.173 SA
HETATM   13  H13 UNL     1      24.609   3.614  49.238  1.00  0.00     0.100 HD
ENDBRANCH   5   6
BRANCH   1  14
HETATM   14  C3  UNL     1      21.351   1.094  52.447  1.00  0.00     0.192 A 
HETATM   15  S1  UNL     1      21.456  -0.193  53.838  1.00  0.00    -0.058 SA
HETATM   16  C2  UNL     1      19.666  -0.720  53.497  1.00  0.00     0.111 A 
HETATM   17  C1  UNL     1      19.341   0.175  52.403  1.00  0.00     0.171 A 
HETATM   18  N3  UNL     1      20.311   0.983  52.045  1.00  0.00    -0.198 NA
BRANCH  17  19
HETATM   19  O1  UNL     1      18.153   0.328  51.655  1.00  0.00    -0.344 OA
HETATM   20  H1  UNL     1      18.197   0.493  50.655  1.00  0.00     0.219 HD
ENDBRANCH  17  19
ENDBRANCH   1  14
BRANCH   3  21
HETATM   21  C5  UNL     1      26.147   0.545  52.797  1.00  0.00    -0.010 A 
HETATM   22  C6  UNL     1      26.304  -0.814  52.679  1.00  0.00     0.015 A 
HETATM   23  C7  UNL     1      27.552  -1.345  52.974  1.00  0.00     0.024 A 
HETATM   24  C8  UNL     1      28.624  -0.566  53.377  1.00  0.00     0.034 A 
HETATM   25 CL1  UNL     1      30.190  -1.228  53.748  1.00  0.00    -0.084 Cl
HETATM   26  C9  UNL     1      28.469   0.806  53.498  1.00  0.00     0.024 A 
HETATM   27  C10 UNL     1      27.212   1.331  53.200  1.00  0.00     0.015 A 
ENDBRANCH   3  21
TORSDOF 4
ENDMDL
