MODEL 1
REMARK VINA RESULT:      -8.6      0.000      0.000
REMARK  4 active torsions:
REMARK  status: ('A' for Active; 'I' for Inactive)
REMARK    1  A    between atoms: N1_1  and  C1_2 
REMARK    2  A    between atoms: C1_2  and  C2_3 
REMARK    3  A    between atoms: C5_6  and  C6_7 
REMARK    4  A    between atoms: C7_8  and  C8_9 
ROOT
HETATM    1  C2  UNL     1      21.519   2.747  50.257  1.00  0.00    -0.035 C 
HETATM    2  C3  UNL     1      22.793   2.300  50.422  1.00  0.00     0.007 C 
HETATM    3  C4  UNL     1      23.392   1.430  51.423  1.00  0.00     0.021 C 
HETATM    4  C5  UNL     1      23.536   0.653  52.453  1.00  0.00     0.017 C 
HETATM    5  C12 UNL     1      22.640   0.064  53.457  1.00  0.00     0.016 C 
HETATM    6  C13 UNL     1      21.564  -0.291  54.173  1.00  0.00    -0.024 C 
HETATM    7  C14 UNL     1      20.134   0.124  53.874  1.00  0.00     0.043 C 
HETATM    8  C15 UNL     1      20.221   0.934  52.594  1.00  0.00     0.009 A 
HETATM    9  C16 UNL     1      19.882   0.160  51.532  1.00  0.00    -0.017 A 
HETATM   10  C17 UNL     1      20.344   1.117  50.675  1.00  0.00    -0.010 A 
HETATM   11  C18 UNL     1      20.802   2.144  51.415  1.00  0.00     0.040 A 
HETATM   12  C19 UNL     1      21.222   3.095  52.279  1.00  0.00     0.013 A 
HETATM   13 CL1  UNL     1      21.942   4.659  52.340  1.00  0.00    -0.092 Cl
HETATM   14  C20 UNL     1      20.743   2.089  53.048  1.00  0.00     0.063 A 
ENDROOT
BRANCH   4  15
HETATM   15  C6  UNL     1      24.943   0.204  52.607  1.00  0.00    -0.064 C 
HETATM   16  C7  UNL     1      26.091  -0.157  52.712  1.00  0.00    -0.057 C 
BRANCH  16  17
HETATM   17  C8  UNL     1      27.465  -0.585  52.812  1.00  0.00     0.373 C 
HETATM   18  N2  UNL     1      27.575  -2.016  53.099  1.00  0.00     0.129 N 
HETATM   19  C9  UNL     1      28.994  -2.320  53.120  1.00  0.00     0.440 C 
HETATM   20  H8  UNL     1      27.146  -2.567  52.348  1.00  0.00     0.320 HD
HETATM   21  O1  UNL     1      29.688  -1.635  54.105  1.00  0.00    -0.355 OA
HETATM   22  C10 UNL     1      29.663  -0.260  53.899  1.00  0.00     0.251 C 
HETATM   23  C11 UNL     1      28.206   0.123  53.895  1.00  0.00     0.195 C 
HETATM   24  O2  UNL     1      27.642   0.912  54.660  1.00  0.00    -0.292 OA
ENDBRANCH  16  17
ENDBRANCH   4  15
BRANCH   1  25
HETATM   25  C1  UNL     1      20.733   3.587  49.364  1.00  0.00     0.302 C 
BRANCH  25  26
HETATM   26  N1  UNL     1      21.602   4.538  48.709  1.00  0.00     0.082 N 
HETATM   27  H1  UNL     1      21.109   5.440  48.663  1.00  0.00     0.313 HD
HETATM   28  H2  UNL     1      21.789   4.172  47.749  1.00  0.00     0.313 HD
ENDBRANCH  25  26
ENDBRANCH   1  25
TORSDOF 4
ENDMDL
MODEL 2
REMARK VINA RESULT:      -8.2      4.132      7.555
REMARK  4 active torsions:
REMARK  status: ('A' for Active; 'I' for Inactive)
REMARK    1  A    between atoms: N1_1  and  C1_2 
REMARK    2  A    between atoms: C1_2  and  C2_3 
REMARK    3  A    between atoms: C5_6  and  C6_7 
REMARK    4  A    between atoms: C7_8  and  C8_9 
ROOT
HETATM    1  C2  UNL     1      26.571  -0.772  53.060  1.00  0.00    -0.035 C 
HETATM    2  C3  UNL     1      25.273  -1.156  53.187  1.00  0.00     0.007 C 
HETATM    3  C4  UNL     1      24.030  -0.396  53.163  1.00  0.00     0.021 C 
HETATM    4  C5  UNL     1      23.191   0.590  53.080  1.00  0.00     0.017 C 
HETATM    5  C12 UNL     1      23.287   2.029  52.805  1.00  0.00     0.016 C 
HETATM    6  C13 UNL     1      23.737   3.260  52.520  1.00  0.00    -0.024 C 
HETATM    7  C14 UNL     1      25.187   3.624  52.252  1.00  0.00     0.043 C 
HETATM    8  C15 UNL     1      25.939   2.307  52.312  1.00  0.00     0.009 A 
HETATM    9  C16 UNL     1      26.156   1.839  51.057  1.00  0.00    -0.017 A 
HETATM   10  C17 UNL     1      26.548   0.634  51.564  1.00  0.00    -0.010 A 
HETATM   11  C18 UNL     1      26.467   0.706  52.906  1.00  0.00     0.040 A 
HETATM   12  C19 UNL     1      26.339   0.922  54.234  1.00  0.00     0.013 A 
HETATM   13 CL1  UNL     1      26.540   0.157  55.764  1.00  0.00    -0.092 Cl
HETATM   14  C20 UNL     1      25.964   2.079  53.639  1.00  0.00     0.063 A 
ENDROOT
BRANCH   4  15
HETATM   15  C6  UNL     1      21.789   0.129  53.244  1.00  0.00    -0.064 C 
HETATM   16  C7  UNL     1      20.646  -0.243  53.356  1.00  0.00    -0.057 C 
BRANCH  16  17
HETATM   17  C8  UNL     1      19.277  -0.684  53.466  1.00  0.00     0.373 C 
HETATM   18  N2  UNL     1      19.181  -2.125  53.707  1.00  0.00     0.129 N 
HETATM   19  C9  UNL     1      17.767  -2.422  53.850  1.00  0.00     0.440 C 
HETATM   20  H8  UNL     1      19.644  -2.372  54.588  1.00  0.00     0.320 HD
HETATM   21  O1  UNL     1      17.029  -2.132  52.713  1.00  0.00    -0.355 OA
HETATM   22  C10 UNL     1      17.038  -0.773  52.419  1.00  0.00     0.251 C 
HETATM   23  C11 UNL     1      18.487  -0.408  52.232  1.00  0.00     0.195 C 
HETATM   24  O2  UNL     1      19.011   0.062  51.216  1.00  0.00    -0.292 OA
ENDBRANCH  16  17
ENDBRANCH   4  15
BRANCH   1  25
HETATM   25  C1  UNL     1      27.912  -1.339  53.053  1.00  0.00     0.302 C 
BRANCH  25  26
HETATM   26  N1  UNL     1      27.823  -2.781  53.011  1.00  0.00     0.082 N 
HETATM   27  H1  UNL     1      27.874  -3.131  53.978  1.00  0.00     0.313 HD
HETATM   28  H2  UNL     1      28.638  -3.122  52.453  1.00  0.00     0.313 HD
ENDBRANCH  25  26
ENDBRANCH   1  25
TORSDOF 4
ENDMDL
MODEL 3
REMARK VINA RESULT:      -8.0      4.338      6.015
REMARK  4 active torsions:
REMARK  status: ('A' for Active; 'I' for Inactive)
REMARK    1  A    between atoms: N1_1  and  C1_2 
REMARK    2  A    between atoms: C1_2  and  C2_3 
REMARK    3  A    between atoms: C5_6  and  C6_7 
REMARK    4  A    between atoms: C7_8  and  C8_9 
ROOT
HETATM    1  C2  UNL     1      23.419   6.834  50.085  1.00  0.00    -0.035 C 
HETATM    2  C3  UNL     1      23.721   5.636  50.653  1.00  0.00     0.007 C 
HETATM    3  C4  UNL     1      24.865   4.750  50.497  1.00  0.00     0.021 C 
HETATM    4  C5  UNL     1      26.001   4.263  50.100  1.00  0.00     0.017 C 
HETATM    5  C12 UNL     1      27.096   4.722  49.235  1.00  0.00     0.016 C 
HETATM    6  C13 UNL     1      27.877   5.445  48.420  1.00  0.00    -0.024 C 
HETATM    7  C14 UNL     1      27.563   6.842  47.913  1.00  0.00     0.043 C 
HETATM    8  C15 UNL     1      26.254   7.216  48.583  1.00  0.00     0.009 A 
HETATM    9  C16 UNL     1      26.493   8.005  49.661  1.00  0.00    -0.017 A 
HETATM   10  C17 UNL     1      25.199   7.857  50.068  1.00  0.00    -0.010 A 
HETATM   11  C18 UNL     1      24.574   7.070  49.173  1.00  0.00     0.040 A 
HETATM   12  C19 UNL     1      24.077   6.273  48.200  1.00  0.00     0.013 A 
HETATM   13 CL1  UNL     1      22.636   5.480  47.692  1.00  0.00    -0.092 Cl
HETATM   14  C20 UNL     1      25.377   6.475  47.879  1.00  0.00     0.063 A 
ENDROOT
BRANCH   4  15
HETATM   15  C6  UNL     1      26.281   2.947  50.728  1.00  0.00    -0.064 C 
HETATM   16  C7  UNL     1      26.494   1.881  51.254  1.00  0.00    -0.057 C 
BRANCH  16  17
HETATM   17  C8  UNL     1      26.733   0.613  51.901  1.00  0.00     0.373 C 
HETATM   18  N2  UNL     1      25.595   0.191  52.719  1.00  0.00     0.129 N 
HETATM   19  C9  UNL     1      25.943  -1.109  53.262  1.00  0.00     0.440 C 
HETATM   20  H8  UNL     1      24.758   0.075  52.137  1.00  0.00     0.320 HD
HETATM   21  O1  UNL     1      27.064  -1.082  54.077  1.00  0.00    -0.355 OA
HETATM   22  C10 UNL     1      28.208  -0.715  53.376  1.00  0.00     0.251 C 
HETATM   23  C11 UNL     1      27.916   0.649  52.807  1.00  0.00     0.195 C 
HETATM   24  O2  UNL     1      28.538   1.694  53.025  1.00  0.00    -0.292 OA
ENDBRANCH  16  17
ENDBRANCH   4  15
BRANCH   1  25
HETATM   25  C1  UNL     1      22.376   7.850  50.097  1.00  0.00     0.302 C 
BRANCH  25  26
HETATM   26  N1  UNL     1      21.430   7.554  51.150  1.00  0.00     0.082 N 
HETATM   27  H1  UNL     1      20.507   7.900  50.854  1.00  0.00     0.313 HD
HETATM   28  H2  UNL     1      21.755   8.058  52.005  1.00  0.00     0.313 HD
ENDBRANCH  25  26
ENDBRANCH   1  25
TORSDOF 4
ENDMDL
MODEL 4
REMARK VINA RESULT:      -7.9      1.929      2.607
REMARK  4 active torsions:
REMARK  status: ('A' for Active; 'I' for Inactive)
REMARK    1  A    between atoms: N1_1  and  C1_2 
REMARK    2  A    between atoms: C1_2  and  C2_3 
REMARK    3  A    between atoms: C5_6  and  C6_7 
REMARK    4  A    between atoms: C7_8  and  C8_9 
ROOT
HETATM    1  C2  UNL     1      22.730   4.060  48.633  1.00  0.00    -0.035 C 
HETATM    2  C3  UNL     1      23.797   3.816  49.440  1.00  0.00     0.007 C 
HETATM    3  C4  UNL     1      23.985   2.885  50.544  1.00  0.00     0.021 C 
HETATM    4  C5  UNL     1      23.762   1.960  51.426  1.00  0.00     0.017 C 
HETATM    5  C12 UNL     1      22.656   1.043  51.730  1.00  0.00     0.016 C 
HETATM    6  C13 UNL     1      21.494   0.376  51.710  1.00  0.00    -0.024 C 
HETATM    7  C14 UNL     1      20.376   0.588  50.704  1.00  0.00     0.043 C 
HETATM    8  C15 UNL     1      20.909   1.632  49.741  1.00  0.00     0.009 A 
HETATM    9  C16 UNL     1      21.377   1.032  48.617  1.00  0.00    -0.017 A 
HETATM   10  C17 UNL     1      21.959   2.202  48.224  1.00  0.00    -0.010 A 
HETATM   11  C18 UNL     1      21.694   3.130  49.162  1.00  0.00     0.040 A 
HETATM   12  C19 UNL     1      21.350   3.954  50.178  1.00  0.00     0.013 A 
HETATM   13 CL1  UNL     1      21.515   5.576  50.731  1.00  0.00    -0.092 Cl
HETATM   14  C20 UNL     1      20.811   2.750  50.486  1.00  0.00     0.063 A 
ENDROOT
BRANCH   4  15
HETATM   15  C6  UNL     1      24.945   1.741  52.297  1.00  0.00    -0.064 C 
HETATM   16  C7  UNL     1      25.918   1.561  52.989  1.00  0.00    -0.057 C 
BRANCH  16  17
HETATM   17  C8  UNL     1      27.095   1.343  53.794  1.00  0.00     0.373 C 
HETATM   18  N2  UNL     1      28.098   2.391  53.596  1.00  0.00     0.129 N 
HETATM   19  C9  UNL     1      29.194   2.082  54.496  1.00  0.00     0.440 C 
HETATM   20  H8  UNL     1      27.719   3.305  53.865  1.00  0.00     0.320 HD
HETATM   21  O1  UNL     1      29.797   0.862  54.228  1.00  0.00    -0.355 OA
HETATM   22  C10 UNL     1      28.923  -0.202  54.418  1.00  0.00     0.251 C 
HETATM   23  C11 UNL     1      27.768   0.049  53.484  1.00  0.00     0.195 C 
HETATM   24  O2  UNL     1      27.381  -0.682  52.565  1.00  0.00    -0.292 OA
ENDBRANCH  16  17
ENDBRANCH   4  15
BRANCH   1  25
HETATM   25  C1  UNL     1      22.340   4.908  47.515  1.00  0.00     0.302 C 
BRANCH  25  26
HETATM   26  N1  UNL     1      23.096   6.140  47.560  1.00  0.00     0.082 N 
HETATM   27  H1  UNL     1      22.915   6.656  46.688  1.00  0.00     0.313 HD
HETATM   28  H2  UNL     1      24.105   5.878  47.630  1.00  0.00     0.313 HD
ENDBRANCH  25  26
ENDBRANCH   1  25
TORSDOF 4
ENDMDL
MODEL 5
REMARK VINA RESULT:      -7.7      2.049      3.147
REMARK  4 active torsions:
REMARK  status: ('A' for Active; 'I' for Inactive)
REMARK    1  A    between atoms: N1_1  and  C1_2 
REMARK    2  A    between atoms: C1_2  and  C2_3 
REMARK    3  A    between atoms: C5_6  and  C6_7 
REMARK    4  A    between atoms: C7_8  and  C8_9 
ROOT
HETATM    1  C2  UNL     1      20.484   0.931  51.353  1.00  0.00    -0.035 C 
HETATM    2  C3  UNL     1      21.685   0.360  51.639  1.00  0.00     0.007 C 
HETATM    3  C4  UNL     1      23.023   0.922  51.756  1.00  0.00     0.021 C 
HETATM    4  C5  UNL     1      24.006   1.769  51.773  1.00  0.00     0.017 C 
HETATM    5  C12 UNL     1      24.139   3.225  51.633  1.00  0.00     0.016 C 
HETATM    6  C13 UNL     1      23.890   4.532  51.473  1.00  0.00    -0.024 C 
HETATM    7  C14 UNL     1      22.513   5.147  51.289  1.00  0.00     0.043 C 
HETATM    8  C15 UNL     1      21.546   3.982  51.399  1.00  0.00     0.009 A 
HETATM    9  C16 UNL     1      21.011   3.940  52.647  1.00  0.00    -0.017 A 
HETATM   10  C17 UNL     1      20.497   2.701  52.394  1.00  0.00    -0.010 A 
HETATM   11  C18 UNL     1      20.840   2.362  51.137  1.00  0.00     0.040 A 
HETATM   12  C19 UNL     1      21.255   2.155  49.867  1.00  0.00     0.013 A 
HETATM   13 CL1  UNL     1      21.201   1.005  48.586  1.00  0.00    -0.092 Cl
HETATM   14  C20 UNL     1      21.727   3.377  50.211  1.00  0.00     0.063 A 
ENDROOT
BRANCH   4  15
HETATM   15  C6  UNL     1      25.298   1.100  52.068  1.00  0.00    -0.064 C 
HETATM   16  C7  UNL     1      26.341   0.538  52.303  1.00  0.00    -0.057 C 
BRANCH  16  17
HETATM   17  C8  UNL     1      27.577  -0.155  52.575  1.00  0.00     0.373 C 
HETATM   18  N2  UNL     1      27.348  -1.528  53.030  1.00  0.00     0.129 N 
HETATM   19  C9  UNL     1      28.661  -2.120  53.213  1.00  0.00     0.440 C 
HETATM   20  H8  UNL     1      26.858  -2.067  52.309  1.00  0.00     0.320 HD
HETATM   21  O1  UNL     1      29.424  -1.476  54.175  1.00  0.00    -0.355 OA
HETATM   22  C10 UNL     1      29.717  -0.166  53.815  1.00  0.00     0.251 C 
HETATM   23  C11 UNL     1      28.385   0.513  53.635  1.00  0.00     0.195 C 
HETATM   24  O2  UNL     1      27.961   1.497  54.253  1.00  0.00    -0.292 OA
ENDBRANCH  16  17
ENDBRANCH   4  15
BRANCH   1  25
HETATM   25  C1  UNL     1      19.082   0.574  51.192  1.00  0.00     0.302 C 
BRANCH  25  26
HETATM   26  N1  UNL     1      18.734  -0.449  52.153  1.00  0.00     0.082 N 
HETATM   27  H1  UNL     1      17.744  -0.693  52.013  1.00  0.00     0.313 HD
HETATM   28  H2  UNL     1      18.881  -0.040  53.103  1.00  0.00     0.313 HD
ENDBRANCH  25  26
ENDBRANCH   1  25
TORSDOF 4
ENDMDL
MODEL 6
REMARK VINA RESULT:      -7.7      5.976      6.788
REMARK  4 active torsions:
REMARK  status: ('A' for Active; 'I' for Inactive)
REMARK    1  A    between atoms: N1_1  and  C1_2 
REMARK    2  A    between atoms: C1_2  and  C2_3 
REMARK    3  A    between atoms: C5_6  and  C6_7 
REMARK    4  A    between atoms: C7_8  and  C8_9 
ROOT
HETATM    1  C2  UNL     1      23.638   6.514  48.583  1.00  0.00    -0.035 C 
HETATM    2  C3  UNL     1      24.933   6.657  48.193  1.00  0.00     0.007 C 
HETATM    3  C4  UNL     1      26.126   5.878  48.491  1.00  0.00     0.021 C 
HETATM    4  C5  UNL     1      26.912   4.964  48.971  1.00  0.00     0.017 C 
HETATM    5  C12 UNL     1      26.740   3.750  49.781  1.00  0.00     0.016 C 
HETATM    6  C13 UNL     1      26.224   2.744  50.500  1.00  0.00    -0.024 C 
HETATM    7  C14 UNL     1      24.748   2.547  50.801  1.00  0.00     0.043 C 
HETATM    8  C15 UNL     1      24.045   3.672  50.064  1.00  0.00     0.009 A 
HETATM    9  C16 UNL     1      23.540   3.213  48.890  1.00  0.00    -0.017 A 
HETATM   10  C17 UNL     1      23.292   4.493  48.486  1.00  0.00    -0.010 A 
HETATM   11  C18 UNL     1      23.688   5.320  49.472  1.00  0.00     0.040 A 
HETATM   12  C19 UNL     1      24.126   6.026  50.538  1.00  0.00     0.013 A 
HETATM   13 CL1  UNL     1      24.302   7.634  51.128  1.00  0.00    -0.092 Cl
HETATM   14  C20 UNL     1      24.338   4.725  50.850  1.00  0.00     0.063 A 
ENDROOT
BRANCH   4  15
HETATM   15  C6  UNL     1      28.318   5.169  48.537  1.00  0.00    -0.064 C 
HETATM   16  C7  UNL     1      29.460   5.354  48.194  1.00  0.00    -0.057 C 
BRANCH  16  17
HETATM   17  C8  UNL     1      30.825   5.599  47.794  1.00  0.00     0.373 C 
HETATM   18  N2  UNL     1      31.361   4.512  46.973  1.00  0.00     0.129 N 
HETATM   19  C9  UNL     1      32.706   4.908  46.600  1.00  0.00     0.440 C 
HETATM   20  H8  UNL     1      30.813   4.409  46.113  1.00  0.00     0.320 HD
HETATM   21  O1  UNL     1      33.551   5.075  47.686  1.00  0.00    -0.355 OA
HETATM   22  C10 UNL     1      33.135   6.112  48.514  1.00  0.00     0.251 C 
HETATM   23  C11 UNL     1      31.744   5.743  48.959  1.00  0.00     0.195 C 
HETATM   24  O2  UNL     1      31.356   5.569  50.120  1.00  0.00    -0.292 OA
ENDBRANCH  16  17
ENDBRANCH   4  15
BRANCH   1  25
HETATM   25  C1  UNL     1      22.339   7.149  48.412  1.00  0.00     0.302 C 
BRANCH  25  26
HETATM   26  N1  UNL     1      22.526   8.517  47.983  1.00  0.00     0.082 N 
HETATM   27  H1  UNL     1      23.475   8.809  48.257  1.00  0.00     0.313 HD
HETATM   28  H2  UNL     1      21.807   9.094  48.474  1.00  0.00     0.313 HD
ENDBRANCH  25  26
ENDBRANCH   1  25
TORSDOF 4
ENDMDL
MODEL 7
REMARK VINA RESULT:      -7.6      4.227      5.365
REMARK  4 active torsions:
REMARK  status: ('A' for Active; 'I' for Inactive)
REMARK    1  A    between atoms: N1_1  and  C1_2 
REMARK    2  A    between atoms: C1_2  and  C2_3 
REMARK    3  A    between atoms: C5_6  and  C6_7 
REMARK    4  A    between atoms: C7_8  and  C8_9 
ROOT
HETATM    1  C2  UNL     1      25.865   7.044  48.087  1.00  0.00    -0.035 C 
HETATM    2  C3  UNL     1      26.431   5.911  48.583  1.00  0.00     0.007 C 
HETATM    3  C4  UNL     1      26.002   4.989  49.625  1.00  0.00     0.021 C 
HETATM    4  C5  UNL     1      25.302   4.433  50.565  1.00  0.00     0.017 C 
HETATM    5  C12 UNL     1      23.994   4.681  51.187  1.00  0.00     0.016 C 
HETATM    6  C13 UNL     1      22.794   5.186  51.506  1.00  0.00    -0.024 C 
HETATM    7  C14 UNL     1      22.137   6.378  50.833  1.00  0.00     0.043 C 
HETATM    8  C15 UNL     1      23.095   6.781  49.727  1.00  0.00     0.009 A 
HETATM    9  C16 UNL     1      22.670   6.280  48.539  1.00  0.00    -0.017 A 
HETATM   10  C17 UNL     1      23.863   6.608  47.964  1.00  0.00    -0.010 A 
HETATM   11  C18 UNL     1      24.630   7.185  48.907  1.00  0.00     0.040 A 
HETATM   12  C19 UNL     1      25.284   7.745  49.950  1.00  0.00     0.013 A 
HETATM   13 CL1  UNL     1      26.779   8.481  50.383  1.00  0.00    -0.092 Cl
HETATM   14  C20 UNL     1      24.073   7.381  50.432  1.00  0.00     0.063 A 
ENDROOT
BRANCH   4  15
HETATM   15  C6  UNL     1      25.964   3.213  51.091  1.00  0.00    -0.064 C 
HETATM   16  C7  UNL     1      26.497   2.225  51.537  1.00  0.00    -0.057 C 
BRANCH  16  17
HETATM   17  C8  UNL     1      27.127   1.052  52.094  1.00  0.00     0.373 C 
HETATM   18  N2  UNL     1      26.150   0.027  52.464  1.00  0.00     0.129 N 
HETATM   19  C9  UNL     1      26.913  -1.106  52.954  1.00  0.00     0.440 C 
HETATM   20  H8  UNL     1      25.624  -0.281  51.640  1.00  0.00     0.320 HD
HETATM   21  O1  UNL     1      27.669  -0.814  54.079  1.00  0.00    -0.355 OA
HETATM   22  C10 UNL     1      28.649   0.137  53.815  1.00  0.00     0.251 C 
HETATM   23  C11 UNL     1      27.911   1.355  53.325  1.00  0.00     0.195 C 
HETATM   24  O2  UNL     1      27.916   2.482  53.832  1.00  0.00    -0.292 OA
ENDBRANCH  16  17
ENDBRANCH   4  15
BRANCH   1  25
HETATM   25  C1  UNL     1      26.110   8.075  47.089  1.00  0.00     0.302 C 
BRANCH  25  26
HETATM   26  N1  UNL     1      27.531   8.171  46.836  1.00  0.00     0.082 N 
HETATM   27  H1  UNL     1      28.014   8.201  47.745  1.00  0.00     0.313 HD
HETATM   28  H2  UNL     1      27.689   9.058  46.307  1.00  0.00     0.313 HD
ENDBRANCH  25  26
ENDBRANCH   1  25
TORSDOF 4
ENDMDL
MODEL 8
REMARK VINA RESULT:      -7.6      4.306      6.955
REMARK  4 active torsions:
REMARK  status: ('A' for Active; 'I' for Inactive)
REMARK    1  A    between atoms: N1_1  and  C1_2 
REMARK    2  A    between atoms: C1_2  and  C2_3 
REMARK    3  A    between atoms: C5_6  and  C6_7 
REMARK    4  A    between atoms: C7_8  and  C8_9 
ROOT
HETATM    1  C2  UNL     1      23.317   4.145  51.881  1.00  0.00    -0.035 C 
HETATM    2  C3  UNL     1      22.150   3.480  52.090  1.00  0.00     0.007 C 
HETATM    3  C4  UNL     1      21.874   2.092  52.433  1.00  0.00     0.021 C 
HETATM    4  C5  UNL     1      22.041   0.839  52.730  1.00  0.00     0.017 C 
HETATM    5  C12 UNL     1      23.194  -0.037  52.975  1.00  0.00     0.016 C 
HETATM    6  C13 UNL     1      24.434  -0.519  53.137  1.00  0.00    -0.024 C 
HETATM    7  C14 UNL     1      25.713   0.293  53.026  1.00  0.00     0.043 C 
HETATM    8  C15 UNL     1      25.253   1.717  52.772  1.00  0.00     0.009 A 
HETATM    9  C16 UNL     1      25.279   2.426  53.930  1.00  0.00    -0.017 A 
HETATM   10  C17 UNL     1      24.580   3.437  53.337  1.00  0.00    -0.010 A 
HETATM   11  C18 UNL     1      24.344   3.081  52.061  1.00  0.00     0.040 A 
HETATM   12  C19 UNL     1      24.181   2.594  50.809  1.00  0.00     0.013 A 
HETATM   13 CL1  UNL     1      23.494   2.978  49.277  1.00  0.00    -0.092 Cl
HETATM   14  C20 UNL     1      24.872   1.644  51.483  1.00  0.00     0.063 A 
ENDROOT
BRANCH   4  15
HETATM   15  C6  UNL     1      20.742   0.147  52.929  1.00  0.00    -0.064 C 
HETATM   16  C7  UNL     1      19.676  -0.397  53.089  1.00  0.00    -0.057 C 
BRANCH  16  17
HETATM   17  C8  UNL     1      18.391  -1.026  53.277  1.00  0.00     0.373 C 
HETATM   18  N2  UNL     1      18.507  -2.477  53.431  1.00  0.00     0.129 N 
HETATM   19  C9  UNL     1      17.162  -2.970  53.665  1.00  0.00     0.440 C 
HETATM   20  H8  UNL     1      19.073  -2.707  54.255  1.00  0.00     0.320 HD
HETATM   21  O1  UNL     1      16.295  -2.723  52.612  1.00  0.00    -0.355 OA
HETATM   22  C10 UNL     1      16.101  -1.361  52.407  1.00  0.00     0.251 C 
HETATM   23  C11 UNL     1      17.469  -0.793  52.130  1.00  0.00     0.195 C 
HETATM   24  O2  UNL     1      17.837  -0.203  51.108  1.00  0.00    -0.292 OA
ENDBRANCH  16  17
ENDBRANCH   4  15
BRANCH   1  25
HETATM   25  C1  UNL     1      23.805   5.475  51.544  1.00  0.00     0.302 C 
BRANCH  25  26
HETATM   26  N1  UNL     1      22.680   6.349  51.294  1.00  0.00     0.082 N 
HETATM   27  H1  UNL     1      22.441   6.281  50.295  1.00  0.00     0.313 HD
HETATM   28  H2  UNL     1      22.987   7.319  51.533  1.00  0.00     0.313 HD
ENDBRANCH  25  26
ENDBRANCH   1  25
TORSDOF 4
ENDMDL
MODEL 9
REMARK VINA RESULT:      -7.5      2.928      4.630
REMARK  4 active torsions:
REMARK  status: ('A' for Active; 'I' for Inactive)
REMARK    1  A    between atoms: N1_1  and  C1_2 
REMARK    2  A    between atoms: C1_2  and  C2_3 
REMARK    3  A    between atoms: C5_6  and  C6_7 
REMARK    4  A    between atoms: C7_8  and  C8_9 
ROOT
HETATM    1  C2  UNL     1      21.472   4.446  50.475  1.00  0.00    -0.035 C 
HETATM    2  C3  UNL     1      22.361   3.603  51.065  1.00  0.00     0.007 C 
HETATM    3  C4  UNL     1      23.806   3.475  50.938  1.00  0.00     0.021 C 
HETATM    4  C5  UNL     1      25.033   3.678  50.566  1.00  0.00     0.017 C 
HETATM    5  C12 UNL     1      25.723   4.653  49.711  1.00  0.00     0.016 C 
HETATM    6  C13 UNL     1      26.007   5.680  48.898  1.00  0.00    -0.024 C 
HETATM    7  C14 UNL     1      24.998   6.684  48.366  1.00  0.00     0.043 C 
HETATM    8  C15 UNL     1      23.681   6.294  49.011  1.00  0.00     0.009 A 
HETATM    9  C16 UNL     1      23.434   7.091  50.081  1.00  0.00    -0.017 A 
HETATM   10  C17 UNL     1      22.417   6.269  50.471  1.00  0.00    -0.010 A 
HETATM   11  C18 UNL     1      22.334   5.265  49.578  1.00  0.00     0.040 A 
HETATM   12  C19 UNL     1      22.367   4.322  48.609  1.00  0.00     0.013 A 
HETATM   13 CL1  UNL     1      21.594   2.874  48.090  1.00  0.00    -0.092 Cl
HETATM   14  C20 UNL     1      23.358   5.194  48.304  1.00  0.00     0.063 A 
ENDROOT
BRANCH   4  15
HETATM   15  C6  UNL     1      25.966   2.724  51.217  1.00  0.00    -0.064 C 
HETATM   16  C7  UNL     1      26.715   1.933  51.739  1.00  0.00    -0.057 C 
BRANCH  16  17
HETATM   17  C8  UNL     1      27.595   0.969  52.352  1.00  0.00     0.373 C 
HETATM   18  N2  UNL     1      26.926  -0.311  52.593  1.00  0.00     0.129 N 
HETATM   19  C9  UNL     1      27.930  -1.196  53.157  1.00  0.00     0.440 C 
HETATM   20  H8  UNL     1      26.607  -0.721  51.710  1.00  0.00     0.320 HD
HETATM   21  O1  UNL     1      28.439  -0.749  54.366  1.00  0.00    -0.355 OA
HETATM   22  C10 UNL     1      29.121   0.456  54.230  1.00  0.00     0.251 C 
HETATM   23  C11 UNL     1      28.117   1.429  53.670  1.00  0.00     0.195 C 
HETATM   24  O2  UNL     1      27.736   2.486  54.188  1.00  0.00    -0.292 OA
ENDBRANCH  16  17
ENDBRANCH   4  15
BRANCH   1  25
HETATM   25  C1  UNL     1      20.045   4.737  50.457  1.00  0.00     0.302 C 
BRANCH  25  26
HETATM   26  N1  UNL     1      19.365   3.861  51.385  1.00  0.00     0.082 N 
HETATM   27  H1  UNL     1      20.040   3.579  52.109  1.00  0.00     0.313 HD
HETATM   28  H2  UNL     1      19.041   3.030  50.840  1.00  0.00     0.313 HD
ENDBRANCH  25  26
ENDBRANCH   1  25
TORSDOF 4
ENDMDL
