MODEL 1
REMARK VINA RESULT:      -8.2      0.000      0.000
REMARK  2 active torsions:
REMARK  status: ('A' for Active; 'I' for Inactive)
REMARK    1  A    between atoms: N1_1  and  C1_2 
REMARK    2  A    between atoms: C15_19  and  O1_20 
ROOT
HETATM    1  C1  UNL     1      25.519  -0.122  53.314  1.00  0.00     0.449 C 
HETATM    2  C2  UNL     1      24.144   0.129  53.589  1.00  0.00     0.131 C 
HETATM    3  C3  UNL     1      22.900  -0.209  52.990  1.00  0.00     0.016 C 
HETATM    4  C4  UNL     1      21.983   0.732  52.497  1.00  0.00     0.065 C 
HETATM    5  C5  UNL     1      21.863   2.252  52.348  1.00  0.00     0.033 C 
HETATM    6  C6  UNL     1      21.911   3.579  52.267  1.00  0.00    -0.018 C 
HETATM    7  C7  UNL     1      23.059   4.524  52.508  1.00  0.00     0.088 C 
HETATM    8  C8  UNL     1      24.333   3.657  52.437  1.00  0.00     0.064 C 
HETATM    9  N2  UNL     1      24.816   3.177  53.487  1.00  0.00    -0.232 NA
HETATM   10  C9  UNL     1      25.525   1.978  53.381  1.00  0.00     0.180 C 
HETATM   11  N3  UNL     1      26.197   1.048  54.022  1.00  0.00    -0.201 NA
HETATM   12  C10 UNL     1      25.527   1.523  51.961  1.00  0.00     0.418 C 
HETATM   13  N4  UNL     1      25.799   2.611  51.161  1.00  0.00    -0.249 NA
HETATM   14  C11 UNL     1      24.781   3.451  50.968  1.00  0.00     0.060 C 
HETATM   15  C12 UNL     1      24.642   3.840  49.486  1.00  0.00     0.088 C 
HETATM   16  C13 UNL     1      23.558   3.240  48.747  1.00  0.00    -0.018 C 
HETATM   17  C14 UNL     1      22.544   2.660  48.123  1.00  0.00     0.032 C 
HETATM   18  C15 UNL     1      21.607   1.795  48.767  1.00  0.00     0.063 C 
HETATM   19  C16 UNL     1      20.784   0.983  49.511  1.00  0.00     0.036 C 
HETATM   20  C17 UNL     1      20.212   0.230  50.717  1.00  0.00     0.206 C 
HETATM   21  O2  UNL     1      20.793   0.395  51.908  1.00  0.00    -0.348 OA
HETATM   22  N5  UNL     1      26.182   0.282  52.054  1.00  0.00     0.178 N 
HETATM   23  H19 UNL     1      27.176   0.343  52.239  1.00  0.00     0.325 HD
ENDROOT
BRANCH   1  24
HETATM   24  N1  UNL     1      26.077  -1.353  53.824  1.00  0.00     0.141 N 
HETATM   25  H1  UNL     1      25.441  -1.796  54.517  1.00  0.00     0.318 HD
HETATM   26  H2  UNL     1      27.024  -1.185  54.164  1.00  0.00     0.318 HD
ENDBRANCH   1  24
BRANCH  18  27
HETATM   27  O1  UNL     1      22.218   1.747  49.962  1.00  0.00    -0.361 OA
HETATM   28  H15 UNL     1      22.128   0.883  50.559  1.00  0.00     0.217 HD
ENDBRANCH  18  27
TORSDOF 2
ENDMDL
MODEL 2
REMARK VINA RESULT:      -8.0      6.334      9.010
REMARK  2 active torsions:
REMARK  status: ('A' for Active; 'I' for Inactive)
REMARK    1  A    between atoms: N1_1  and  C1_2 
REMARK    2  A    between atoms: C15_19  and  O1_20 
ROOT
HETATM    1  C1  UNL     1      25.555   5.891  49.989  1.00  0.00     0.449 C 
HETATM    2  C2  UNL     1      26.450   5.409  48.991  1.00  0.00     0.131 C 
HETATM    3  C3  UNL     1      27.813   5.008  48.942  1.00  0.00     0.016 C 
HETATM    4  C4  UNL     1      28.789   5.633  48.151  1.00  0.00     0.065 C 
HETATM    5  C5  UNL     1      28.899   6.810  47.176  1.00  0.00     0.033 C 
HETATM    6  C6  UNL     1      28.844   7.868  46.372  1.00  0.00    -0.018 C 
HETATM    7  C7  UNL     1      27.748   8.883  46.178  1.00  0.00     0.088 C 
HETATM    8  C8  UNL     1      26.837   8.753  47.416  1.00  0.00     0.064 C 
HETATM    9  N2  UNL     1      25.833   8.008  47.372  1.00  0.00    -0.232 NA
HETATM   10  C9  UNL     1      25.403   7.434  48.571  1.00  0.00     0.180 C 
HETATM   11  N3  UNL     1      24.526   6.644  49.150  1.00  0.00    -0.201 NA
HETATM   12  C10 UNL     1      26.304   7.861  49.680  1.00  0.00     0.418 C 
HETATM   13  N4  UNL     1      26.532   9.213  49.553  1.00  0.00    -0.249 NA
HETATM   14  C11 UNL     1      27.406   9.562  48.609  1.00  0.00     0.060 C 
HETATM   15  C12 UNL     1      28.414  10.603  49.128  1.00  0.00     0.088 C 
HETATM   16  C13 UNL     1      29.750  10.141  49.410  1.00  0.00    -0.018 C 
HETATM   17  C14 UNL     1      30.961   9.659  49.648  1.00  0.00     0.032 C 
HETATM   18  C15 UNL     1      31.340   8.306  49.389  1.00  0.00     0.063 C 
HETATM   19  C16 UNL     1      31.565   6.983  49.095  1.00  0.00     0.036 C 
HETATM   20  C17 UNL     1      31.304   5.548  48.623  1.00  0.00     0.206 C 
HETATM   21  O2  UNL     1      30.104   5.248  48.123  1.00  0.00    -0.348 OA
HETATM   22  N5  UNL     1      25.796   7.127  50.768  1.00  0.00     0.178 N 
HETATM   23  H19 UNL     1      24.900   7.450  51.111  1.00  0.00     0.325 HD
ENDROOT
BRANCH   1  24
HETATM   24  N1  UNL     1      24.864   4.902  50.784  1.00  0.00     0.141 N 
HETATM   25  H1  UNL     1      24.909   5.134  51.796  1.00  0.00     0.318 HD
HETATM   26  H2  UNL     1      25.207   3.971  50.547  1.00  0.00     0.318 HD
ENDBRANCH   1  24
BRANCH  18  27
HETATM   27  O1  UNL     1      30.124   7.856  49.041  1.00  0.00    -0.361 OA
HETATM   28  H15 UNL     1      29.997   6.839  48.791  1.00  0.00     0.217 HD
ENDBRANCH  18  27
TORSDOF 2
ENDMDL
MODEL 3
REMARK VINA RESULT:      -8.0      2.591      4.683
REMARK  2 active torsions:
REMARK  status: ('A' for Active; 'I' for Inactive)
REMARK    1  A    between atoms: N1_1  and  C1_2 
REMARK    2  A    between atoms: C15_19  and  O1_20 
ROOT
HETATM    1  C1  UNL     1      25.593   2.033  53.367  1.00  0.00     0.449 C 
HETATM    2  C2  UNL     1      25.952   1.893  51.995  1.00  0.00     0.131 C 
HETATM    3  C3  UNL     1      26.785   2.587  51.077  1.00  0.00     0.016 C 
HETATM    4  C4  UNL     1      26.322   3.196  49.900  1.00  0.00     0.065 C 
HETATM    5  C5  UNL     1      24.997   3.413  49.163  1.00  0.00     0.033 C 
HETATM    6  C6  UNL     1      23.775   3.541  48.652  1.00  0.00    -0.018 C 
HETATM    7  C7  UNL     1      22.432   3.234  49.262  1.00  0.00     0.088 C 
HETATM    8  C8  UNL     1      22.674   3.157  50.784  1.00  0.00     0.064 C 
HETATM    9  N2  UNL     1      22.907   2.051  51.319  1.00  0.00    -0.232 NA
HETATM   10  C9  UNL     1      23.690   2.047  52.476  1.00  0.00     0.180 C 
HETATM   11  N3  UNL     1      24.248   1.313  53.413  1.00  0.00    -0.201 NA
HETATM   12  C10 UNL     1      24.097   3.442  52.810  1.00  0.00     0.418 C 
HETATM   13  N4  UNL     1      22.994   4.256  52.671  1.00  0.00    -0.249 NA
HETATM   14  C11 UNL     1      22.666   4.571  51.418  1.00  0.00     0.060 C 
HETATM   15  C12 UNL     1      22.368   6.074  51.272  1.00  0.00     0.088 C 
HETATM   16  C13 UNL     1      23.370   6.883  50.622  1.00  0.00    -0.018 C 
HETATM   17  C14 UNL     1      24.324   7.573  50.015  1.00  0.00     0.032 C 
HETATM   18  C15 UNL     1      25.507   6.983  49.475  1.00  0.00     0.063 C 
HETATM   19  C16 UNL     1      26.594   6.285  49.005  1.00  0.00     0.036 C 
HETATM   20  C17 UNL     1      27.523   5.107  48.691  1.00  0.00     0.206 C 
HETATM   21  O2  UNL     1      27.131   3.876  49.029  1.00  0.00    -0.348 OA
HETATM   22  N5  UNL     1      24.942   3.244  53.916  1.00  0.00     0.178 N 
HETATM   23  H19 UNL     1      24.464   2.972  54.767  1.00  0.00     0.325 HD
ENDROOT
BRANCH   1  24
HETATM   24  N1  UNL     1      26.472   1.428  54.341  1.00  0.00     0.141 N 
HETATM   25  H1  UNL     1      27.430   1.303  53.958  1.00  0.00     0.318 HD
HETATM   26  H2  UNL     1      26.046   0.576  54.704  1.00  0.00     0.318 HD
ENDBRANCH   1  24
BRANCH  18  27
HETATM   27  O1  UNL     1      25.294   5.737  49.929  1.00  0.00    -0.361 OA
HETATM   28  H15 UNL     1      24.313   5.352  49.955  1.00  0.00     0.217 HD
ENDBRANCH  18  27
TORSDOF 2
ENDMDL
MODEL 4
REMARK VINA RESULT:      -7.3      2.748      5.016
REMARK  2 active torsions:
REMARK  status: ('A' for Active; 'I' for Inactive)
REMARK    1  A    between atoms: N1_1  and  C1_2 
REMARK    2  A    between atoms: C15_19  and  O1_20 
ROOT
HETATM    1  C1  UNL     1      23.437   5.355  51.665  1.00  0.00     0.449 C 
HETATM    2  C2  UNL     1      23.733   4.502  50.563  1.00  0.00     0.131 C 
HETATM    3  C3  UNL     1      23.386   4.447  49.186  1.00  0.00     0.016 C 
HETATM    4  C4  UNL     1      22.698   3.378  48.591  1.00  0.00     0.065 C 
HETATM    5  C5  UNL     1      22.077   2.039  49.002  1.00  0.00     0.033 C 
HETATM    6  C6  UNL     1      21.568   0.920  49.510  1.00  0.00    -0.018 C 
HETATM    7  C7  UNL     1      21.391   0.499  50.946  1.00  0.00     0.088 C 
HETATM    8  C8  UNL     1      21.493   1.796  51.775  1.00  0.00     0.064 C 
HETATM    9  N2  UNL     1      22.596   2.138  52.257  1.00  0.00    -0.232 NA
HETATM   10  C9  UNL     1      22.821   3.504  52.445  1.00  0.00     0.180 C 
HETATM   11  N3  UNL     1      23.667   4.424  52.852  1.00  0.00    -0.201 NA
HETATM   12  C10 UNL     1      21.630   4.275  51.987  1.00  0.00     0.418 C 
HETATM   13  N4  UNL     1      20.501   3.644  52.462  1.00  0.00    -0.249 NA
HETATM   14  C11 UNL     1      20.136   2.544  51.802  1.00  0.00     0.060 C 
HETATM   15  C12 UNL     1      18.626   2.535  51.508  1.00  0.00     0.088 C 
HETATM   16  C13 UNL     1      18.217   2.811  50.153  1.00  0.00    -0.018 C 
HETATM   17  C14 UNL     1      17.904   3.067  48.892  1.00  0.00     0.032 C 
HETATM   18  C15 UNL     1      18.871   3.272  47.861  1.00  0.00     0.063 C 
HETATM   19  C16 UNL     1      19.906   3.450  46.973  1.00  0.00     0.036 C 
HETATM   20  C17 UNL     1      21.335   3.560  46.431  1.00  0.00     0.206 C 
HETATM   21  O2  UNL     1      22.354   3.341  47.266  1.00  0.00    -0.348 OA
HETATM   22  N5  UNL     1      22.061   5.604  52.152  1.00  0.00     0.178 N 
HETATM   23  H19 UNL     1      22.129   5.907  53.116  1.00  0.00     0.325 HD
ENDROOT
BRANCH   1  24
HETATM   24  N1  UNL     1      24.266   6.526  51.832  1.00  0.00     0.141 N 
HETATM   25  H1  UNL     1      24.068   7.236  51.099  1.00  0.00     0.318 HD
HETATM   26  H2  UNL     1      25.244   6.246  51.898  1.00  0.00     0.318 HD
ENDBRANCH   1  24
BRANCH  18  27
HETATM   27  O1  UNL     1      19.960   3.250  48.646  1.00  0.00    -0.361 OA
HETATM   28  H15 UNL     1      19.847   3.256  49.695  1.00  0.00     0.217 HD
ENDBRANCH  18  27
TORSDOF 2
ENDMDL
MODEL 5
REMARK VINA RESULT:      -7.2      2.542      4.941
REMARK  2 active torsions:
REMARK  status: ('A' for Active; 'I' for Inactive)
REMARK    1  A    between atoms: N1_1  and  C1_2 
REMARK    2  A    between atoms: C15_19  and  O1_20 
ROOT
HETATM    1  C1  UNL     1      23.676   5.574  51.413  1.00  0.00     0.449 C 
HETATM    2  C2  UNL     1      22.618   5.711  50.469  1.00  0.00     0.131 C 
HETATM    3  C3  UNL     1      21.200   5.793  50.522  1.00  0.00     0.016 C 
HETATM    4  C4  UNL     1      20.336   4.870  49.912  1.00  0.00     0.065 C 
HETATM    5  C5  UNL     1      20.425   3.581  49.090  1.00  0.00     0.033 C 
HETATM    6  C6  UNL     1      20.659   2.464  48.405  1.00  0.00    -0.018 C 
HETATM    7  C7  UNL     1      21.943   1.700  48.208  1.00  0.00     0.088 C 
HETATM    8  C8  UNL     1      22.894   2.188  49.320  1.00  0.00     0.064 C 
HETATM    9  N2  UNL     1      23.691   3.124  49.088  1.00  0.00    -0.232 NA
HETATM   10  C9  UNL     1      24.069   3.930  50.164  1.00  0.00     0.180 C 
HETATM   11  N3  UNL     1      24.782   4.963  50.556  1.00  0.00    -0.201 NA
HETATM   12  C10 UNL     1      23.382   3.464  51.403  1.00  0.00     0.418 C 
HETATM   13  N4  UNL     1      23.464   2.090  51.450  1.00  0.00    -0.249 NA
HETATM   14  C11 UNL     1      22.623   1.436  50.648  1.00  0.00     0.060 C 
HETATM   15  C12 UNL     1      21.928   0.276  51.382  1.00  0.00     0.088 C 
HETATM   16  C13 UNL     1      20.547   0.465  51.753  1.00  0.00    -0.018 C 
HETATM   17  C14 UNL     1      19.281   0.696  52.064  1.00  0.00     0.032 C 
HETATM   18  C15 UNL     1      18.580   1.886  51.701  1.00  0.00     0.063 C 
HETATM   19  C16 UNL     1      18.031   3.078  51.289  1.00  0.00     0.036 C 
HETATM   20  C17 UNL     1      17.914   4.460  50.638  1.00  0.00     0.206 C 
HETATM   21  O2  UNL     1      18.970   4.949  49.982  1.00  0.00    -0.348 OA
HETATM   22  N5  UNL     1      23.790   4.428  52.343  1.00  0.00     0.178 N 
HETATM   23  H19 UNL     1      24.761   4.358  52.622  1.00  0.00     0.325 HD
ENDROOT
BRANCH   1  24
HETATM   24  N1  UNL     1      24.179   6.786  52.016  1.00  0.00     0.141 N 
HETATM   25  H1  UNL     1      25.023   6.597  52.594  1.00  0.00     0.318 HD
HETATM   26  H2  UNL     1      23.425   7.262  52.510  1.00  0.00     0.318 HD
ENDBRANCH   1  24
BRANCH  18  27
HETATM   27  O1  UNL     1      19.627   2.544  51.178  1.00  0.00    -0.361 OA
HETATM   28  H15 UNL     1      19.755   3.570  51.387  1.00  0.00     0.217 HD
ENDBRANCH  18  27
TORSDOF 2
ENDMDL
MODEL 6
REMARK VINA RESULT:      -7.2      9.219     11.761
REMARK  2 active torsions:
REMARK  status: ('A' for Active; 'I' for Inactive)
REMARK    1  A    between atoms: N1_1  and  C1_2 
REMARK    2  A    between atoms: C15_19  and  O1_20 
ROOT
HETATM    1  C1  UNL     1      28.734   9.362  49.599  1.00  0.00     0.449 C 
HETATM    2  C2  UNL     1      28.784   8.275  48.679  1.00  0.00     0.131 C 
HETATM    3  C3  UNL     1      29.488   7.044  48.582  1.00  0.00     0.016 C 
HETATM    4  C4  UNL     1      30.361   6.717  47.533  1.00  0.00     0.065 C 
HETATM    5  C5  UNL     1      30.914   7.357  46.256  1.00  0.00     0.033 C 
HETATM    6  C6  UNL     1      31.323   8.049  45.195  1.00  0.00    -0.018 C 
HETATM    7  C7  UNL     1      31.131   9.503  44.853  1.00  0.00     0.088 C 
HETATM    8  C8  UNL     1      30.748  10.196  46.177  1.00  0.00     0.064 C 
HETATM    9  N2  UNL     1      29.542  10.349  46.471  1.00  0.00    -0.232 NA
HETATM   10  C9  UNL     1      29.208  10.387  47.827  1.00  0.00     0.180 C 
HETATM   11  N3  UNL     1      28.241  10.500  48.710  1.00  0.00    -0.201 NA
HETATM   12  C10 UNL     1      30.440  10.214  48.650  1.00  0.00     0.418 C 
HETATM   13  N4  UNL     1      31.430  11.006  48.113  1.00  0.00    -0.249 NA
HETATM   14  C11 UNL     1      32.011  10.534  47.010  1.00  0.00     0.060 C 
HETATM   15  C12 UNL     1      33.543  10.650  47.082  1.00  0.00     0.088 C 
HETATM   16  C13 UNL     1      34.285   9.436  47.321  1.00  0.00    -0.018 C 
HETATM   17  C14 UNL     1      34.910   8.289  47.539  1.00  0.00     0.032 C 
HETATM   18  C15 UNL     1      34.244   7.029  47.635  1.00  0.00     0.063 C 
HETATM   19  C16 UNL     1      33.476   5.891  47.707  1.00  0.00     0.036 C 
HETATM   20  C17 UNL     1      32.240   4.986  47.702  1.00  0.00     0.206 C 
HETATM   21  O2  UNL     1      31.047   5.534  47.457  1.00  0.00    -0.348 OA
HETATM   22  N5  UNL     1      29.917  10.178  49.955  1.00  0.00     0.178 N 
HETATM   23  H19 UNL     1      29.579  11.069  50.297  1.00  0.00     0.325 HD
ENDROOT
BRANCH   1  24
HETATM   24  N1  UNL     1      27.834   9.232  50.721  1.00  0.00     0.141 N 
HETATM   25  H1  UNL     1      28.175   9.773  51.541  1.00  0.00     0.318 HD
HETATM   26  H2  UNL     1      27.657   8.246  50.906  1.00  0.00     0.318 HD
ENDBRANCH   1  24
BRANCH  18  27
HETATM   27  O1  UNL     1      32.987   7.500  47.580  1.00  0.00    -0.361 OA
HETATM   28  H15 UNL     1      32.497   7.570  46.649  1.00  0.00     0.217 HD
ENDBRANCH  18  27
TORSDOF 2
ENDMDL
MODEL 7
REMARK VINA RESULT:      -7.0      2.918      4.689
REMARK  2 active torsions:
REMARK  status: ('A' for Active; 'I' for Inactive)
REMARK    1  A    between atoms: N1_1  and  C1_2 
REMARK    2  A    between atoms: C15_19  and  O1_20 
ROOT
HETATM    1  C1  UNL     1      21.629  -0.029  53.937  1.00  0.00     0.449 C 
HETATM    2  C2  UNL     1      22.571  -0.015  52.869  1.00  0.00     0.131 C 
HETATM    3  C3  UNL     1      23.696   0.773  52.502  1.00  0.00     0.016 C 
HETATM    4  C4  UNL     1      23.783   1.514  51.314  1.00  0.00     0.065 C 
HETATM    5  C5  UNL     1      22.922   1.822  50.085  1.00  0.00     0.033 C 
HETATM    6  C6  UNL     1      22.055   2.015  49.094  1.00  0.00    -0.018 C 
HETATM    7  C7  UNL     1      20.596   1.650  48.998  1.00  0.00     0.088 C 
HETATM    8  C8  UNL     1      20.133   1.400  50.448  1.00  0.00     0.064 C 
HETATM    9  N2  UNL     1      20.150   0.238  50.913  1.00  0.00    -0.232 NA
HETATM   10  C9  UNL     1      20.330   0.098  52.291  1.00  0.00     0.180 C 
HETATM   11  N3  UNL     1      20.441  -0.741  53.297  1.00  0.00    -0.201 NA
HETATM   12  C10 UNL     1      20.480   1.444  52.914  1.00  0.00     0.418 C 
HETATM   13  N4  UNL     1      19.521   2.275  52.379  1.00  0.00    -0.249 NA
HETATM   14  C11 UNL     1      19.777   2.733  51.153  1.00  0.00     0.060 C 
HETATM   15  C12 UNL     1      19.509   4.244  51.045  1.00  0.00     0.088 C 
HETATM   16  C13 UNL     1      20.658   5.115  51.005  1.00  0.00    -0.018 C 
HETATM   17  C14 UNL     1      21.750   5.863  50.969  1.00  0.00     0.032 C 
HETATM   18  C15 UNL     1      23.075   5.330  50.963  1.00  0.00     0.063 C 
HETATM   19  C16 UNL     1      24.288   4.682  50.964  1.00  0.00     0.036 C 
HETATM   20  C17 UNL     1      25.311   3.542  50.983  1.00  0.00     0.206 C 
HETATM   21  O2  UNL     1      24.865   2.283  50.977  1.00  0.00    -0.348 OA
HETATM   22  N5  UNL     1      20.746   1.116  54.256  1.00  0.00     0.178 N 
HETATM   23  H19 UNL     1      19.950   0.754  54.766  1.00  0.00     0.325 HD
ENDROOT
BRANCH   1  24
HETATM   24  N1  UNL     1      22.003  -0.746  55.134  1.00  0.00     0.141 N 
HETATM   25  H1  UNL     1      21.871  -1.770  55.017  1.00  0.00     0.318 HD
HETATM   26  H2  UNL     1      21.521  -0.345  55.938  1.00  0.00     0.318 HD
ENDBRANCH   1  24
BRANCH  18  27
HETATM   27  O1  UNL     1      22.739   4.042  51.139  1.00  0.00    -0.361 OA
HETATM   28  H15 UNL     1      22.491   3.696  52.104  1.00  0.00     0.217 HD
ENDBRANCH  18  27
TORSDOF 2
ENDMDL
MODEL 8
REMARK VINA RESULT:      -6.9      9.708     11.752
REMARK  2 active torsions:
REMARK  status: ('A' for Active; 'I' for Inactive)
REMARK    1  A    between atoms: N1_1  and  C1_2 
REMARK    2  A    between atoms: C15_19  and  O1_20 
ROOT
HETATM    1  C1  UNL     1      33.389   5.017  48.074  1.00  0.00     0.449 C 
HETATM    2  C2  UNL     1      33.019   5.396  46.751  1.00  0.00     0.131 C 
HETATM    3  C3  UNL     1      33.444   6.369  45.806  1.00  0.00     0.016 C 
HETATM    4  C4  UNL     1      32.619   7.384  45.298  1.00  0.00     0.065 C 
HETATM    5  C5  UNL     1      31.182   7.888  45.461  1.00  0.00     0.033 C 
HETATM    6  C6  UNL     1      29.920   8.221  45.725  1.00  0.00    -0.018 C 
HETATM    7  C7  UNL     1      28.995   7.733  46.808  1.00  0.00     0.088 C 
HETATM    8  C8  UNL     1      29.904   7.084  47.872  1.00  0.00     0.064 C 
HETATM    9  N2  UNL     1      30.126   5.853  47.832  1.00  0.00    -0.232 NA
HETATM   10  C9  UNL     1      31.342   5.400  48.350  1.00  0.00     0.180 C 
HETATM   11  N3  UNL     1      32.109   4.357  48.579  1.00  0.00    -0.201 NA
HETATM   12  C10 UNL     1      32.138   6.560  48.843  1.00  0.00     0.418 C 
HETATM   13  N4  UNL     1      31.299   7.387  49.556  1.00  0.00    -0.249 NA
HETATM   14  C11 UNL     1      30.492   8.156  48.825  1.00  0.00     0.060 C 
HETATM   15  C12 UNL     1      30.482   9.609  49.333  1.00  0.00     0.088 C 
HETATM   16  C13 UNL     1      31.202  10.584  48.551  1.00  0.00    -0.018 C 
HETATM   17  C14 UNL     1      31.877  11.433  47.791  1.00  0.00     0.032 C 
HETATM   18  C15 UNL     1      32.512  11.067  46.565  1.00  0.00     0.063 C 
HETATM   19  C16 UNL     1      33.075  10.577  45.411  1.00  0.00     0.036 C 
HETATM   20  C17 UNL     1      33.476   9.587  44.313  1.00  0.00     0.206 C 
HETATM   21  O2  UNL     1      33.042   8.327  44.399  1.00  0.00    -0.348 OA
HETATM   22  N5  UNL     1      33.343   5.944  49.227  1.00  0.00     0.178 N 
HETATM   23  H19 UNL     1      33.279   5.382  50.067  1.00  0.00     0.325 HD
ENDROOT
BRANCH   1  24
HETATM   24  N1  UNL     1      34.475   4.074  48.208  1.00  0.00     0.141 N 
HETATM   25  H1  UNL     1      35.259   4.309  47.568  1.00  0.00     0.318 HD
HETATM   26  H2  UNL     1      34.118   3.124  48.109  1.00  0.00     0.318 HD
ENDBRANCH   1  24
BRANCH  18  27
HETATM   27  O1  UNL     1      32.283   9.747  46.646  1.00  0.00    -0.361 OA
HETATM   28  H15 UNL     1      31.330   9.399  46.932  1.00  0.00     0.217 HD
ENDBRANCH  18  27
TORSDOF 2
ENDMDL
MODEL 9
REMARK VINA RESULT:      -6.9     10.508     12.622
REMARK  2 active torsions:
REMARK  status: ('A' for Active; 'I' for Inactive)
REMARK    1  A    between atoms: N1_1  and  C1_2 
REMARK    2  A    between atoms: C15_19  and  O1_20 
ROOT
HETATM    1  C1  UNL     1      33.144   4.046  47.738  1.00  0.00     0.449 C 
HETATM    2  C2  UNL     1      32.659   4.166  46.403  1.00  0.00     0.131 C 
HETATM    3  C3  UNL     1      33.234   4.327  45.114  1.00  0.00     0.016 C 
HETATM    4  C4  UNL     1      32.995   5.429  44.278  1.00  0.00     0.065 C 
HETATM    5  C5  UNL     1      32.205   6.741  44.304  1.00  0.00     0.033 C 
HETATM    6  C6  UNL     1      31.489   7.849  44.480  1.00  0.00    -0.018 C 
HETATM    7  C7  UNL     1      30.833   8.392  45.723  1.00  0.00     0.088 C 
HETATM    8  C8  UNL     1      31.510   7.664  46.903  1.00  0.00     0.064 C 
HETATM    9  N2  UNL     1      30.994   6.624  47.369  1.00  0.00    -0.232 NA
HETATM   10  C9  UNL     1      31.848   5.686  47.953  1.00  0.00     0.180 C 
HETATM   11  N3  UNL     1      31.942   4.519  48.550  1.00  0.00    -0.201 NA
HETATM   12  C10 UNL     1      33.256   6.169  47.865  1.00  0.00     0.418 C 
HETATM   13  N4  UNL     1      33.277   7.500  48.216  1.00  0.00    -0.249 NA
HETATM   14  C11 UNL     1      32.848   8.349  47.281  1.00  0.00     0.060 C 
HETATM   15  C12 UNL     1      33.794   9.553  47.133  1.00  0.00     0.088 C 
HETATM   16  C13 UNL     1      34.650   9.579  45.972  1.00  0.00    -0.018 C 
HETATM   17  C14 UNL     1      35.408   9.549  44.887  1.00  0.00     0.032 C 
HETATM   18  C15 UNL     1      35.324   8.529  43.890  1.00  0.00     0.063 C 
HETATM   19  C16 UNL     1      35.138   7.485  43.015  1.00  0.00     0.036 C 
HETATM   20  C17 UNL     1      34.569   6.197  42.411  1.00  0.00     0.206 C 
HETATM   21  O2  UNL     1      33.566   5.583  43.043  1.00  0.00    -0.348 OA
HETATM   22  N5  UNL     1      33.972   5.082  48.397  1.00  0.00     0.178 N 
HETATM   23  H19 UNL     1      33.871   4.960  49.397  1.00  0.00     0.325 HD
ENDROOT
BRANCH   1  24
HETATM   24  N1  UNL     1      33.510   2.723  48.187  1.00  0.00     0.141 N 
HETATM   25  H1  UNL     1      32.691   2.217  48.578  1.00  0.00     0.318 HD
HETATM   26  H2  UNL     1      34.310   2.784  48.817  1.00  0.00     0.318 HD
ENDBRANCH   1  24
BRANCH  18  27
HETATM   27  O1  UNL     1      34.446   7.741  44.531  1.00  0.00    -0.361 OA
HETATM   28  H15 UNL     1      34.419   7.740  45.585  1.00  0.00     0.217 HD
ENDBRANCH  18  27
TORSDOF 2
ENDMDL
