MODEL 1
REMARK VINA RESULT:      -8.7      0.000      0.000
REMARK  4 active torsions:
REMARK  status: ('A' for Active; 'I' for Inactive)
REMARK    1  A    between atoms: C1_2  and  C2_3 
REMARK       I    between atoms: C1_2  and  N1_12 
REMARK    2  A    between atoms: C2_3  and  O2_4 
REMARK    3  A    between atoms: O2_4  and  C3_5 
REMARK    4  A    between atoms: N1_12  and  C9_13 
ROOT
HETATM    1  C9  UNL     1      29.784   7.931  48.404  1.00  0.00     0.019 C 
HETATM    2  C10 UNL     1      29.349   8.811  49.379  1.00  0.00     0.075 C 
HETATM    3  C11 UNL     1      27.898   9.259  49.662  1.00  0.00     0.131 C 
HETATM    4  N2  UNL     1      27.527  10.485  49.221  1.00  0.00    -0.224 NA
HETATM    5  C12 UNL     1      26.551  10.704  48.118  1.00  0.00     0.235 C 
HETATM    6  N3  UNL     1      25.883   9.815  47.272  1.00  0.00    -0.241 NA
HETATM    7  C13 UNL     1      26.199   8.376  47.653  1.00  0.00     0.067 C 
HETATM    8  C14 UNL     1      27.513   8.015  47.474  1.00  0.00     0.012 C 
HETATM    9  C15 UNL     1      28.783   7.328  47.407  1.00  0.00     0.086 C 
HETATM   10  C16 UNL     1      25.300   7.447  48.356  1.00  0.00     0.019 A 
HETATM   11  C17 UNL     1      24.291   6.650  48.015  1.00  0.00     0.017 A 
HETATM   12  C18 UNL     1      23.739   5.951  49.047  1.00  0.00     0.020 A 
HETATM   13  C19 UNL     1      24.193   6.067  50.335  1.00  0.00     0.013 A 
HETATM   14 BR1  UNL     1      23.291   5.011  51.630  1.00  0.00    -0.051 Br
HETATM   15  C20 UNL     1      25.233   6.885  50.700  1.00  0.00     0.049 A 
HETATM   16  C21 UNL     1      25.834   7.615  49.713  1.00  0.00     0.047 A 
HETATM   17  N4  UNL     1      26.922   8.389  50.403  1.00  0.00    -0.340 N 
HETATM   18  H16 UNL     1      26.820   8.180  51.394  1.00  0.00     0.167 HD
ENDROOT
BRANCH   1  19
HETATM   19  N1  UNL     1      31.132   7.536  48.176  1.00  0.00    -0.329 N 
HETATM   20  C1  UNL     1      31.623   6.389  48.822  1.00  0.00     0.246 C 
HETATM   21  O1  UNL     1      31.118   5.559  49.619  1.00  0.00    -0.271 OA
HETATM   22  H7  UNL     1      31.776   8.064  47.546  1.00  0.00     0.168 HD
BRANCH  20  23
HETATM   23  C2  UNL     1      33.010   5.965  48.600  1.00  0.00     0.278 C 
BRANCH  23  24
HETATM   24  O2  UNL     1      33.208   5.262  47.388  1.00  0.00    -0.342 OA
BRANCH  24  25
HETATM   25  C3  UNL     1      32.912   3.892  47.280  1.00  0.00     0.069 A 
HETATM   26  C4  UNL     1      31.881   3.427  46.483  1.00  0.00     0.040 A 
HETATM   27  C5  UNL     1      31.605   2.078  46.390  1.00  0.00     0.045 A 
HETATM   28  C6  UNL     1      32.397   1.203  47.126  1.00  0.00     0.116 A 
HETATM   29  F1  UNL     1      32.047  -0.102  46.969  1.00  0.00    -0.206 F 
HETATM   30  C7  UNL     1      33.422   1.686  47.919  1.00  0.00     0.045 A 
HETATM   31  C8  UNL     1      33.693   3.019  48.008  1.00  0.00     0.040 A 
ENDBRANCH  24  25
ENDBRANCH  23  24
ENDBRANCH  20  23
ENDBRANCH   1  19
TORSDOF 4
ENDMDL
MODEL 2
REMARK VINA RESULT:      -8.6      6.092      7.986
REMARK  4 active torsions:
REMARK  status: ('A' for Active; 'I' for Inactive)
REMARK    1  A    between atoms: C1_2  and  C2_3 
REMARK       I    between atoms: C1_2  and  N1_12 
REMARK    2  A    between atoms: C2_3  and  O2_4 
REMARK    3  A    between atoms: O2_4  and  C3_5 
REMARK    4  A    between atoms: N1_12  and  C9_13 
ROOT
HETATM    1  C9  UNL     1      23.735   2.473  51.222  1.00  0.00     0.019 C 
HETATM    2  C10 UNL     1      23.048   2.592  50.027  1.00  0.00     0.075 C 
HETATM    3  C11 UNL     1      22.552   3.890  49.352  1.00  0.00     0.131 C 
HETATM    4  N2  UNL     1      21.234   4.186  49.462  1.00  0.00    -0.224 NA
HETATM    5  C12 UNL     1      20.708   5.326  50.263  1.00  0.00     0.235 C 
HETATM    6  N3  UNL     1      21.342   6.255  51.092  1.00  0.00    -0.241 NA
HETATM    7  C13 UNL     1      22.849   6.052  51.068  1.00  0.00     0.067 C 
HETATM    8  C14 UNL     1      23.271   4.855  51.596  1.00  0.00     0.012 C 
HETATM    9  C15 UNL     1      24.031   3.720  52.070  1.00  0.00     0.086 C 
HETATM   10  C16 UNL     1      23.829   6.901  50.372  1.00  0.00     0.019 A 
HETATM   11  C17 UNL     1      24.451   8.050  50.627  1.00  0.00     0.017 A 
HETATM   12  C18 UNL     1      25.303   8.469  49.650  1.00  0.00     0.020 A 
HETATM   13  C19 UNL     1      25.498   7.756  48.495  1.00  0.00     0.013 A 
HETATM   14 BR1  UNL     1      26.727   8.507  47.256  1.00  0.00    -0.051 Br
HETATM   15  C20 UNL     1      24.864   6.571  48.220  1.00  0.00     0.049 A 
HETATM   16  C21 UNL     1      23.995   6.092  49.159  1.00  0.00     0.047 A 
HETATM   17  N4  UNL     1      23.475   4.800  48.593  1.00  0.00    -0.340 N 
HETATM   18  H16 UNL     1      23.879   4.728  47.661  1.00  0.00     0.167 HD
ENDROOT
BRANCH   1  19
HETATM   19  N1  UNL     1      24.183   1.257  51.811  1.00  0.00    -0.329 N 
HETATM   20  C1  UNL     1      23.369   0.624  52.766  1.00  0.00     0.246 C 
HETATM   21  O1  UNL     1      22.248   0.895  53.268  1.00  0.00    -0.271 OA
HETATM   22  H7  UNL     1      25.094   0.812  51.563  1.00  0.00     0.168 HD
BRANCH  20  23
HETATM   23  C2  UNL     1      23.813  -0.629  53.385  1.00  0.00     0.278 C 
BRANCH  23  24
HETATM   24  O2  UNL     1      24.754  -0.453  54.427  1.00  0.00    -0.342 OA
BRANCH  24  25
HETATM   25  C3  UNL     1      26.137  -0.465  54.172  1.00  0.00     0.069 A 
HETATM   26  C4  UNL     1      27.026   0.275  54.933  1.00  0.00     0.040 A 
HETATM   27  C5  UNL     1      28.380   0.252  54.668  1.00  0.00     0.045 A 
HETATM   28  C6  UNL     1      28.819  -0.539  53.611  1.00  0.00     0.116 A 
HETATM   29  F1  UNL     1      30.167  -0.495  53.429  1.00  0.00    -0.206 F 
HETATM   30  C7  UNL     1      27.916  -1.270  52.861  1.00  0.00     0.045 A 
HETATM   31  C8  UNL     1      26.580  -1.246  53.125  1.00  0.00     0.040 A 
ENDBRANCH  24  25
ENDBRANCH  23  24
ENDBRANCH  20  23
ENDBRANCH   1  19
TORSDOF 4
ENDMDL
MODEL 3
REMARK VINA RESULT:      -8.5      4.886      6.214
REMARK  4 active torsions:
REMARK  status: ('A' for Active; 'I' for Inactive)
REMARK    1  A    between atoms: C1_2  and  C2_3 
REMARK       I    between atoms: C1_2  and  N1_12 
REMARK    2  A    between atoms: C2_3  and  O2_4 
REMARK    3  A    between atoms: O2_4  and  C3_5 
REMARK    4  A    between atoms: N1_12  and  C9_13 
ROOT
HETATM    1  C9  UNL     1      26.358   4.624  49.369  1.00  0.00     0.019 C 
HETATM    2  C10 UNL     1      25.426   5.588  49.709  1.00  0.00     0.075 C 
HETATM    3  C11 UNL     1      25.428   7.080  49.309  1.00  0.00     0.131 C 
HETATM    4  N2  UNL     1      25.827   7.976  50.244  1.00  0.00    -0.224 NA
HETATM    5  C12 UNL     1      27.093   8.754  50.153  1.00  0.00     0.235 C 
HETATM    6  N3  UNL     1      28.142   8.728  49.230  1.00  0.00    -0.241 NA
HETATM    7  C13 UNL     1      27.833   7.759  48.099  1.00  0.00     0.067 C 
HETATM    8  C14 UNL     1      27.751   6.442  48.484  1.00  0.00     0.012 C 
HETATM    9  C15 UNL     1      27.601   5.005  48.550  1.00  0.00     0.086 C 
HETATM   10  C16 UNL     1      27.430   8.121  46.731  1.00  0.00     0.019 A 
HETATM   11  C17 UNL     1      28.055   8.499  45.619  1.00  0.00     0.017 A 
HETATM   12  C18 UNL     1      27.237   8.738  44.555  1.00  0.00     0.020 A 
HETATM   13  C19 UNL     1      25.876   8.599  44.634  1.00  0.00     0.013 A 
HETATM   14 BR1  UNL     1      24.910   8.980  43.043  1.00  0.00    -0.051 Br
HETATM   15  C20 UNL     1      25.219   8.209  45.774  1.00  0.00     0.049 A 
HETATM   16  C21 UNL     1      25.980   7.952  46.879  1.00  0.00     0.047 A 
HETATM   17  N4  UNL     1      25.001   7.544  47.945  1.00  0.00    -0.340 N 
HETATM   18  H16 UNL     1      24.080   7.658  47.528  1.00  0.00     0.167 HD
ENDROOT
BRANCH   1  19
HETATM   19  N1  UNL     1      26.320   3.253  49.752  1.00  0.00    -0.329 N 
HETATM   20  C1  UNL     1      25.717   2.904  50.972  1.00  0.00     0.246 C 
HETATM   21  O1  UNL     1      25.157   3.565  51.883  1.00  0.00    -0.271 OA
HETATM   22  H7  UNL     1      26.722   2.492  49.162  1.00  0.00     0.168 HD
BRANCH  20  23
HETATM   23  C2  UNL     1      25.668   1.497  51.384  1.00  0.00     0.278 C 
BRANCH  23  24
HETATM   24  O2  UNL     1      26.035   1.282  52.734  1.00  0.00    -0.342 OA
BRANCH  24  25
HETATM   25  C3  UNL     1      27.228   0.619  53.070  1.00  0.00     0.069 A 
HETATM   26  C4  UNL     1      27.386  -0.742  52.882  1.00  0.00     0.040 A 
HETATM   27  C5  UNL     1      28.565  -1.376  53.220  1.00  0.00     0.045 A 
HETATM   28  C6  UNL     1      29.587  -0.599  53.755  1.00  0.00     0.116 A 
HETATM   29  F1  UNL     1      30.706  -1.313  54.055  1.00  0.00    -0.206 F 
HETATM   30  C7  UNL     1      29.411   0.760  53.937  1.00  0.00     0.045 A 
HETATM   31  C8  UNL     1      28.246   1.383  53.602  1.00  0.00     0.040 A 
ENDBRANCH  24  25
ENDBRANCH  23  24
ENDBRANCH  20  23
ENDBRANCH   1  19
TORSDOF 4
ENDMDL
MODEL 4
REMARK VINA RESULT:      -8.3      2.696      3.962
REMARK  4 active torsions:
REMARK  status: ('A' for Active; 'I' for Inactive)
REMARK    1  A    between atoms: C1_2  and  C2_3 
REMARK       I    between atoms: C1_2  and  N1_12 
REMARK    2  A    between atoms: C2_3  and  O2_4 
REMARK    3  A    between atoms: O2_4  and  C3_5 
REMARK    4  A    between atoms: N1_12  and  C9_13 
ROOT
HETATM    1  C9  UNL     1      26.479   6.765  49.337  1.00  0.00     0.019 C 
HETATM    2  C10 UNL     1      25.832   7.255  50.456  1.00  0.00     0.075 C 
HETATM    3  C11 UNL     1      24.440   6.850  50.991  1.00  0.00     0.131 C 
HETATM    4  N2  UNL     1      23.409   7.695  50.748  1.00  0.00    -0.224 NA
HETATM    5  C12 UNL     1      22.283   7.378  49.826  1.00  0.00     0.235 C 
HETATM    6  N3  UNL     1      22.041   6.286  48.989  1.00  0.00    -0.241 NA
HETATM    7  C13 UNL     1      23.127   5.234  49.156  1.00  0.00     0.067 C 
HETATM    8  C14 UNL     1      24.378   5.637  48.754  1.00  0.00     0.012 C 
HETATM    9  C15 UNL     1      25.783   5.739  48.429  1.00  0.00     0.086 C 
HETATM   10  C16 UNL     1      22.993   3.954  49.870  1.00  0.00     0.019 A 
HETATM   11  C17 UNL     1      22.509   2.747  49.588  1.00  0.00     0.017 A 
HETATM   12  C18 UNL     1      22.602   1.841  50.601  1.00  0.00     0.020 A 
HETATM   13  C19 UNL     1      23.151   2.158  51.817  1.00  0.00     0.013 A 
HETATM   14 BR1  UNL     1      23.188   0.757  53.099  1.00  0.00    -0.051 Br
HETATM   15  C20 UNL     1      23.654   3.398  52.121  1.00  0.00     0.049 A 
HETATM   16  C21 UNL     1      23.593   4.355  51.148  1.00  0.00     0.047 A 
HETATM   17  N4  UNL     1      24.217   5.578  51.760  1.00  0.00    -0.340 N 
HETATM   18  H16 UNL     1      24.420   5.328  52.725  1.00  0.00     0.167 HD
ENDROOT
BRANCH   1  19
HETATM   19  N1  UNL     1      27.768   7.159  48.877  1.00  0.00    -0.329 N 
HETATM   20  C1  UNL     1      28.670   6.169  48.452  1.00  0.00     0.246 C 
HETATM   21  O1  UNL     1      28.609   4.916  48.374  1.00  0.00    -0.271 OA
HETATM   22  H7  UNL     1      28.073   8.156  48.841  1.00  0.00     0.168 HD
BRANCH  20  23
HETATM   23  C2  UNL     1      30.002   6.554  47.975  1.00  0.00     0.278 C 
BRANCH  23  24
HETATM   24  O2  UNL     1      31.052   6.195  48.853  1.00  0.00    -0.342 OA
BRANCH  24  25
HETATM   25  C3  UNL     1      32.151   5.440  48.409  1.00  0.00     0.069 A 
HETATM   26  C4  UNL     1      31.992   4.303  47.636  1.00  0.00     0.040 A 
HETATM   27  C5  UNL     1      33.083   3.573  47.210  1.00  0.00     0.045 A 
HETATM   28  C6  UNL     1      34.346   4.020  47.584  1.00  0.00     0.116 A 
HETATM   29  F1  UNL     1      35.355   3.236  47.116  1.00  0.00    -0.206 F 
HETATM   30  C7  UNL     1      34.486   5.157  48.357  1.00  0.00     0.045 A 
HETATM   31  C8  UNL     1      33.407   5.876  48.776  1.00  0.00     0.040 A 
ENDBRANCH  24  25
ENDBRANCH  23  24
ENDBRANCH  20  23
ENDBRANCH   1  19
TORSDOF 4
ENDMDL
MODEL 5
REMARK VINA RESULT:      -8.3      6.115      7.589
REMARK  4 active torsions:
REMARK  status: ('A' for Active; 'I' for Inactive)
REMARK    1  A    between atoms: C1_2  and  C2_3 
REMARK       I    between atoms: C1_2  and  N1_12 
REMARK    2  A    between atoms: C2_3  and  O2_4 
REMARK    3  A    between atoms: O2_4  and  C3_5 
REMARK    4  A    between atoms: N1_12  and  C9_13 
ROOT
HETATM    1  C9  UNL     1      24.116   3.036  51.777  1.00  0.00     0.019 C 
HETATM    2  C10 UNL     1      23.645   4.230  52.291  1.00  0.00     0.075 C 
HETATM    3  C11 UNL     1      23.256   5.504  51.507  1.00  0.00     0.131 C 
HETATM    4  N2  UNL     1      24.140   6.530  51.507  1.00  0.00    -0.224 NA
HETATM    5  C12 UNL     1      24.901   6.964  50.302  1.00  0.00     0.235 C 
HETATM    6  N3  UNL     1      24.970   6.448  49.006  1.00  0.00    -0.241 NA
HETATM    7  C13 UNL     1      24.013   5.276  48.846  1.00  0.00     0.067 C 
HETATM    8  C14 UNL     1      24.323   4.179  49.613  1.00  0.00     0.012 C 
HETATM    9  C15 UNL     1      24.367   2.891  50.268  1.00  0.00     0.086 C 
HETATM   10  C16 UNL     1      22.729   5.295  48.128  1.00  0.00     0.019 A 
HETATM   11  C17 UNL     1      22.340   5.190  46.860  1.00  0.00     0.017 A 
HETATM   12  C18 UNL     1      20.994   5.271  46.664  1.00  0.00     0.020 A 
HETATM   13  C19 UNL     1      20.114   5.450  47.701  1.00  0.00     0.013 A 
HETATM   14 BR1  UNL     1      18.278   5.539  47.222  1.00  0.00    -0.051 Br
HETATM   15  C20 UNL     1      20.501   5.560  49.013  1.00  0.00     0.049 A 
HETATM   16  C21 UNL     1      21.839   5.486  49.280  1.00  0.00     0.047 A 
HETATM   17  N4  UNL     1      21.950   5.624  50.773  1.00  0.00    -0.340 N 
HETATM   18  H16 UNL     1      21.004   5.801  51.102  1.00  0.00     0.167 HD
ENDROOT
BRANCH   1  19
HETATM   19  N1  UNL     1      24.459   1.879  52.531  1.00  0.00    -0.329 N 
HETATM   20  C1  UNL     1      23.568   0.793  52.553  1.00  0.00     0.246 C 
HETATM   21  O1  UNL     1      22.448   0.579  52.024  1.00  0.00    -0.271 OA
HETATM   22  H7  UNL     1      25.349   1.801  53.071  1.00  0.00     0.168 HD
BRANCH  20  23
HETATM   23  C2  UNL     1      23.903  -0.409  53.325  1.00  0.00     0.278 C 
BRANCH  23  24
HETATM   24  O2  UNL     1      24.869  -0.191  54.336  1.00  0.00    -0.342 OA
BRANCH  24  25
HETATM   25  C3  UNL     1      26.239  -0.392  54.095  1.00  0.00     0.069 A 
HETATM   26  C4  UNL     1      27.213   0.256  54.833  1.00  0.00     0.040 A 
HETATM   27  C5  UNL     1      28.554   0.047  54.582  1.00  0.00     0.045 A 
HETATM   28  C6  UNL     1      28.891  -0.836  53.561  1.00  0.00     0.116 A 
HETATM   29  F1  UNL     1      30.234  -0.974  53.390  1.00  0.00    -0.206 F 
HETATM   30  C7  UNL     1      27.904  -1.474  52.833  1.00  0.00     0.045 A 
HETATM   31  C8  UNL     1      26.581  -1.266  53.084  1.00  0.00     0.040 A 
ENDBRANCH  24  25
ENDBRANCH  23  24
ENDBRANCH  20  23
ENDBRANCH   1  19
TORSDOF 4
ENDMDL
MODEL 6
REMARK VINA RESULT:      -8.1      3.412      5.506
REMARK  4 active torsions:
REMARK  status: ('A' for Active; 'I' for Inactive)
REMARK    1  A    between atoms: C1_2  and  C2_3 
REMARK       I    between atoms: C1_2  and  N1_12 
REMARK    2  A    between atoms: C2_3  and  O2_4 
REMARK    3  A    between atoms: O2_4  and  C3_5 
REMARK    4  A    between atoms: N1_12  and  C9_13 
ROOT
HETATM    1  C9  UNL     1      25.200   7.027  50.423  1.00  0.00     0.019 C 
HETATM    2  C10 UNL     1      24.024   7.395  51.051  1.00  0.00     0.075 C 
HETATM    3  C11 UNL     1      22.658   6.676  50.987  1.00  0.00     0.131 C 
HETATM    4  N2  UNL     1      21.708   7.212  50.184  1.00  0.00    -0.224 NA
HETATM    5  C12 UNL     1      21.227   6.567  48.931  1.00  0.00     0.235 C 
HETATM    6  N3  UNL     1      21.627   5.404  48.267  1.00  0.00    -0.241 NA
HETATM    7  C13 UNL     1      22.701   4.678  49.062  1.00  0.00     0.067 C 
HETATM    8  C14 UNL     1      23.884   5.365  49.182  1.00  0.00     0.012 C 
HETATM    9  C15 UNL     1      25.227   5.807  49.488  1.00  0.00     0.086 C 
HETATM   10  C16 UNL     1      22.516   3.448  49.849  1.00  0.00     0.019 A 
HETATM   11  C17 UNL     1      22.474   2.144  49.591  1.00  0.00     0.017 A 
HETATM   12  C18 UNL     1      22.270   1.350  50.679  1.00  0.00     0.020 A 
HETATM   13  C19 UNL     1      22.118   1.864  51.941  1.00  0.00     0.013 A 
HETATM   14 BR1  UNL     1      21.842   0.593  53.326  1.00  0.00    -0.051 Br
HETATM   15  C20 UNL     1      22.159   3.206  52.222  1.00  0.00     0.049 A 
HETATM   16  C21 UNL     1      22.362   4.060  51.175  1.00  0.00     0.047 A 
HETATM   17  N4  UNL     1      22.370   5.435  51.783  1.00  0.00    -0.340 N 
HETATM   18  H16 UNL     1      22.150   5.299  52.767  1.00  0.00     0.167 HD
ENDROOT
BRANCH   1  19
HETATM   19  N1  UNL     1      26.445   7.712  50.509  1.00  0.00    -0.329 N 
HETATM   20  C1  UNL     1      26.674   8.815  49.670  1.00  0.00     0.246 C 
HETATM   21  O1  UNL     1      25.988   9.390  48.787  1.00  0.00    -0.271 OA
HETATM   22  H7  UNL     1      27.199   7.429  51.173  1.00  0.00     0.168 HD
BRANCH  20  23
HETATM   23  C2  UNL     1      27.950   9.534  49.744  1.00  0.00     0.278 C 
BRANCH  23  24
HETATM   24  O2  UNL     1      28.828   9.257  48.669  1.00  0.00    -0.342 OA
BRANCH  24  25
HETATM   25  C3  UNL     1      29.655   8.120  48.676  1.00  0.00     0.069 A 
HETATM   26  C4  UNL     1      29.241   6.912  48.143  1.00  0.00     0.040 A 
HETATM   27  C5  UNL     1      30.067   5.807  48.159  1.00  0.00     0.045 A 
HETATM   28  C6  UNL     1      31.328   5.948  48.728  1.00  0.00     0.116 A 
HETATM   29  F1  UNL     1      32.065   4.805  48.697  1.00  0.00    -0.206 F 
HETATM   30  C7  UNL     1      31.724   7.163  49.257  1.00  0.00     0.045 A 
HETATM   31  C8  UNL     1      30.907   8.254  49.240  1.00  0.00     0.040 A 
ENDBRANCH  24  25
ENDBRANCH  23  24
ENDBRANCH  20  23
ENDBRANCH   1  19
TORSDOF 4
ENDMDL
MODEL 7
REMARK VINA RESULT:      -8.0      6.582      8.427
REMARK  4 active torsions:
REMARK  status: ('A' for Active; 'I' for Inactive)
REMARK    1  A    between atoms: C1_2  and  C2_3 
REMARK       I    between atoms: C1_2  and  N1_12 
REMARK    2  A    between atoms: C2_3  and  O2_4 
REMARK    3  A    between atoms: O2_4  and  C3_5 
REMARK    4  A    between atoms: N1_12  and  C9_13 
ROOT
HETATM    1  C9  UNL     1      23.092   2.227  51.262  1.00  0.00     0.019 C 
HETATM    2  C10 UNL     1      22.674   2.139  49.946  1.00  0.00     0.075 C 
HETATM    3  C11 UNL     1      22.070   3.262  49.074  1.00  0.00     0.131 C 
HETATM    4  N2  UNL     1      20.729   3.254  48.887  1.00  0.00    -0.224 NA
HETATM    5  C12 UNL     1      19.809   4.275  49.460  1.00  0.00     0.235 C 
HETATM    6  N3  UNL     1      20.032   5.356  50.318  1.00  0.00    -0.241 NA
HETATM    7  C13 UNL     1      21.516   5.501  50.619  1.00  0.00     0.067 C 
HETATM    8  C14 UNL     1      22.059   4.453  51.324  1.00  0.00     0.012 C 
HETATM    9  C15 UNL     1      22.922   3.540  52.040  1.00  0.00     0.086 C 
HETATM   10  C16 UNL     1      22.419   6.523  50.066  1.00  0.00     0.019 A 
HETATM   11  C17 UNL     1      22.709   7.792  50.341  1.00  0.00     0.017 A 
HETATM   12  C18 UNL     1      23.645   8.355  49.526  1.00  0.00     0.020 A 
HETATM   13  C19 UNL     1      24.235   7.661  48.502  1.00  0.00     0.013 A 
HETATM   14 BR1  UNL     1      25.514   8.623  47.478  1.00  0.00    -0.051 Br
HETATM   15  C20 UNL     1      23.945   6.352  48.208  1.00  0.00     0.049 A 
HETATM   16  C21 UNL     1      23.015   5.726  48.987  1.00  0.00     0.047 A 
HETATM   17  N4  UNL     1      22.921   4.328  48.442  1.00  0.00    -0.340 N 
HETATM   18  H16 UNL     1      23.524   4.313  47.622  1.00  0.00     0.167 HD
ENDROOT
BRANCH   1  19
HETATM   19  N1  UNL     1      23.650   1.169  52.034  1.00  0.00    -0.329 N 
HETATM   20  C1  UNL     1      22.868   0.574  53.038  1.00  0.00     0.246 C 
HETATM   21  O1  UNL     1      21.697   0.766  53.453  1.00  0.00    -0.271 OA
HETATM   22  H7  UNL     1      24.620   0.814  51.886  1.00  0.00     0.168 HD
BRANCH  20  23
HETATM   23  C2  UNL     1      23.424  -0.517  53.844  1.00  0.00     0.278 C 
BRANCH  23  24
HETATM   24  O2  UNL     1      24.504  -1.194  53.228  1.00  0.00    -0.342 OA
BRANCH  24  25
HETATM   25  C3  UNL     1      25.838  -0.873  53.531  1.00  0.00     0.069 A 
HETATM   26  C4  UNL     1      26.892  -1.320  52.754  1.00  0.00     0.040 A 
HETATM   27  C5  UNL     1      28.196  -0.995  53.068  1.00  0.00     0.045 A 
HETATM   28  C6  UNL     1      28.413  -0.204  54.192  1.00  0.00     0.116 A 
HETATM   29  F1  UNL     1      29.728   0.061  54.418  1.00  0.00    -0.206 F 
HETATM   30  C7  UNL     1      27.347   0.233  54.958  1.00  0.00     0.045 A 
HETATM   31  C8  UNL     1      26.061  -0.090  54.645  1.00  0.00     0.040 A 
ENDBRANCH  24  25
ENDBRANCH  23  24
ENDBRANCH  20  23
ENDBRANCH   1  19
TORSDOF 4
ENDMDL
MODEL 8
REMARK VINA RESULT:      -7.9      5.120      7.122
REMARK  4 active torsions:
REMARK  status: ('A' for Active; 'I' for Inactive)
REMARK    1  A    between atoms: C1_2  and  C2_3 
REMARK       I    between atoms: C1_2  and  N1_12 
REMARK    2  A    between atoms: C2_3  and  O2_4 
REMARK    3  A    between atoms: O2_4  and  C3_5 
REMARK    4  A    between atoms: N1_12  and  C9_13 
ROOT
HETATM    1  C9  UNL     1      25.646   6.292  49.988  1.00  0.00     0.019 C 
HETATM    2  C10 UNL     1      25.458   7.636  50.255  1.00  0.00     0.075 C 
HETATM    3  C11 UNL     1      26.105   8.839  49.531  1.00  0.00     0.131 C 
HETATM    4  N2  UNL     1      27.135   9.461  50.153  1.00  0.00    -0.224 NA
HETATM    5  C12 UNL     1      28.542   9.412  49.669  1.00  0.00     0.235 C 
HETATM    6  N3  UNL     1      29.141   8.727  48.609  1.00  0.00    -0.241 NA
HETATM    7  C13 UNL     1      28.095   7.975  47.800  1.00  0.00     0.067 C 
HETATM    8  C14 UNL     1      27.468   6.961  48.483  1.00  0.00     0.012 C 
HETATM    9  C15 UNL     1      26.639   5.852  48.900  1.00  0.00     0.086 C 
HETATM   10  C16 UNL     1      27.580   8.359  46.476  1.00  0.00     0.019 A 
HETATM   11  C17 UNL     1      27.984   8.223  45.216  1.00  0.00     0.017 A 
HETATM   12  C18 UNL     1      27.148   8.761  44.284  1.00  0.00     0.020 A 
HETATM   13  C19 UNL     1      25.981   9.394  44.628  1.00  0.00     0.013 A 
HETATM   14 BR1  UNL     1      24.953  10.078  43.184  1.00  0.00    -0.051 Br
HETATM   15  C20 UNL     1      25.552   9.540  45.923  1.00  0.00     0.049 A 
HETATM   16  C21 UNL     1      26.344   9.023  46.909  1.00  0.00     0.047 A 
HETATM   17  N4  UNL     1      25.621   9.321  48.192  1.00  0.00    -0.340 N 
HETATM   18  H16 UNL     1      24.810   9.876  47.927  1.00  0.00     0.167 HD
ENDROOT
BRANCH   1  19
HETATM   19  N1  UNL     1      25.027   5.209  50.673  1.00  0.00    -0.329 N 
HETATM   20  C1  UNL     1      23.765   4.765  50.244  1.00  0.00     0.246 C 
HETATM   21  O1  UNL     1      22.986   5.122  49.324  1.00  0.00    -0.271 OA
HETATM   22  H7  UNL     1      25.472   4.729  51.486  1.00  0.00     0.168 HD
BRANCH  20  23
HETATM   23  C2  UNL     1      23.111   3.650  50.937  1.00  0.00     0.278 C 
BRANCH  23  24
HETATM   24  O2  UNL     1      23.660   2.382  50.631  1.00  0.00    -0.342 OA
BRANCH  24  25
HETATM   25  C3  UNL     1      24.045   1.488  51.644  1.00  0.00     0.069 A 
HETATM   26  C4  UNL     1      23.117   0.773  52.380  1.00  0.00     0.040 A 
HETATM   27  C5  UNL     1      23.515  -0.100  53.372  1.00  0.00     0.045 A 
HETATM   28  C6  UNL     1      24.879  -0.236  53.606  1.00  0.00     0.116 A 
HETATM   29  F1  UNL     1      25.170  -1.117  54.601  1.00  0.00    -0.206 F 
HETATM   30  C7  UNL     1      25.792   0.487  52.862  1.00  0.00     0.045 A 
HETATM   31  C8  UNL     1      25.397   1.349  51.882  1.00  0.00     0.040 A 
ENDBRANCH  24  25
ENDBRANCH  23  24
ENDBRANCH  20  23
ENDBRANCH   1  19
TORSDOF 4
ENDMDL
MODEL 9
REMARK VINA RESULT:      -7.9      4.824      6.808
REMARK  4 active torsions:
REMARK  status: ('A' for Active; 'I' for Inactive)
REMARK    1  A    between atoms: C1_2  and  C2_3 
REMARK       I    between atoms: C1_2  and  N1_12 
REMARK    2  A    between atoms: C2_3  and  O2_4 
REMARK    3  A    between atoms: O2_4  and  C3_5 
REMARK    4  A    between atoms: N1_12  and  C9_13 
ROOT
HETATM    1  C9  UNL     1      26.560   7.320  48.593  1.00  0.00     0.019 C 
HETATM    2  C10 UNL     1      26.388   7.782  47.301  1.00  0.00     0.075 C 
HETATM    3  C11 UNL     1      26.784   9.165  46.735  1.00  0.00     0.131 C 
HETATM    4  N2  UNL     1      25.795  10.075  46.566  1.00  0.00    -0.224 NA
HETATM    5  C12 UNL     1      25.667  11.315  47.382  1.00  0.00     0.235 C 
HETATM    6  N3  UNL     1      26.395  11.793  48.474  1.00  0.00    -0.241 NA
HETATM    7  C13 UNL     1      27.560  10.867  48.785  1.00  0.00     0.067 C 
HETATM    8  C14 UNL     1      27.194   9.612  49.208  1.00  0.00     0.012 C 
HETATM    9  C15 UNL     1      27.153   8.243  49.670  1.00  0.00     0.086 C 
HETATM   10  C16 UNL     1      28.979  11.126  48.488  1.00  0.00     0.019 A 
HETATM   11  C17 UNL     1      29.967  11.809  49.061  1.00  0.00     0.017 A 
HETATM   12  C18 UNL     1      31.156  11.761  48.397  1.00  0.00     0.020 A 
HETATM   13  C19 UNL     1      31.313  11.063  47.228  1.00  0.00     0.013 A 
HETATM   14 BR1  UNL     1      33.048  11.120  46.456  1.00  0.00    -0.051 Br
HETATM   15  C20 UNL     1      30.303  10.354  46.627  1.00  0.00     0.049 A 
HETATM   16  C21 UNL     1      29.083  10.359  47.241  1.00  0.00     0.047 A 
HETATM   17  N4  UNL     1      28.202   9.505  46.373  1.00  0.00    -0.340 N 
HETATM   18  H16 UNL     1      28.772   9.255  45.568  1.00  0.00     0.167 HD
ENDROOT
BRANCH   1  19
HETATM   19  N1  UNL     1      26.188   6.035  49.078  1.00  0.00    -0.329 N 
HETATM   20  C1  UNL     1      27.090   4.967  48.936  1.00  0.00     0.246 C 
HETATM   21  O1  UNL     1      28.242   4.864  48.442  1.00  0.00    -0.271 OA
HETATM   22  H7  UNL     1      25.269   5.850  49.537  1.00  0.00     0.168 HD
BRANCH  20  23
HETATM   23  C2  UNL     1      26.725   3.635  49.428  1.00  0.00     0.278 C 
BRANCH  23  24
HETATM   24  O2  UNL     1      25.964   3.653  50.621  1.00  0.00    -0.342 OA
BRANCH  24  25
HETATM   25  C3  UNL     1      25.705   2.474  51.342  1.00  0.00     0.069 A 
HETATM   26  C4  UNL     1      26.687   1.527  51.570  1.00  0.00     0.040 A 
HETATM   27  C5  UNL     1      26.414   0.374  52.279  1.00  0.00     0.045 A 
HETATM   28  C6  UNL     1      25.119   0.199  52.755  1.00  0.00     0.116 A 
HETATM   29  F1  UNL     1      24.949  -0.965  53.439  1.00  0.00    -0.206 F 
HETATM   30  C7  UNL     1      24.150   1.156  52.516  1.00  0.00     0.045 A 
HETATM   31  C8  UNL     1      24.422   2.293  51.816  1.00  0.00     0.040 A 
ENDBRANCH  24  25
ENDBRANCH  23  24
ENDBRANCH  20  23
ENDBRANCH   1  19
TORSDOF 4
ENDMDL
