MODEL 1
REMARK VINA RESULT:      -7.3      0.000      0.000
REMARK  5 active torsions:
REMARK  status: ('A' for Active; 'I' for Inactive)
REMARK    1  A    between atoms: N1_4  and  C4_5 
REMARK    2  A    between atoms: C4_5  and  C5_6 
REMARK    3  A    between atoms: C5_6  and  O1_7 
REMARK    4  A    between atoms: O1_7  and  C6_8 
REMARK    5  A    between atoms: C6_8  and  C7_9 
ROOT
HETATM    1  C7  UNL     1      24.136   3.874  51.551  1.00  0.00     0.059 C 
HETATM    2  C8  UNL     1      22.858   4.014  52.369  1.00  0.00     0.020 C 
HETATM    3  C9  UNL     1      21.837   4.862  51.780  1.00  0.00     0.096 C 
HETATM    4  C10 UNL     1      20.632   4.367  51.569  1.00  0.00     0.084 C 
HETATM    5  N2  UNL     1      20.321   3.476  52.415  1.00  0.00    -0.210 NA
HETATM    6  N3  UNL     1      21.127   2.298  52.389  1.00  0.00    -0.294 N 
HETATM    7  C11 UNL     1      19.914   1.479  52.337  1.00  0.00     0.108 C 
HETATM    8  C12 UNL     1      19.503   0.832  51.222  1.00  0.00     0.017 C 
HETATM    9  C13 UNL     1      20.176   0.829  49.917  1.00  0.00     0.003 C 
HETATM   10  C14 UNL     1      21.144   1.190  49.038  1.00  0.00     0.154 C 
HETATM   11  N4  UNL     1      22.265   1.907  48.814  1.00  0.00    -0.305 NA
HETATM   12  C15 UNL     1      23.174   2.650  49.194  1.00  0.00     0.180 C 
HETATM   13  C16 UNL     1      23.958   3.477  50.155  1.00  0.00     0.036 C 
HETATM   14  N5  UNL     1      24.890   3.988  49.421  1.00  0.00    -0.306 NA
HETATM   15  H17 UNL     1      21.705   1.397  52.368  1.00  0.00     0.187 HD
HETATM   16  H23 UNL     1      25.097   3.942  48.439  1.00  0.00     0.186 HD
ENDROOT
BRANCH   1  17
HETATM   17  C6  UNL     1      24.973   2.846  52.276  1.00  0.00     0.178 C 
BRANCH  17  18
HETATM   18  O1  UNL     1      24.101   1.942  52.929  1.00  0.00    -0.389 OA
BRANCH  18  19
HETATM   19  C5  UNL     1      24.340   0.624  52.626  1.00  0.00     0.187 C 
BRANCH  19  20
HETATM   20  C4  UNL     1      24.575  -0.255  53.833  1.00  0.00     0.143 C 
BRANCH  20  21
HETATM   21  N1  UNL     1      25.930  -0.593  54.065  1.00  0.00    -0.406 N 
HETATM   22  C3  UNL     1      26.699   0.220  54.917  1.00  0.00     0.148 C 
HETATM   23  C2  UNL     1      28.190   0.135  54.798  1.00  0.00     0.135 C 
HETATM   24  C1  UNL     1      28.861   1.381  54.287  1.00  0.00     0.041 C 
HETATM   25  O2  UNL     1      28.645  -0.964  54.065  1.00  0.00    -0.383 OA
HETATM   26  C18 UNL     1      27.968  -1.015  52.826  1.00  0.00     0.187 C 
HETATM   27  C17 UNL     1      26.567  -1.482  53.178  1.00  0.00     0.143 C 
ENDBRANCH  20  21
ENDBRANCH  19  20
ENDBRANCH  18  19
ENDBRANCH  17  18
ENDBRANCH   1  17
TORSDOF 5
ENDMDL
MODEL 2
REMARK VINA RESULT:      -7.3      1.811      3.630
REMARK  5 active torsions:
REMARK  status: ('A' for Active; 'I' for Inactive)
REMARK    1  A    between atoms: N1_4  and  C4_5 
REMARK    2  A    between atoms: C4_5  and  C5_6 
REMARK    3  A    between atoms: C5_6  and  O1_7 
REMARK    4  A    between atoms: O1_7  and  C6_8 
REMARK    5  A    between atoms: C6_8  and  C7_9 
ROOT
HETATM    1  C7  UNL     1      23.634   1.922  51.388  1.00  0.00     0.059 C 
HETATM    2  C8  UNL     1      24.739   2.924  51.082  1.00  0.00     0.020 C 
HETATM    3  C9  UNL     1      24.928   3.226  49.674  1.00  0.00     0.096 C 
HETATM    4  C10 UNL     1      24.854   4.480  49.270  1.00  0.00     0.084 C 
HETATM    5  N2  UNL     1      25.231   5.298  50.161  1.00  0.00    -0.210 NA
HETATM    6  N3  UNL     1      24.432   5.327  51.344  1.00  0.00    -0.294 N 
HETATM    7  C11 UNL     1      24.342   6.785  51.237  1.00  0.00     0.108 C 
HETATM    8  C12 UNL     1      23.218   7.432  50.851  1.00  0.00     0.017 C 
HETATM    9  C13 UNL     1      21.936   6.814  50.490  1.00  0.00     0.003 C 
HETATM   10  C14 UNL     1      21.099   5.769  50.271  1.00  0.00     0.154 C 
HETATM   11  N4  UNL     1      20.936   4.430  50.249  1.00  0.00    -0.305 NA
HETATM   12  C15 UNL     1      21.351   3.281  50.428  1.00  0.00     0.180 C 
HETATM   13  C16 UNL     1      22.326   2.218  50.803  1.00  0.00     0.036 C 
HETATM   14  N5  UNL     1      21.691   1.124  50.544  1.00  0.00    -0.306 NA
HETATM   15  H17 UNL     1      23.831   5.381  52.228  1.00  0.00     0.187 HD
HETATM   16  H23 UNL     1      20.790   0.927  50.148  1.00  0.00     0.186 HD
ENDROOT
BRANCH   1  17
HETATM   17  C6  UNL     1      23.526   1.882  52.895  1.00  0.00     0.178 C 
BRANCH  17  18
HETATM   18  O1  UNL     1      22.709   0.783  53.254  1.00  0.00    -0.389 OA
BRANCH  18  19
HETATM   19  C5  UNL     1      23.367  -0.422  53.253  1.00  0.00     0.187 C 
BRANCH  19  20
HETATM   20  C4  UNL     1      24.306  -0.615  54.422  1.00  0.00     0.143 C 
BRANCH  20  21
HETATM   21  N1  UNL     1      25.682  -0.534  54.095  1.00  0.00    -0.406 N 
HETATM   22  C3  UNL     1      26.485   0.412  54.757  1.00  0.00     0.148 C 
HETATM   23  C2  UNL     1      27.778   0.800  54.108  1.00  0.00     0.135 C 
HETATM   24  C1  UNL     1      27.850   2.226  53.633  1.00  0.00     0.041 C 
HETATM   25  O2  UNL     1      28.177  -0.048  53.072  1.00  0.00    -0.383 OA
HETATM   26  C18 UNL     1      27.108  -0.216  52.164  1.00  0.00     0.187 C 
HETATM   27  C17 UNL     1      26.128  -1.116  52.893  1.00  0.00     0.143 C 
ENDBRANCH  20  21
ENDBRANCH  19  20
ENDBRANCH  18  19
ENDBRANCH  17  18
ENDBRANCH   1  17
TORSDOF 5
ENDMDL
MODEL 3
REMARK VINA RESULT:      -7.1      1.981      3.011
REMARK  5 active torsions:
REMARK  status: ('A' for Active; 'I' for Inactive)
REMARK    1  A    between atoms: N1_4  and  C4_5 
REMARK    2  A    between atoms: C4_5  and  C5_6 
REMARK    3  A    between atoms: C5_6  and  O1_7 
REMARK    4  A    between atoms: O1_7  and  C6_8 
REMARK    5  A    between atoms: C6_8  and  C7_9 
ROOT
HETATM    1  C7  UNL     1      22.922   2.289  52.023  1.00  0.00     0.059 C 
HETATM    2  C8  UNL     1      22.314   0.945  52.404  1.00  0.00     0.020 C 
HETATM    3  C9  UNL     1      21.685   0.900  53.711  1.00  0.00     0.096 C 
HETATM    4  C10 UNL     1      20.420   0.533  53.805  1.00  0.00     0.084 C 
HETATM    5  N2  UNL     1      20.089  -0.290  52.901  1.00  0.00    -0.210 NA
HETATM    6  N3  UNL     1      20.147   0.210  51.565  1.00  0.00    -0.294 N 
HETATM    7  C11 UNL     1      18.785  -0.276  51.332  1.00  0.00     0.108 C 
HETATM    8  C12 UNL     1      17.710   0.541  51.247  1.00  0.00     0.017 C 
HETATM    9  C13 UNL     1      17.716   2.005  51.362  1.00  0.00     0.003 C 
HETATM   10  C14 UNL     1      18.297   3.216  51.557  1.00  0.00     0.154 C 
HETATM   11  N4  UNL     1      19.428   3.904  51.816  1.00  0.00    -0.305 NA
HETATM   12  C15 UNL     1      20.646   3.962  52.005  1.00  0.00     0.180 C 
HETATM   13  C16 UNL     1      22.037   3.447  52.148  1.00  0.00     0.036 C 
HETATM   14  N5  UNL     1      22.719   4.503  52.446  1.00  0.00    -0.306 NA
HETATM   15  H17 UNL     1      20.161   0.575  50.559  1.00  0.00     0.187 HD
HETATM   16  H23 UNL     1      22.469   5.461  52.611  1.00  0.00     0.186 HD
ENDROOT
BRANCH   1  17
HETATM   17  C6  UNL     1      23.375   2.140  50.589  1.00  0.00     0.178 C 
BRANCH  17  18
HETATM   18  O1  UNL     1      24.601   2.829  50.434  1.00  0.00    -0.389 OA
BRANCH  18  19
HETATM   19  C5  UNL     1      25.421   2.757  51.534  1.00  0.00     0.187 C 
BRANCH  19  20
HETATM   20  C4  UNL     1      26.633   1.874  51.343  1.00  0.00     0.143 C 
BRANCH  20  21
HETATM   21  N1  UNL     1      26.897   0.990  52.418  1.00  0.00    -0.406 N 
HETATM   22  C3  UNL     1      28.074   1.162  53.168  1.00  0.00     0.148 C 
HETATM   23  C2  UNL     1      28.562  -0.005  53.970  1.00  0.00     0.135 C 
HETATM   24  C1  UNL     1      29.869  -0.592  53.510  1.00  0.00     0.041 C 
HETATM   25  O2  UNL     1      27.626  -1.032  54.116  1.00  0.00    -0.383 OA
HETATM   26  C18 UNL     1      27.111  -1.384  52.849  1.00  0.00     0.187 C 
HETATM   27  C17 UNL     1      26.197  -0.230  52.478  1.00  0.00     0.143 C 
ENDBRANCH  20  21
ENDBRANCH  19  20
ENDBRANCH  18  19
ENDBRANCH  17  18
ENDBRANCH   1  17
TORSDOF 5
ENDMDL
MODEL 4
REMARK VINA RESULT:      -7.0      1.597      1.905
REMARK  5 active torsions:
REMARK  status: ('A' for Active; 'I' for Inactive)
REMARK    1  A    between atoms: N1_4  and  C4_5 
REMARK    2  A    between atoms: C4_5  and  C5_6 
REMARK    3  A    between atoms: C5_6  and  O1_7 
REMARK    4  A    between atoms: O1_7  and  C6_8 
REMARK    5  A    between atoms: C6_8  and  C7_9 
ROOT
HETATM    1  C7  UNL     1      24.315   5.054  50.278  1.00  0.00     0.059 C 
HETATM    2  C8  UNL     1      23.632   4.507  51.525  1.00  0.00     0.020 C 
HETATM    3  C9  UNL     1      22.249   4.911  51.699  1.00  0.00     0.096 C 
HETATM    4  C10 UNL     1      21.318   3.984  51.823  1.00  0.00     0.084 C 
HETATM    5  N2  UNL     1      21.757   2.931  52.375  1.00  0.00    -0.210 NA
HETATM    6  N3  UNL     1      22.766   2.232  51.648  1.00  0.00    -0.294 N 
HETATM    7  C11 UNL     1      22.008   0.989  51.805  1.00  0.00     0.108 C 
HETATM    8  C12 UNL     1      21.328   0.402  50.792  1.00  0.00     0.017 C 
HETATM    9  C13 UNL     1      21.237   0.884  49.408  1.00  0.00     0.003 C 
HETATM   10  C14 UNL     1      21.482   1.752  48.395  1.00  0.00     0.154 C 
HETATM   11  N4  UNL     1      22.062   2.905  48.004  1.00  0.00    -0.305 NA
HETATM   12  C15 UNL     1      22.757   3.902  48.222  1.00  0.00     0.180 C 
HETATM   13  C16 UNL     1      23.610   4.832  49.016  1.00  0.00     0.036 C 
HETATM   14  N5  UNL     1      23.850   5.796  48.191  1.00  0.00    -0.306 NA
HETATM   15  H17 UNL     1      23.507   1.682  51.105  1.00  0.00     0.187 HD
HETATM   16  H23 UNL     1      23.552   5.991  47.253  1.00  0.00     0.186 HD
ENDROOT
BRANCH   1  17
HETATM   17  C6  UNL     1      25.672   4.389  50.233  1.00  0.00     0.178 C 
BRANCH  17  18
HETATM   18  O1  UNL     1      25.496   3.000  50.436  1.00  0.00    -0.389 OA
BRANCH  18  19
HETATM   19  C5  UNL     1      26.532   2.402  51.110  1.00  0.00     0.187 C 
BRANCH  19  20
HETATM   20  C4  UNL     1      26.341   2.341  52.608  1.00  0.00     0.143 C 
BRANCH  20  21
HETATM   21  N1  UNL     1      26.747   1.123  53.208  1.00  0.00    -0.406 N 
HETATM   22  C3  UNL     1      27.949   1.091  53.939  1.00  0.00     0.148 C 
HETATM   23  C2  UNL     1      28.586  -0.245  54.167  1.00  0.00     0.135 C 
HETATM   24  C1  UNL     1      29.909  -0.445  53.480  1.00  0.00     0.041 C 
HETATM   25  O2  UNL     1      27.755  -1.332  53.887  1.00  0.00    -0.383 OA
HETATM   26  C18 UNL     1      27.197  -1.177  52.598  1.00  0.00     0.187 C 
HETATM   27  C17 UNL     1      26.163  -0.078  52.763  1.00  0.00     0.143 C 
ENDBRANCH  20  21
ENDBRANCH  19  20
ENDBRANCH  18  19
ENDBRANCH  17  18
ENDBRANCH   1  17
TORSDOF 5
ENDMDL
MODEL 5
REMARK VINA RESULT:      -6.9      1.334      3.812
REMARK  5 active torsions:
REMARK  status: ('A' for Active; 'I' for Inactive)
REMARK    1  A    between atoms: N1_4  and  C4_5 
REMARK    2  A    between atoms: C4_5  and  C5_6 
REMARK    3  A    between atoms: C5_6  and  O1_7 
REMARK    4  A    between atoms: O1_7  and  C6_8 
REMARK    5  A    between atoms: C6_8  and  C7_9 
ROOT
HETATM    1  C7  UNL     1      20.592   0.782  51.198  1.00  0.00     0.059 C 
HETATM    2  C8  UNL     1      21.637   0.849  50.091  1.00  0.00     0.020 C 
HETATM    3  C9  UNL     1      21.187   1.455  48.851  1.00  0.00     0.096 C 
HETATM    4  C10 UNL     1      21.847   2.489  48.363  1.00  0.00     0.084 C 
HETATM    5  N2  UNL     1      23.080   2.455  48.655  1.00  0.00    -0.210 NA
HETATM    6  N3  UNL     1      23.384   2.548  50.046  1.00  0.00    -0.294 N 
HETATM    7  C11 UNL     1      24.343   3.616  49.758  1.00  0.00     0.108 C 
HETATM    8  C12 UNL     1      24.115   4.918  50.051  1.00  0.00     0.017 C 
HETATM    9  C13 UNL     1      22.915   5.470  50.693  1.00  0.00     0.003 C 
HETATM   10  C14 UNL     1      21.675   5.397  51.240  1.00  0.00     0.154 C 
HETATM   11  N4  UNL     1      20.623   4.620  51.568  1.00  0.00    -0.305 NA
HETATM   12  C15 UNL     1      20.068   3.521  51.652  1.00  0.00     0.180 C 
HETATM   13  C16 UNL     1      19.924   2.043  51.519  1.00  0.00     0.036 C 
HETATM   14  N5  UNL     1      18.716   1.822  51.919  1.00  0.00    -0.306 NA
HETATM   15  H17 UNL     1      23.632   2.642  51.084  1.00  0.00     0.187 HD
HETATM   16  H23 UNL     1      17.968   2.421  52.218  1.00  0.00     0.186 HD
ENDROOT
BRANCH   1  17
HETATM   17  C6  UNL     1      21.320   0.261  52.415  1.00  0.00     0.178 C 
BRANCH  17  18
HETATM   18  O1  UNL     1      22.524   0.990  52.561  1.00  0.00    -0.389 OA
BRANCH  18  19
HETATM   19  C5  UNL     1      23.517   0.299  53.210  1.00  0.00     0.187 C 
BRANCH  19  20
HETATM   20  C4  UNL     1      24.879   0.421  52.565  1.00  0.00     0.143 C 
BRANCH  20  21
HETATM   21  N1  UNL     1      25.952  -0.065  53.351  1.00  0.00    -0.406 N 
HETATM   22  C3  UNL     1      26.598   0.814  54.240  1.00  0.00     0.148 C 
HETATM   23  C2  UNL     1      27.972   0.442  54.706  1.00  0.00     0.135 C 
HETATM   24  C1  UNL     1      29.072   1.354  54.236  1.00  0.00     0.041 C 
HETATM   25  O2  UNL     1      28.329  -0.882  54.441  1.00  0.00    -0.383 OA
HETATM   26  C18 UNL     1      28.090  -1.170  53.078  1.00  0.00     0.187 C 
HETATM   27  C17 UNL     1      26.579  -1.267  52.971  1.00  0.00     0.143 C 
ENDBRANCH  20  21
ENDBRANCH  19  20
ENDBRANCH  18  19
ENDBRANCH  17  18
ENDBRANCH   1  17
TORSDOF 5
ENDMDL
MODEL 6
REMARK VINA RESULT:      -6.8      7.898     10.965
REMARK  5 active torsions:
REMARK  status: ('A' for Active; 'I' for Inactive)
REMARK    1  A    between atoms: N1_4  and  C4_5 
REMARK    2  A    between atoms: C4_5  and  C5_6 
REMARK    3  A    between atoms: C5_6  and  O1_7 
REMARK    4  A    between atoms: O1_7  and  C6_8 
REMARK    5  A    between atoms: C6_8  and  C7_9 
ROOT
HETATM    1  C7  UNL     1      31.602   7.479  49.308  1.00  0.00     0.059 C 
HETATM    2  C8  UNL     1      32.524   8.232  48.358  1.00  0.00     0.020 C 
HETATM    3  C9  UNL     1      33.933   7.901  48.471  1.00  0.00     0.096 C 
HETATM    4  C10 UNL     1      34.583   7.481  47.401  1.00  0.00     0.084 C 
HETATM    5  N2  UNL     1      34.120   7.975  46.330  1.00  0.00    -0.210 NA
HETATM    6  N3  UNL     1      32.777   7.609  46.016  1.00  0.00    -0.294 N 
HETATM    7  C11 UNL     1      33.203   7.234  44.666  1.00  0.00     0.108 C 
HETATM    8  C12 UNL     1      33.308   5.950  44.251  1.00  0.00     0.017 C 
HETATM    9  C13 UNL     1      33.019   4.750  45.046  1.00  0.00     0.003 C 
HETATM   10  C14 UNL     1      32.656   4.084  46.171  1.00  0.00     0.154 C 
HETATM   11  N4  UNL     1      32.283   4.161  47.465  1.00  0.00    -0.305 NA
HETATM   12  C15 UNL     1      31.985   4.807  48.474  1.00  0.00     0.180 C 
HETATM   13  C16 UNL     1      31.733   6.022  49.300  1.00  0.00     0.036 C 
HETATM   14  N5  UNL     1      31.465   5.540  50.468  1.00  0.00    -0.306 NA
HETATM   15  H17 UNL     1      31.779   7.325  45.751  1.00  0.00     0.187 HD
HETATM   16  H23 UNL     1      31.449   4.609  50.843  1.00  0.00     0.186 HD
ENDROOT
BRANCH   1  17
HETATM   17  C6  UNL     1      30.197   7.871  48.910  1.00  0.00     0.178 C 
BRANCH  17  18
HETATM   18  O1  UNL     1      29.991   7.486  47.565  1.00  0.00    -0.389 OA
BRANCH  18  19
HETATM   19  C5  UNL     1      28.668   7.361  47.220  1.00  0.00     0.187 C 
BRANCH  19  20
HETATM   20  C4  UNL     1      27.724   7.305  48.400  1.00  0.00     0.143 C 
BRANCH  20  21
HETATM   21  N1  UNL     1      26.929   6.135  48.468  1.00  0.00    -0.406 N 
HETATM   22  C3  UNL     1      25.552   6.261  48.727  1.00  0.00     0.148 C 
HETATM   23  C2  UNL     1      24.830   5.053  49.241  1.00  0.00     0.135 C 
HETATM   24  C1  UNL     1      24.312   5.172  50.649  1.00  0.00     0.041 C 
HETATM   25  O2  UNL     1      25.547   3.860  49.117  1.00  0.00    -0.383 OA
HETATM   26  C18 UNL     1      26.840   4.029  49.661  1.00  0.00     0.187 C 
HETATM   27  C17 UNL     1      27.568   4.893  48.647  1.00  0.00     0.143 C 
ENDBRANCH  20  21
ENDBRANCH  19  20
ENDBRANCH  18  19
ENDBRANCH  17  18
ENDBRANCH   1  17
TORSDOF 5
ENDMDL
MODEL 7
REMARK VINA RESULT:      -6.6      1.941      3.008
REMARK  5 active torsions:
REMARK  status: ('A' for Active; 'I' for Inactive)
REMARK    1  A    between atoms: N1_4  and  C4_5 
REMARK    2  A    between atoms: C4_5  and  C5_6 
REMARK    3  A    between atoms: C5_6  and  O1_7 
REMARK    4  A    between atoms: O1_7  and  C6_8 
REMARK    5  A    between atoms: C6_8  and  C7_9 
ROOT
HETATM    1  C7  UNL     1      22.788   3.366  52.503  1.00  0.00     0.059 C 
HETATM    2  C8  UNL     1      21.582   2.854  51.725  1.00  0.00     0.020 C 
HETATM    3  C9  UNL     1      20.467   3.778  51.635  1.00  0.00     0.096 C 
HETATM    4  C10 UNL     1      20.011   4.123  50.445  1.00  0.00     0.084 C 
HETATM    5  N2  UNL     1      20.156   3.201  49.587  1.00  0.00    -0.210 NA
HETATM    6  N3  UNL     1      21.507   2.849  49.289  1.00  0.00    -0.294 N 
HETATM    7  C11 UNL     1      21.218   2.980  47.859  1.00  0.00     0.108 C 
HETATM    8  C12 UNL     1      21.662   4.013  47.105  1.00  0.00     0.017 C 
HETATM    9  C13 UNL     1      22.485   5.138  47.564  1.00  0.00     0.003 C 
HETATM   10  C14 UNL     1      23.159   5.864  48.491  1.00  0.00     0.154 C 
HETATM   11  N4  UNL     1      23.526   5.996  49.783  1.00  0.00    -0.305 NA
HETATM   12  C15 UNL     1      23.565   5.593  50.949  1.00  0.00     0.180 C 
HETATM   13  C16 UNL     1      23.304   4.670  52.090  1.00  0.00     0.036 C 
HETATM   14  N5  UNL     1      23.815   5.292  53.101  1.00  0.00    -0.306 NA
HETATM   15  H17 UNL     1      22.514   2.588  49.035  1.00  0.00     0.187 HD
HETATM   16  H23 UNL     1      24.254   6.188  53.209  1.00  0.00     0.186 HD
ENDROOT
BRANCH   1  17
HETATM   17  C6  UNL     1      23.858   2.312  52.336  1.00  0.00     0.178 C 
BRANCH  17  18
HETATM   18  O1  UNL     1      25.007   2.927  51.785  1.00  0.00    -0.389 OA
BRANCH  18  19
HETATM   19  C5  UNL     1      26.191   2.410  52.250  1.00  0.00     0.187 C 
BRANCH  19  20
HETATM   20  C4  UNL     1      26.133   1.921  53.679  1.00  0.00     0.143 C 
BRANCH  20  21
HETATM   21  N1  UNL     1      26.826   0.709  53.920  1.00  0.00    -0.406 N 
HETATM   22  C3  UNL     1      28.139   0.763  54.422  1.00  0.00     0.148 C 
HETATM   23  C2  UNL     1      29.000  -0.449  54.242  1.00  0.00     0.135 C 
HETATM   24  C1  UNL     1      30.177  -0.263  53.324  1.00  0.00     0.041 C 
HETATM   25  O2  UNL     1      28.302  -1.598  53.864  1.00  0.00    -0.383 OA
HETATM   26  C18 UNL     1      27.484  -1.306  52.750  1.00  0.00     0.187 C 
HETATM   27  C17 UNL     1      26.351  -0.472  53.319  1.00  0.00     0.143 C 
ENDBRANCH  20  21
ENDBRANCH  19  20
ENDBRANCH  18  19
ENDBRANCH  17  18
ENDBRANCH   1  17
TORSDOF 5
ENDMDL
MODEL 8
REMARK VINA RESULT:      -6.6      3.329      6.239
REMARK  5 active torsions:
REMARK  status: ('A' for Active; 'I' for Inactive)
REMARK    1  A    between atoms: N1_4  and  C4_5 
REMARK    2  A    between atoms: C4_5  and  C5_6 
REMARK    3  A    between atoms: C5_6  and  O1_7 
REMARK    4  A    between atoms: O1_7  and  C6_8 
REMARK    5  A    between atoms: C6_8  and  C7_9 
ROOT
HETATM    1  C7  UNL     1      22.991   3.299  51.316  1.00  0.00     0.059 C 
HETATM    2  C8  UNL     1      21.656   2.568  51.380  1.00  0.00     0.020 C 
HETATM    3  C9  UNL     1      21.562   1.379  50.552  1.00  0.00     0.096 C 
HETATM    4  C10 UNL     1      21.248   0.227  51.114  1.00  0.00     0.084 C 
HETATM    5  N2  UNL     1      20.496   0.371  52.123  1.00  0.00    -0.210 NA
HETATM    6  N3  UNL     1      21.070   1.081  53.220  1.00  0.00    -0.294 N 
HETATM    7  C11 UNL     1      20.661   0.003  54.122  1.00  0.00     0.108 C 
HETATM    8  C12 UNL     1      21.530  -0.884  54.660  1.00  0.00     0.017 C 
HETATM    9  C13 UNL     1      22.983  -0.920  54.450  1.00  0.00     0.003 C 
HETATM   10  C14 UNL     1      24.152  -0.496  53.907  1.00  0.00     0.154 C 
HETATM   11  N4  UNL     1      24.772   0.371  53.080  1.00  0.00    -0.305 NA
HETATM   12  C15 UNL     1      24.763   1.341  52.318  1.00  0.00     0.180 C 
HETATM   13  C16 UNL     1      24.179   2.479  51.553  1.00  0.00     0.036 C 
HETATM   14  N5  UNL     1      25.183   2.938  50.884  1.00  0.00    -0.306 NA
HETATM   15  H17 UNL     1      21.493   1.590  54.062  1.00  0.00     0.187 HD
HETATM   16  H23 UNL     1      26.140   2.650  50.792  1.00  0.00     0.186 HD
ENDROOT
BRANCH   1  17
HETATM   17  C6  UNL     1      22.906   4.395  52.354  1.00  0.00     0.178 C 
BRANCH  17  18
HETATM   18  O1  UNL     1      23.736   5.464  51.942  1.00  0.00    -0.389 OA
BRANCH  18  19
HETATM   19  C5  UNL     1      23.248   6.163  50.866  1.00  0.00     0.187 C 
BRANCH  19  20
HETATM   20  C4  UNL     1      23.739   7.590  50.781  1.00  0.00     0.143 C 
BRANCH  20  21
HETATM   21  N1  UNL     1      24.733   7.817  49.798  1.00  0.00    -0.406 N 
HETATM   22  C3  UNL     1      25.053   6.782  48.901  1.00  0.00     0.148 C 
HETATM   23  C2  UNL     1      26.372   6.858  48.195  1.00  0.00     0.135 C 
HETATM   24  C1  UNL     1      27.357   5.783  48.568  1.00  0.00     0.041 C 
HETATM   25  O2  UNL     1      26.999   8.104  48.284  1.00  0.00    -0.383 OA
HETATM   26  C18 UNL     1      27.048   8.510  49.636  1.00  0.00     0.187 C 
HETATM   27  C17 UNL     1      25.619   8.898  49.968  1.00  0.00     0.143 C 
ENDBRANCH  20  21
ENDBRANCH  19  20
ENDBRANCH  18  19
ENDBRANCH  17  18
ENDBRANCH   1  17
TORSDOF 5
ENDMDL
MODEL 9
REMARK VINA RESULT:      -6.6      1.713      3.399
REMARK  5 active torsions:
REMARK  status: ('A' for Active; 'I' for Inactive)
REMARK    1  A    between atoms: N1_4  and  C4_5 
REMARK    2  A    between atoms: C4_5  and  C5_6 
REMARK    3  A    between atoms: C5_6  and  O1_7 
REMARK    4  A    between atoms: O1_7  and  C6_8 
REMARK    5  A    between atoms: C6_8  and  C7_9 
ROOT
HETATM    1  C7  UNL     1      22.911   1.778  51.057  1.00  0.00     0.059 C 
HETATM    2  C8  UNL     1      22.585   2.051  49.594  1.00  0.00     0.020 C 
HETATM    3  C9  UNL     1      21.560   1.199  49.020  1.00  0.00     0.096 C 
HETATM    4  C10 UNL     1      20.494   1.754  48.473  1.00  0.00     0.084 C 
HETATM    5  N2  UNL     1      20.745   2.890  47.970  1.00  0.00    -0.210 NA
HETATM    6  N3  UNL     1      21.151   3.895  48.898  1.00  0.00    -0.294 N 
HETATM    7  C11 UNL     1      20.149   4.805  48.339  1.00  0.00     0.108 C 
HETATM    8  C12 UNL     1      19.004   5.132  48.981  1.00  0.00     0.017 C 
HETATM    9  C13 UNL     1      18.579   4.657  50.304  1.00  0.00     0.003 C 
HETATM   10  C14 UNL     1      18.705   3.931  51.443  1.00  0.00     0.154 C 
HETATM   11  N4  UNL     1      19.438   3.046  52.150  1.00  0.00    -0.305 NA
HETATM   12  C15 UNL     1      20.441   2.345  52.306  1.00  0.00     0.180 C 
HETATM   13  C16 UNL     1      21.768   1.755  51.970  1.00  0.00     0.036 C 
HETATM   14  N5  UNL     1      21.988   0.935  52.943  1.00  0.00    -0.306 NA
HETATM   15  H17 UNL     1      21.433   4.668  49.583  1.00  0.00     0.187 HD
HETATM   16  H23 UNL     1      21.451   0.656  53.744  1.00  0.00     0.186 HD
ENDROOT
BRANCH   1  17
HETATM   17  C6  UNL     1      23.877   2.864  51.469  1.00  0.00     0.178 C 
BRANCH  17  18
HETATM   18  O1  UNL     1      23.755   3.063  52.864  1.00  0.00    -0.389 OA
BRANCH  18  19
HETATM   19  C5  UNL     1      24.903   2.791  53.567  1.00  0.00     0.187 C 
BRANCH  19  20
HETATM   20  C4  UNL     1      25.997   2.154  52.740  1.00  0.00     0.143 C 
BRANCH  20  21
HETATM   21  N1  UNL     1      26.564   0.987  53.307  1.00  0.00    -0.406 N 
HETATM   22  C3  UNL     1      27.778   1.092  54.011  1.00  0.00     0.148 C 
HETATM   23  C2  UNL     1      28.581  -0.158  54.200  1.00  0.00     0.135 C 
HETATM   24  C1  UNL     1      29.901  -0.183  53.479  1.00  0.00     0.041 C 
HETATM   25  O2  UNL     1      27.884  -1.336  53.918  1.00  0.00    -0.383 OA
HETATM   26  C18 UNL     1      27.279  -1.231  52.645  1.00  0.00     0.187 C 
HETATM   27  C17 UNL     1      26.122  -0.271  52.853  1.00  0.00     0.143 C 
ENDBRANCH  20  21
ENDBRANCH  19  20
ENDBRANCH  18  19
ENDBRANCH  17  18
ENDBRANCH   1  17
TORSDOF 5
ENDMDL
