MODEL 1
REMARK VINA RESULT:      -8.1      0.000      0.000
REMARK  5 active torsions:
REMARK  status: ('A' for Active; 'I' for Inactive)
REMARK    1  A    between atoms: N1_1  and  C1_2 
REMARK    2  A    between atoms: C2_4  and  N3_5 
REMARK    3  A    between atoms: C3_6  and  C4_7 
REMARK    4  A    between atoms: C4_7  and  O1_8 
REMARK    5  A    between atoms: C9_15  and  N5_16 
ROOT
HETATM    1  C1  UNL     1      26.550   2.818  51.045  1.00  0.00     0.155 A 
HETATM    2  N2  UNL     1      27.177   1.835  51.652  1.00  0.00    -0.045 NA
HETATM    3  C2  UNL     1      26.915   1.001  52.602  1.00  0.00     0.726 A 
HETATM    4  N4  UNL     1      25.673   1.108  53.166  1.00  0.00    -0.042 NA
HETATM    5  C5  UNL     1      24.843   2.083  52.642  1.00  0.00     0.184 A 
HETATM    6  C6  UNL     1      25.294   2.921  51.596  1.00  0.00     0.067 A 
HETATM    7  C7  UNL     1      24.135   3.787  51.378  1.00  0.00    -0.012 C 
HETATM    8  C8  UNL     1      24.391   5.017  50.783  1.00  0.00     0.056 C 
HETATM    9  S1  UNL     1      22.684   5.757  50.776  1.00  0.00    -0.104 SA
HETATM   10  C9  UNL     1      22.475   4.850  52.504  1.00  0.00     0.306 C 
HETATM   11  C10 UNL     1      22.767   3.559  51.724  1.00  0.00     0.132 C 
HETATM   12  C11 UNL     1      21.660   3.497  50.661  1.00  0.00     0.165 A 
HETATM   13  C12 UNL     1      20.581   4.330  50.567  1.00  0.00     0.059 A 
HETATM   14  C13 UNL     1      20.084   3.491  51.818  1.00  0.00     0.254 A 
HETATM   15  N6  UNL     1      21.182   2.592  51.969  1.00  0.00    -0.011 N 
HETATM   16  C14 UNL     1      20.763   1.448  50.931  1.00  0.00     0.249 C 
HETATM   17  C15 UNL     1      21.639   2.185  49.802  1.00  0.00     0.070 C 
HETATM   18  C16 UNL     1      22.491   2.244  52.431  1.00  0.00     0.228 C 
HETATM   19  N7  UNL     1      23.495   1.746  53.069  1.00  0.00    -0.206 NA
ENDROOT
BRANCH   3  20
HETATM   20  N3  UNL     1      27.767  -0.076  52.954  1.00  0.00    -0.220 N 
HETATM   21  C3  UNL     1      28.586  -1.112  53.290  1.00  0.00     0.164 C 
HETATM   22  H3  UNL     1      27.543   0.118  53.934  1.00  0.00     0.177 HD
BRANCH  21  23
HETATM   23  C4  UNL     1      27.992  -2.431  52.813  1.00  0.00     0.184 C 
BRANCH  23  24
HETATM   24  O1  UNL     1      28.601  -3.510  53.426  1.00  0.00    -0.399 OA
HETATM   25  H8  UNL     1      28.799  -4.264  52.774  1.00  0.00     0.209 HD
ENDBRANCH  23  24
ENDBRANCH  21  23
ENDBRANCH   3  20
BRANCH   1  26
HETATM   26  N1  UNL     1      26.826   3.742  50.061  1.00  0.00    -0.383 N 
HETATM   27  H1  UNL     1      26.137   4.467  50.322  1.00  0.00     0.157 HD
HETATM   28  H2  UNL     1      27.516   3.774  49.238  1.00  0.00     0.157 HD
ENDBRANCH   1  26
BRANCH  10  29
HETATM   29  N5  UNL     1      23.609   5.240  53.257  1.00  0.00     0.094 N 
HETATM   30  H11 UNL     1      23.255   5.876  54.020  1.00  0.00     0.314 HD
HETATM   31  H12 UNL     1      24.046   4.407  53.695  1.00  0.00     0.314 HD
ENDBRANCH  10  29
TORSDOF 5
ENDMDL
MODEL 2
REMARK VINA RESULT:      -7.6      1.782      3.370
REMARK  5 active torsions:
REMARK  status: ('A' for Active; 'I' for Inactive)
REMARK    1  A    between atoms: N1_1  and  C1_2 
REMARK    2  A    between atoms: C2_4  and  N3_5 
REMARK    3  A    between atoms: C3_6  and  C4_7 
REMARK    4  A    between atoms: C4_7  and  O1_8 
REMARK    5  A    between atoms: C9_15  and  N5_16 
ROOT
HETATM    1  C1  UNL     1      23.773  -0.125  53.650  1.00  0.00     0.155 A 
HETATM    2  N2  UNL     1      25.035  -0.490  53.697  1.00  0.00    -0.045 NA
HETATM    3  C2  UNL     1      26.112  -0.228  53.034  1.00  0.00     0.726 A 
HETATM    4  N4  UNL     1      25.977   0.659  52.001  1.00  0.00    -0.042 NA
HETATM    5  C5  UNL     1      24.711   1.181  51.801  1.00  0.00     0.184 A 
HETATM    6  C6  UNL     1      23.633   0.780  52.623  1.00  0.00     0.067 A 
HETATM    7  C7  UNL     1      22.519   1.542  52.058  1.00  0.00    -0.012 C 
HETATM    8  C8  UNL     1      21.247   1.033  52.293  1.00  0.00     0.056 C 
HETATM    9  S1  UNL     1      20.208   2.262  51.359  1.00  0.00    -0.104 SA
HETATM   10  C9  UNL     1      21.694   2.275  50.075  1.00  0.00     0.306 C 
HETATM   11  C10 UNL     1      22.556   2.729  51.264  1.00  0.00     0.132 C 
HETATM   12  C11 UNL     1      21.903   4.039  51.730  1.00  0.00     0.165 A 
HETATM   13  C12 UNL     1      20.890   4.705  51.102  1.00  0.00     0.059 A 
HETATM   14  C13 UNL     1      22.045   5.087  50.086  1.00  0.00     0.254 A 
HETATM   15  N6  UNL     1      23.146   4.411  50.693  1.00  0.00    -0.011 N 
HETATM   16  C14 UNL     1      23.607   5.512  51.760  1.00  0.00     0.249 C 
HETATM   17  C15 UNL     1      22.679   4.799  52.862  1.00  0.00     0.070 C 
HETATM   18  C16 UNL     1      23.946   3.253  50.952  1.00  0.00     0.228 C 
HETATM   19  N7  UNL     1      24.882   2.368  50.979  1.00  0.00    -0.206 NA
ENDROOT
BRANCH   3  20
HETATM   20  N3  UNL     1      27.398  -0.680  53.422  1.00  0.00    -0.220 N 
HETATM   21  C3  UNL     1      28.635  -1.114  53.793  1.00  0.00     0.164 C 
HETATM   22  H3  UNL     1      26.985  -0.967  54.314  1.00  0.00     0.177 HD
BRANCH  21  23
HETATM   23  C4  UNL     1      29.054  -2.306  52.940  1.00  0.00     0.184 C 
BRANCH  23  24
HETATM   24  O1  UNL     1      28.579  -3.493  53.465  1.00  0.00    -0.399 OA
HETATM   25  H8  UNL     1      29.295  -4.213  53.503  1.00  0.00     0.209 HD
ENDBRANCH  23  24
ENDBRANCH  21  23
ENDBRANCH   3  20
BRANCH   1  26
HETATM   26  N1  UNL     1      22.607  -0.423  54.319  1.00  0.00    -0.383 N 
HETATM   27  H1  UNL     1      22.935  -1.238  54.863  1.00  0.00     0.157 HD
HETATM   28  H2  UNL     1      21.618   0.002  54.325  1.00  0.00     0.157 HD
ENDBRANCH   1  26
BRANCH  10  29
HETATM   29  N5  UNL     1      21.932   0.910  49.784  1.00  0.00     0.094 N 
HETATM   30  H11 UNL     1      21.001   0.421  49.870  1.00  0.00     0.314 HD
HETATM   31  H12 UNL     1      22.270   0.812  48.807  1.00  0.00     0.314 HD
ENDBRANCH  10  29
TORSDOF 5
ENDMDL
MODEL 3
REMARK VINA RESULT:      -7.5      1.535      1.759
REMARK  5 active torsions:
REMARK  status: ('A' for Active; 'I' for Inactive)
REMARK    1  A    between atoms: N1_1  and  C1_2 
REMARK    2  A    between atoms: C2_4  and  N3_5 
REMARK    3  A    between atoms: C3_6  and  C4_7 
REMARK    4  A    between atoms: C4_7  and  O1_8 
REMARK    5  A    between atoms: C9_15  and  N5_16 
ROOT
HETATM    1  C1  UNL     1      26.486   3.109  50.839  1.00  0.00     0.155 A 
HETATM    2  N2  UNL     1      27.032   2.127  51.523  1.00  0.00    -0.045 NA
HETATM    3  C2  UNL     1      26.614   1.134  52.234  1.00  0.00     0.726 A 
HETATM    4  N4  UNL     1      25.256   1.007  52.343  1.00  0.00    -0.042 NA
HETATM    5  C5  UNL     1      24.495   1.944  51.667  1.00  0.00     0.184 A 
HETATM    6  C6  UNL     1      25.120   2.977  50.932  1.00  0.00     0.067 A 
HETATM    7  C7  UNL     1      23.970   3.722  50.416  1.00  0.00    -0.012 C 
HETATM    8  C8  UNL     1      24.202   5.049  50.074  1.00  0.00     0.056 C 
HETATM    9  S1  UNL     1      22.495   5.573  49.554  1.00  0.00    -0.104 SA
HETATM   10  C9  UNL     1      21.884   4.397  51.003  1.00  0.00     0.306 C 
HETATM   11  C10 UNL     1      22.621   3.283  50.244  1.00  0.00     0.132 C 
HETATM   12  C11 UNL     1      21.947   3.250  48.864  1.00  0.00     0.165 A 
HETATM   13  C12 UNL     1      20.838   3.954  48.489  1.00  0.00     0.059 A 
HETATM   14  C13 UNL     1      20.104   2.883  49.400  1.00  0.00     0.254 A 
HETATM   15  N6  UNL     1      21.223   2.109  49.828  1.00  0.00    -0.011 N 
HETATM   16  C14 UNL     1      21.358   1.093  48.598  1.00  0.00     0.249 C 
HETATM   17  C15 UNL     1      22.422   2.090  47.922  1.00  0.00     0.070 C 
HETATM   18  C16 UNL     1      22.348   1.853  50.675  1.00  0.00     0.228 C 
HETATM   19  N7  UNL     1      23.156   1.388  51.566  1.00  0.00    -0.206 NA
ENDROOT
BRANCH   3  20
HETATM   20  N3  UNL     1      27.468   0.125  52.747  1.00  0.00    -0.220 N 
HETATM   21  C3  UNL     1      28.288  -0.844  53.241  1.00  0.00     0.164 C 
HETATM   22  H3  UNL     1      27.886   0.060  51.814  1.00  0.00     0.177 HD
BRANCH  21  23
HETATM   23  C4  UNL     1      29.248  -0.251  54.265  1.00  0.00     0.184 C 
BRANCH  23  24
HETATM   24  O1  UNL     1      28.606   0.648  55.097  1.00  0.00    -0.399 OA
HETATM   25  H8  UNL     1      29.048   0.714  56.010  1.00  0.00     0.209 HD
ENDBRANCH  23  24
ENDBRANCH  21  23
ENDBRANCH   3  20
BRANCH   1  26
HETATM   26  N1  UNL     1      26.913   4.197  50.111  1.00  0.00    -0.383 N 
HETATM   27  H1  UNL     1      27.830   3.835  49.801  1.00  0.00     0.157 HD
HETATM   28  H2  UNL     1      26.492   5.161  49.891  1.00  0.00     0.157 HD
ENDBRANCH   1  26
BRANCH  10  29
HETATM   29  N5  UNL     1      22.630   4.802  52.136  1.00  0.00     0.094 N 
HETATM   30  H11 UNL     1      21.940   4.904  52.926  1.00  0.00     0.314 HD
HETATM   31  H12 UNL     1      23.317   4.065  52.387  1.00  0.00     0.314 HD
ENDBRANCH  10  29
TORSDOF 5
ENDMDL
MODEL 4
REMARK VINA RESULT:      -7.1      2.068      3.888
REMARK  5 active torsions:
REMARK  status: ('A' for Active; 'I' for Inactive)
REMARK    1  A    between atoms: N1_1  and  C1_2 
REMARK    2  A    between atoms: C2_4  and  N3_5 
REMARK    3  A    between atoms: C3_6  and  C4_7 
REMARK    4  A    between atoms: C4_7  and  O1_8 
REMARK    5  A    between atoms: C9_15  and  N5_16 
ROOT
HETATM    1  C1  UNL     1      24.492   2.114  52.561  1.00  0.00     0.155 A 
HETATM    2  N2  UNL     1      25.694   1.658  52.839  1.00  0.00    -0.045 NA
HETATM    3  C2  UNL     1      26.876   1.760  52.330  1.00  0.00     0.726 A 
HETATM    4  N4  UNL     1      26.979   2.536  51.208  1.00  0.00    -0.042 NA
HETATM    5  C5  UNL     1      25.811   3.131  50.763  1.00  0.00     0.184 A 
HETATM    6  C6  UNL     1      24.591   2.908  51.442  1.00  0.00     0.067 A 
HETATM    7  C7  UNL     1      23.649   3.689  50.639  1.00  0.00    -0.012 C 
HETATM    8  C8  UNL     1      22.314   3.311  50.721  1.00  0.00     0.056 C 
HETATM    9  S1  UNL     1      21.545   4.508  49.522  1.00  0.00    -0.104 SA
HETATM   10  C9  UNL     1      23.197   4.263  48.490  1.00  0.00     0.306 C 
HETATM   11  C10 UNL     1      23.914   4.775  49.750  1.00  0.00     0.132 C 
HETATM   12  C11 UNL     1      23.327   6.176  49.979  1.00  0.00     0.165 A 
HETATM   13  C12 UNL     1      22.484   6.847  49.140  1.00  0.00     0.059 A 
HETATM   14  C13 UNL     1      23.808   7.023  48.284  1.00  0.00     0.254 A 
HETATM   15  N6  UNL     1      24.738   6.333  49.118  1.00  0.00    -0.011 N 
HETATM   16  C14 UNL     1      25.140   7.504  50.132  1.00  0.00     0.249 C 
HETATM   17  C15 UNL     1      23.997   6.992  51.140  1.00  0.00     0.070 C 
HETATM   18  C16 UNL     1      25.378   5.151  49.609  1.00  0.00     0.228 C 
HETATM   19  N7  UNL     1      26.212   4.203  49.867  1.00  0.00    -0.206 NA
ENDROOT
BRANCH   3  20
HETATM   20  N3  UNL     1      28.043   1.254  52.955  1.00  0.00    -0.220 N 
HETATM   21  C3  UNL     1      29.164   0.765  53.556  1.00  0.00     0.164 C 
HETATM   22  H3  UNL     1      28.296   2.221  53.177  1.00  0.00     0.177 HD
BRANCH  21  23
HETATM   23  C4  UNL     1      28.791  -0.034  54.799  1.00  0.00     0.184 C 
BRANCH  23  24
HETATM   24  O1  UNL     1      27.422  -0.191  54.905  1.00  0.00    -0.399 OA
HETATM   25  H8  UNL     1      27.039   0.285  55.718  1.00  0.00     0.209 HD
ENDBRANCH  23  24
ENDBRANCH  21  23
ENDBRANCH   3  20
BRANCH   1  26
HETATM   26  N1  UNL     1      23.217   1.984  53.065  1.00  0.00    -0.383 N 
HETATM   27  H1  UNL     1      23.149   2.885  53.567  1.00  0.00     0.157 HD
HETATM   28  H2  UNL     1      22.466   1.217  53.011  1.00  0.00     0.157 HD
ENDBRANCH   1  26
BRANCH  10  29
HETATM   29  N5  UNL     1      23.345   2.860  48.373  1.00  0.00     0.094 N 
HETATM   30  H11 UNL     1      24.104   2.583  49.050  1.00  0.00     0.314 HD
HETATM   31  H12 UNL     1      22.463   2.388  48.650  1.00  0.00     0.314 HD
ENDBRANCH  10  29
TORSDOF 5
ENDMDL
MODEL 5
REMARK VINA RESULT:      -6.9      2.291      3.198
REMARK  5 active torsions:
REMARK  status: ('A' for Active; 'I' for Inactive)
REMARK    1  A    between atoms: N1_1  and  C1_2 
REMARK    2  A    between atoms: C2_4  and  N3_5 
REMARK    3  A    between atoms: C3_6  and  C4_7 
REMARK    4  A    between atoms: C4_7  and  O1_8 
REMARK    5  A    between atoms: C9_15  and  N5_16 
ROOT
HETATM    1  C1  UNL     1      23.994   3.908  53.005  1.00  0.00     0.155 A 
HETATM    2  N2  UNL     1      24.845   3.026  53.482  1.00  0.00    -0.045 NA
HETATM    3  C2  UNL     1      25.032   1.752  53.379  1.00  0.00     0.726 A 
HETATM    4  N4  UNL     1      24.151   1.082  52.574  1.00  0.00    -0.042 NA
HETATM    5  C5  UNL     1      23.180   1.848  51.955  1.00  0.00     0.184 A 
HETATM    6  C6  UNL     1      23.115   3.243  52.182  1.00  0.00     0.067 A 
HETATM    7  C7  UNL     1      21.961   3.630  51.370  1.00  0.00    -0.012 C 
HETATM    8  C8  UNL     1      21.322   4.810  51.734  1.00  0.00     0.056 C 
HETATM    9  S1  UNL     1      19.933   4.845  50.498  1.00  0.00    -0.104 SA
HETATM   10  C9  UNL     1      19.910   2.895  50.733  1.00  0.00     0.306 C 
HETATM   11  C10 UNL     1      21.372   2.944  50.263  1.00  0.00     0.132 C 
HETATM   12  C11 UNL     1      21.302   3.571  48.863  1.00  0.00     0.165 A 
HETATM   13  C12 UNL     1      20.166   3.855  48.160  1.00  0.00     0.059 A 
HETATM   14  C13 UNL     1      20.132   2.280  47.976  1.00  0.00     0.254 A 
HETATM   15  N6  UNL     1      21.309   1.919  48.698  1.00  0.00    -0.011 N 
HETATM   16  C14 UNL     1      22.417   2.112  47.559  1.00  0.00     0.249 C 
HETATM   17  C15 UNL     1      22.664   3.610  48.086  1.00  0.00     0.070 C 
HETATM   18  C16 UNL     1      22.028   1.624  49.900  1.00  0.00     0.228 C 
HETATM   19  N7  UNL     1      22.657   1.043  50.864  1.00  0.00    -0.206 NA
ENDROOT
BRANCH   3  20
HETATM   20  N3  UNL     1      26.159   1.082  53.915  1.00  0.00    -0.220 N 
HETATM   21  C3  UNL     1      27.244   0.439  54.432  1.00  0.00     0.164 C 
HETATM   22  H3  UNL     1      25.966   0.316  53.263  1.00  0.00     0.177 HD
BRANCH  21  23
HETATM   23  C4  UNL     1      28.521   1.190  54.077  1.00  0.00     0.184 C 
BRANCH  23  24
HETATM   24  O1  UNL     1      28.370   2.552  54.251  1.00  0.00    -0.399 OA
HETATM   25  H8  UNL     1      28.530   2.840  55.213  1.00  0.00     0.209 HD
ENDBRANCH  23  24
ENDBRANCH  21  23
ENDBRANCH   3  20
BRANCH   1  26
HETATM   26  N1  UNL     1      23.754   5.258  53.134  1.00  0.00    -0.383 N 
HETATM   27  H1  UNL     1      22.863   5.215  53.656  1.00  0.00     0.157 HD
HETATM   28  H2  UNL     1      24.274   6.143  52.815  1.00  0.00     0.157 HD
ENDBRANCH   1  26
BRANCH  10  29
HETATM   29  N5  UNL     1      19.847   2.701  52.134  1.00  0.00     0.094 N 
HETATM   30  H11 UNL     1      19.154   1.923  52.296  1.00  0.00     0.314 HD
HETATM   31  H12 UNL     1      20.774   2.400  52.491  1.00  0.00     0.314 HD
ENDBRANCH  10  29
TORSDOF 5
ENDMDL
MODEL 6
REMARK VINA RESULT:      -6.9      2.663      3.413
REMARK  5 active torsions:
REMARK  status: ('A' for Active; 'I' for Inactive)
REMARK    1  A    between atoms: N1_1  and  C1_2 
REMARK    2  A    between atoms: C2_4  and  N3_5 
REMARK    3  A    between atoms: C3_6  and  C4_7 
REMARK    4  A    between atoms: C4_7  and  O1_8 
REMARK    5  A    between atoms: C9_15  and  N5_16 
ROOT
HETATM    1  C1  UNL     1      25.417   2.909  50.833  1.00  0.00     0.155 A 
HETATM    2  N2  UNL     1      25.176   1.949  51.697  1.00  0.00    -0.045 NA
HETATM    3  C2  UNL     1      24.324   1.731  52.644  1.00  0.00     0.726 A 
HETATM    4  N4  UNL     1      23.397   2.716  52.851  1.00  0.00    -0.042 NA
HETATM    5  C5  UNL     1      23.472   3.816  52.016  1.00  0.00     0.184 A 
HETATM    6  C6  UNL     1      24.478   3.896  51.026  1.00  0.00     0.067 A 
HETATM    7  C7  UNL     1      24.199   5.195  50.412  1.00  0.00    -0.012 C 
HETATM    8  C8  UNL     1      25.262   5.804  49.755  1.00  0.00     0.056 C 
HETATM    9  S1  UNL     1      24.466   7.397  49.218  1.00  0.00    -0.104 SA
HETATM   10  C9  UNL     1      23.515   7.295  50.933  1.00  0.00     0.306 C 
HETATM   11  C10 UNL     1      22.985   5.948  50.419  1.00  0.00     0.132 C 
HETATM   12  C11 UNL     1      22.239   6.301  49.123  1.00  0.00     0.165 A 
HETATM   13  C12 UNL     1      21.985   7.557  48.653  1.00  0.00     0.059 A 
HETATM   14  C13 UNL     1      20.919   7.558  49.828  1.00  0.00     0.254 A 
HETATM   15  N6  UNL     1      21.138   6.255  50.366  1.00  0.00    -0.011 N 
HETATM   16  C14 UNL     1      20.201   5.384  49.404  1.00  0.00     0.249 C 
HETATM   17  C15 UNL     1      21.470   5.108  48.457  1.00  0.00     0.070 C 
HETATM   18  C16 UNL     1      21.838   5.315  51.188  1.00  0.00     0.228 C 
HETATM   19  N7  UNL     1      22.191   4.497  52.119  1.00  0.00    -0.206 NA
ENDROOT
BRANCH   3  20
HETATM   20  N3  UNL     1      24.219   0.497  53.333  1.00  0.00    -0.220 N 
HETATM   21  C3  UNL     1      24.118  -0.690  53.994  1.00  0.00     0.164 C 
HETATM   22  H3  UNL     1      24.713   0.937  54.115  1.00  0.00     0.177 HD
BRANCH  21  23
HETATM   23  C4  UNL     1      22.661  -0.987  54.324  1.00  0.00     0.184 C 
BRANCH  23  24
HETATM   24  O1  UNL     1      22.526  -1.490  55.604  1.00  0.00    -0.399 OA
HETATM   25  H8  UNL     1      21.768  -2.164  55.678  1.00  0.00     0.209 HD
ENDBRANCH  23  24
ENDBRANCH  21  23
ENDBRANCH   3  20
BRANCH   1  26
HETATM   26  N1  UNL     1      26.341   3.177  49.848  1.00  0.00    -0.383 N 
HETATM   27  H1  UNL     1      26.353   2.255  49.381  1.00  0.00     0.157 HD
HETATM   28  H2  UNL     1      26.922   4.042  49.582  1.00  0.00     0.157 HD
ENDBRANCH   1  26
BRANCH  10  29
HETATM   29  N5  UNL     1      24.532   7.092  51.898  1.00  0.00     0.094 N 
HETATM   30  H11 UNL     1      25.270   6.500  51.433  1.00  0.00     0.314 HD
HETATM   31  H12 UNL     1      24.954   8.002  52.163  1.00  0.00     0.314 HD
ENDBRANCH  10  29
TORSDOF 5
ENDMDL
MODEL 7
REMARK VINA RESULT:      -6.8      3.796      4.902
REMARK  5 active torsions:
REMARK  status: ('A' for Active; 'I' for Inactive)
REMARK    1  A    between atoms: N1_1  and  C1_2 
REMARK    2  A    between atoms: C2_4  and  N3_5 
REMARK    3  A    between atoms: C3_6  and  C4_7 
REMARK    4  A    between atoms: C4_7  and  O1_8 
REMARK    5  A    between atoms: C9_15  and  N5_16 
ROOT
HETATM    1  C1  UNL     1      26.255   6.981  48.646  1.00  0.00     0.155 A 
HETATM    2  N2  UNL     1      27.473   6.563  48.381  1.00  0.00    -0.045 NA
HETATM    3  C2  UNL     1      28.138   5.464  48.519  1.00  0.00     0.726 A 
HETATM    4  N4  UNL     1      27.454   4.418  49.075  1.00  0.00    -0.042 NA
HETATM    5  C5  UNL     1      26.133   4.655  49.408  1.00  0.00     0.184 A 
HETATM    6  C6  UNL     1      25.557   5.928  49.192  1.00  0.00     0.067 A 
HETATM    7  C7  UNL     1      24.195   5.736  49.692  1.00  0.00    -0.012 C 
HETATM    8  C8  UNL     1      23.518   6.885  50.083  1.00  0.00     0.056 C 
HETATM    9  S1  UNL     1      21.917   6.152  50.682  1.00  0.00    -0.104 SA
HETATM   10  C9  UNL     1      23.039   4.679  51.334  1.00  0.00     0.306 C 
HETATM   11  C10 UNL     1      23.468   4.519  49.867  1.00  0.00     0.132 C 
HETATM   12  C11 UNL     1      22.158   4.240  49.115  1.00  0.00     0.165 A 
HETATM   13  C12 UNL     1      20.932   4.025  49.678  1.00  0.00     0.059 A 
HETATM   14  C13 UNL     1      21.575   2.623  50.046  1.00  0.00     0.254 A 
HETATM   15  N6  UNL     1      22.874   2.786  49.478  1.00  0.00    -0.011 N 
HETATM   16  C14 UNL     1      22.584   2.351  47.966  1.00  0.00     0.249 C 
HETATM   17  C15 UNL     1      22.328   3.894  47.595  1.00  0.00     0.070 C 
HETATM   18  C16 UNL     1      24.226   3.256  49.500  1.00  0.00     0.228 C 
HETATM   19  N7  UNL     1      25.510   3.351  49.567  1.00  0.00    -0.206 NA
ENDROOT
BRANCH   3  20
HETATM   20  N3  UNL     1      29.438   5.266  47.990  1.00  0.00    -0.220 N 
HETATM   21  C3  UNL     1      30.688   5.074  47.484  1.00  0.00     0.164 C 
HETATM   22  H3  UNL     1      29.224   5.989  47.298  1.00  0.00     0.177 HD
BRANCH  21  23
HETATM   23  C4  UNL     1      31.740   5.528  48.488  1.00  0.00     0.184 C 
BRANCH  23  24
HETATM   24  O1  UNL     1      32.428   4.453  49.018  1.00  0.00    -0.399 OA
HETATM   25  H8  UNL     1      33.421   4.485  48.803  1.00  0.00     0.209 HD
ENDBRANCH  23  24
ENDBRANCH  21  23
ENDBRANCH   3  20
BRANCH   1  26
HETATM   26  N1  UNL     1      25.542   8.155  48.545  1.00  0.00    -0.383 N 
HETATM   27  H1  UNL     1      24.587   7.775  48.654  1.00  0.00     0.157 HD
HETATM   28  H2  UNL     1      25.814   9.184  48.391  1.00  0.00     0.157 HD
ENDBRANCH   1  26
BRANCH  10  29
HETATM   29  N5  UNL     1      24.063   5.309  52.083  1.00  0.00     0.094 N 
HETATM   30  H11 UNL     1      24.597   5.916  51.406  1.00  0.00     0.314 HD
HETATM   31  H12 UNL     1      23.643   5.916  52.813  1.00  0.00     0.314 HD
ENDBRANCH  10  29
TORSDOF 5
ENDMDL
MODEL 8
REMARK VINA RESULT:      -6.8      5.952      8.898
REMARK  5 active torsions:
REMARK  status: ('A' for Active; 'I' for Inactive)
REMARK    1  A    between atoms: N1_1  and  C1_2 
REMARK    2  A    between atoms: C2_4  and  N3_5 
REMARK    3  A    between atoms: C3_6  and  C4_7 
REMARK    4  A    between atoms: C4_7  and  O1_8 
REMARK    5  A    between atoms: C9_15  and  N5_16 
ROOT
HETATM    1  C1  UNL     1      26.518   8.053  49.768  1.00  0.00     0.155 A 
HETATM    2  N2  UNL     1      25.756   7.050  50.148  1.00  0.00    -0.045 NA
HETATM    3  C2  UNL     1      25.698   5.780  49.923  1.00  0.00     0.726 A 
HETATM    4  N4  UNL     1      26.653   5.277  49.082  1.00  0.00    -0.042 NA
HETATM    5  C5  UNL     1      27.575   6.183  48.588  1.00  0.00     0.184 A 
HETATM    6  C6  UNL     1      27.491   7.552  48.935  1.00  0.00     0.067 A 
HETATM    7  C7  UNL     1      28.616   8.123  48.194  1.00  0.00    -0.012 C 
HETATM    8  C8  UNL     1      28.538   9.483  47.913  1.00  0.00     0.056 C 
HETATM    9  S1  UNL     1      30.103   9.722  46.938  1.00  0.00    -0.104 SA
HETATM   10  C9  UNL     1      29.723   7.935  46.222  1.00  0.00     0.306 C 
HETATM   11  C10 UNL     1      29.779   7.470  47.685  1.00  0.00     0.132 C 
HETATM   12  C11 UNL     1      31.194   7.848  48.150  1.00  0.00     0.165 A 
HETATM   13  C12 UNL     1      32.200   8.335  47.366  1.00  0.00     0.059 A 
HETATM   14  C13 UNL     1      32.254   6.833  46.860  1.00  0.00     0.254 A 
HETATM   15  N6  UNL     1      31.212   6.264  47.651  1.00  0.00    -0.011 N 
HETATM   16  C14 UNL     1      32.019   5.929  48.992  1.00  0.00     0.249 C 
HETATM   17  C15 UNL     1      31.571   7.352  49.590  1.00  0.00     0.070 C 
HETATM   18  C16 UNL     1      29.840   5.973  47.935  1.00  0.00     0.228 C 
HETATM   19  N7  UNL     1      28.696   5.400  48.096  1.00  0.00    -0.206 NA
ENDROOT
BRANCH   3  20
HETATM   20  N3  UNL     1      24.822   4.904  50.611  1.00  0.00    -0.220 N 
HETATM   21  C3  UNL     1      23.978   4.063  51.272  1.00  0.00     0.164 C 
HETATM   22  H3  UNL     1      25.627   4.295  50.781  1.00  0.00     0.177 HD
BRANCH  21  23
HETATM   23  C4  UNL     1      23.471   4.721  52.550  1.00  0.00     0.184 C 
BRANCH  23  24
HETATM   24  O1  UNL     1      24.012   5.981  52.717  1.00  0.00    -0.399 OA
HETATM   25  H8  UNL     1      23.501   6.693  52.203  1.00  0.00     0.209 HD
ENDBRANCH  23  24
ENDBRANCH  21  23
ENDBRANCH   3  20
BRANCH   1  26
HETATM   26  N1  UNL     1      26.571   9.415  49.964  1.00  0.00    -0.383 N 
HETATM   27  H1  UNL     1      25.584   9.646  49.767  1.00  0.00     0.157 HD
HETATM   28  H2  UNL     1      27.355  10.102  50.229  1.00  0.00     0.157 HD
ENDBRANCH   1  26
BRANCH  10  29
HETATM   29  N5  UNL     1      28.380   8.003  45.776  1.00  0.00     0.094 N 
HETATM   30  H11 UNL     1      27.844   8.517  46.524  1.00  0.00     0.314 HD
HETATM   31  H12 UNL     1      28.329   8.550  44.895  1.00  0.00     0.314 HD
ENDBRANCH  10  29
TORSDOF 5
ENDMDL
MODEL 9
REMARK VINA RESULT:      -6.8      7.726     10.118
REMARK  5 active torsions:
REMARK  status: ('A' for Active; 'I' for Inactive)
REMARK    1  A    between atoms: N1_1  and  C1_2 
REMARK    2  A    between atoms: C2_4  and  N3_5 
REMARK    3  A    between atoms: C3_6  and  C4_7 
REMARK    4  A    between atoms: C4_7  and  O1_8 
REMARK    5  A    between atoms: C9_15  and  N5_16 
ROOT
HETATM    1  C1  UNL     1      29.390   5.778  48.151  1.00  0.00     0.155 A 
HETATM    2  N2  UNL     1      30.401   4.943  48.053  1.00  0.00    -0.045 NA
HETATM    3  C2  UNL     1      31.540   4.917  47.444  1.00  0.00     0.726 A 
HETATM    4  N4  UNL     1      31.839   6.018  46.689  1.00  0.00    -0.042 NA
HETATM    5  C5  UNL     1      30.897   7.032  46.681  1.00  0.00     0.184 A 
HETATM    6  C6  UNL     1      29.692   6.895  47.407  1.00  0.00     0.067 A 
HETATM    7  C7  UNL     1      29.010   8.154  47.105  1.00  0.00    -0.012 C 
HETATM    8  C8  UNL     1      27.627   8.151  47.243  1.00  0.00     0.056 C 
HETATM    9  S1  UNL     1      27.224   9.886  46.707  1.00  0.00    -0.104 SA
HETATM   10  C9  UNL     1      28.686   9.639  45.419  1.00  0.00     0.306 C 
HETATM   11  C10 UNL     1      29.567   9.390  46.653  1.00  0.00     0.132 C 
HETATM   12  C11 UNL     1      29.449  10.683  47.474  1.00  0.00     0.165 A 
HETATM   13  C12 UNL     1      28.826  11.834  47.084  1.00  0.00     0.059 A 
HETATM   14  C13 UNL     1      30.110  11.973  46.163  1.00  0.00     0.254 A 
HETATM   15  N6  UNL     1      30.810  10.785  46.528  1.00  0.00    -0.011 N 
HETATM   16  C14 UNL     1      31.586  11.296  47.831  1.00  0.00     0.249 C 
HETATM   17  C15 UNL     1      30.375  10.752  48.737  1.00  0.00     0.070 C 
HETATM   18  C16 UNL     1      31.070   9.380  46.441  1.00  0.00     0.228 C 
HETATM   19  N7  UNL     1      31.580   8.221  46.198  1.00  0.00    -0.206 NA
ENDROOT
BRANCH   3  20
HETATM   20  N3  UNL     1      32.514   3.908  47.650  1.00  0.00    -0.220 N 
HETATM   21  C3  UNL     1      33.450   2.939  47.850  1.00  0.00     0.164 C 
HETATM   22  H3  UNL     1      32.254   3.525  46.737  1.00  0.00     0.177 HD
BRANCH  21  23
HETATM   23  C4  UNL     1      34.848   3.547  47.846  1.00  0.00     0.184 C 
BRANCH  23  24
HETATM   24  O1  UNL     1      35.157   4.110  49.069  1.00  0.00    -0.399 OA
HETATM   25  H8  UNL     1      35.162   5.126  49.038  1.00  0.00     0.209 HD
ENDBRANCH  23  24
ENDBRANCH  21  23
ENDBRANCH   3  20
BRANCH   1  26
HETATM   26  N1  UNL     1      28.155   5.806  48.759  1.00  0.00    -0.383 N 
HETATM   27  H1  UNL     1      28.445   6.120  49.700  1.00  0.00     0.157 HD
HETATM   28  H2  UNL     1      27.155   5.580  48.434  1.00  0.00     0.157 HD
ENDBRANCH   1  26
BRANCH  10  29
HETATM   29  N5  UNL     1      28.390   8.417  44.768  1.00  0.00     0.094 N 
HETATM   30  H11 UNL     1      27.349   8.274  44.862  1.00  0.00     0.314 HD
HETATM   31  H12 UNL     1      28.625   8.490  43.759  1.00  0.00     0.314 HD
ENDBRANCH  10  29
TORSDOF 5
ENDMDL
