MODEL 1
REMARK VINA RESULT:      -8.2      0.000      0.000
REMARK  4 active torsions:
REMARK  status: ('A' for Active; 'I' for Inactive)
REMARK    1  A    between atoms: N1_1  and  C1_2 
REMARK    2  A    between atoms: C6_9  and  C7_10 
REMARK    3  A    between atoms: C8_11  and  C9_12 
REMARK    4  A    between atoms: C9_12  and  C10_14 
ROOT
HETATM    1  C1  UNL     1      28.319   1.741  53.641  1.00  0.00     0.137 C 
HETATM    2  S1  UNL     1      27.839   0.157  54.025  1.00  0.00    -0.071 SA
HETATM    3  C2  UNL     1      26.595   0.165  55.141  1.00  0.00     0.055 C 
HETATM    4  C3  UNL     1      25.613   0.472  54.131  1.00  0.00     0.045 C 
HETATM    5  C4  UNL     1      25.743   0.528  52.826  1.00  0.00     0.100 C 
HETATM    6  F1  UNL     1      26.814   0.297  52.065  1.00  0.00    -0.210 F 
HETATM    7  C5  UNL     1      24.825   1.006  51.714  1.00  0.00     0.131 C 
HETATM    8  C6  UNL     1      25.507   2.309  51.268  1.00  0.00     0.060 C 
HETATM    9  N2  UNL     1      26.610   2.818  51.694  1.00  0.00    -0.177 NA
HETATM   10  N3  UNL     1      27.487   2.355  52.651  1.00  0.00    -0.261 N 
HETATM   11  H14 UNL     1      27.759   3.334  52.430  1.00  0.00     0.191 HD
ENDROOT
BRANCH   8  12
HETATM   12  C7  UNL     1      25.078   3.260  50.254  1.00  0.00     0.027 C 
HETATM   13  C8  UNL     1      25.819   4.323  50.114  1.00  0.00    -0.004 C 
BRANCH  13  14
HETATM   14  C9  UNL     1      25.389   5.295  49.083  1.00  0.00     0.113 C 
HETATM   15 BR1  UNL     1      24.291   6.638  49.936  1.00  0.00    -0.082 Br
BRANCH  14  16
HETATM   16  C10 UNL     1      26.643   5.910  48.530  1.00  0.00    -0.040 A 
HETATM   17  C11 UNL     1      27.704   5.016  48.650  1.00  0.00     0.010 A 
HETATM   18  C12 UNL     1      28.972   5.391  48.193  1.00  0.00     0.024 A 
HETATM   19  C13 UNL     1      29.117   6.648  47.636  1.00  0.00     0.034 A 
HETATM   20 CL1  UNL     1      30.677   7.173  47.047  1.00  0.00    -0.084 Cl
HETATM   21  C14 UNL     1      28.058   7.518  47.525  1.00  0.00     0.024 A 
HETATM   22  C15 UNL     1      26.805   7.154  47.974  1.00  0.00     0.010 A 
ENDBRANCH  14  16
ENDBRANCH  13  14
ENDBRANCH   8  12
BRANCH   1  23
HETATM   23  N1  UNL     1      29.414   2.433  54.221  1.00  0.00    -0.281 NA
HETATM   24  H1  UNL     1      29.270   1.778  55.016  1.00  0.00     0.126 HD
HETATM   25  H2  UNL     1      29.421   1.860  55.116  1.00  0.00     0.126 HD
ENDBRANCH   1  23
TORSDOF 4
ENDMDL
MODEL 2
REMARK VINA RESULT:      -8.1      5.822      7.918
REMARK  4 active torsions:
REMARK  status: ('A' for Active; 'I' for Inactive)
REMARK    1  A    between atoms: N1_1  and  C1_2 
REMARK    2  A    between atoms: C6_9  and  C7_10 
REMARK    3  A    between atoms: C8_11  and  C9_12 
REMARK    4  A    between atoms: C9_12  and  C10_14 
ROOT
HETATM    1  C1  UNL     1      27.744  -0.840  53.570  1.00  0.00     0.137 C 
HETATM    2  S1  UNL     1      28.361   0.271  54.698  1.00  0.00    -0.071 SA
HETATM    3  C2  UNL     1      29.208   1.491  53.933  1.00  0.00     0.055 C 
HETATM    4  C3  UNL     1      27.996   2.178  53.561  1.00  0.00     0.045 C 
HETATM    5  C4  UNL     1      26.753   1.931  53.905  1.00  0.00     0.100 C 
HETATM    6  F1  UNL     1      26.263   0.987  54.711  1.00  0.00    -0.210 F 
HETATM    7  C5  UNL     1      25.419   2.482  53.432  1.00  0.00     0.131 C 
HETATM    8  C6  UNL     1      24.839   1.296  52.644  1.00  0.00     0.060 C 
HETATM    9  N2  UNL     1      25.340   0.120  52.490  1.00  0.00    -0.177 NA
HETATM   10  N3  UNL     1      26.514  -0.412  52.976  1.00  0.00    -0.261 N 
HETATM   11  H14 UNL     1      26.145  -1.076  52.264  1.00  0.00     0.191 HD
ENDROOT
BRANCH   8  12
HETATM   12  C7  UNL     1      23.587   1.218  51.907  1.00  0.00     0.027 C 
HETATM   13  C8  UNL     1      22.522   1.625  52.540  1.00  0.00    -0.004 C 
BRANCH  13  14
HETATM   14  C9  UNL     1      21.245   1.551  51.795  1.00  0.00     0.113 C 
HETATM   15 BR1  UNL     1      21.642   1.159  49.945  1.00  0.00    -0.082 Br
BRANCH  14  16
HETATM   16  C10 UNL     1      20.457   0.433  52.416  1.00  0.00    -0.040 A 
HETATM   17  C11 UNL     1      19.208   0.337  51.809  1.00  0.00     0.010 A 
HETATM   18  C12 UNL     1      18.309  -0.646  52.239  1.00  0.00     0.024 A 
HETATM   19  C13 UNL     1      18.708  -1.488  53.261  1.00  0.00     0.034 A 
HETATM   20 CL1  UNL     1      17.629  -2.735  53.841  1.00  0.00    -0.084 Cl
HETATM   21  C14 UNL     1      19.946  -1.380  53.849  1.00  0.00     0.024 A 
HETATM   22  C15 UNL     1      20.836  -0.413  53.428  1.00  0.00     0.010 A 
ENDBRANCH  14  16
ENDBRANCH  13  14
ENDBRANCH   8  12
BRANCH   1  23
HETATM   23  N1  UNL     1      28.353  -2.071  53.209  1.00  0.00    -0.281 NA
HETATM   24  H1  UNL     1      27.542  -2.160  52.564  1.00  0.00     0.126 HD
HETATM   25  H2  UNL     1      27.609  -2.336  52.499  1.00  0.00     0.126 HD
ENDBRANCH   1  23
TORSDOF 4
ENDMDL
MODEL 3
REMARK VINA RESULT:      -8.1      5.555      7.613
REMARK  4 active torsions:
REMARK  status: ('A' for Active; 'I' for Inactive)
REMARK    1  A    between atoms: N1_1  and  C1_2 
REMARK    2  A    between atoms: C6_9  and  C7_10 
REMARK    3  A    between atoms: C8_11  and  C9_12 
REMARK    4  A    between atoms: C9_12  and  C10_14 
ROOT
HETATM    1  C1  UNL     1      28.190   2.029  53.066  1.00  0.00     0.137 C 
HETATM    2  S1  UNL     1      28.623   0.452  53.526  1.00  0.00    -0.071 SA
HETATM    3  C2  UNL     1      28.211   0.162  55.119  1.00  0.00     0.055 C 
HETATM    4  C3  UNL     1      26.828  -0.061  54.782  1.00  0.00     0.045 C 
HETATM    5  C4  UNL     1      26.256  -0.148  53.603  1.00  0.00     0.100 C 
HETATM    6  F1  UNL     1      26.797  -0.075  52.386  1.00  0.00    -0.210 F 
HETATM    7  C5  UNL     1      24.805  -0.205  53.158  1.00  0.00     0.131 C 
HETATM    8  C6  UNL     1      24.606   1.180  52.520  1.00  0.00     0.060 C 
HETATM    9  N2  UNL     1      25.477   2.114  52.356  1.00  0.00    -0.177 NA
HETATM   10  N3  UNL     1      26.813   2.147  52.691  1.00  0.00    -0.261 N 
HETATM   11  H14 UNL     1      26.535   3.116  52.433  1.00  0.00     0.191 HD
ENDROOT
BRANCH   8  12
HETATM   12  C7  UNL     1      23.400   1.752  51.943  1.00  0.00     0.027 C 
HETATM   13  C8  UNL     1      22.491   0.900  51.554  1.00  0.00    -0.004 C 
BRANCH  13  14
HETATM   14  C9  UNL     1      21.260   1.474  50.966  1.00  0.00     0.113 C 
HETATM   15 BR1  UNL     1      21.373   1.313  49.043  1.00  0.00    -0.082 Br
BRANCH  14  16
HETATM   16  C10 UNL     1      20.116   0.660  51.499  1.00  0.00    -0.040 A 
HETATM   17  C11 UNL     1      19.068   0.655  50.583  1.00  0.00     0.010 A 
HETATM   18  C12 UNL     1      17.897  -0.050  50.884  1.00  0.00     0.024 A 
HETATM   19  C13 UNL     1      17.833  -0.718  52.093  1.00  0.00     0.034 A 
HETATM   20 CL1  UNL     1      16.397  -1.616  52.524  1.00  0.00    -0.084 Cl
HETATM   21  C14 UNL     1      18.879  -0.704  52.986  1.00  0.00     0.024 A 
HETATM   22  C15 UNL     1      20.035  -0.010  52.694  1.00  0.00     0.010 A 
ENDBRANCH  14  16
ENDBRANCH  13  14
ENDBRANCH   8  12
BRANCH   1  23
HETATM   23  N1  UNL     1      29.060   3.152  53.051  1.00  0.00    -0.281 NA
HETATM   24  H1  UNL     1      29.760   2.469  52.696  1.00  0.00     0.126 HD
HETATM   25  H2  UNL     1      29.899   2.611  52.685  1.00  0.00     0.126 HD
ENDBRANCH   1  23
TORSDOF 4
ENDMDL
MODEL 4
REMARK VINA RESULT:      -7.9      4.825      7.336
REMARK  4 active torsions:
REMARK  status: ('A' for Active; 'I' for Inactive)
REMARK    1  A    between atoms: N1_1  and  C1_2 
REMARK    2  A    between atoms: C6_9  and  C7_10 
REMARK    3  A    between atoms: C8_11  and  C9_12 
REMARK    4  A    between atoms: C9_12  and  C10_14 
ROOT
HETATM    1  C1  UNL     1      24.799   6.644  50.565  1.00  0.00     0.137 C 
HETATM    2  S1  UNL     1      23.600   7.112  49.456  1.00  0.00    -0.071 SA
HETATM    3  C2  UNL     1      23.786   6.309  48.003  1.00  0.00     0.055 C 
HETATM    4  C3  UNL     1      23.174   5.110  48.521  1.00  0.00     0.045 C 
HETATM    5  C4  UNL     1      22.575   4.905  49.671  1.00  0.00     0.100 C 
HETATM    6  F1  UNL     1      22.344   5.753  50.675  1.00  0.00    -0.210 F 
HETATM    7  C5  UNL     1      22.065   3.653  50.363  1.00  0.00     0.131 C 
HETATM    8  C6  UNL     1      23.077   3.480  51.508  1.00  0.00     0.060 C 
HETATM    9  N2  UNL     1      24.062   4.247  51.823  1.00  0.00    -0.177 NA
HETATM   10  N3  UNL     1      24.488   5.423  51.246  1.00  0.00    -0.261 N 
HETATM   11  H14 UNL     1      25.231   5.117  51.907  1.00  0.00     0.191 HD
ENDROOT
BRANCH   8  12
HETATM   12  C7  UNL     1      23.150   2.425  52.506  1.00  0.00     0.027 C 
HETATM   13  C8  UNL     1      24.292   1.802  52.600  1.00  0.00    -0.004 C 
BRANCH  13  14
HETATM   14  C9  UNL     1      24.374   0.727  53.615  1.00  0.00     0.113 C 
HETATM   15 BR1  UNL     1      23.065  -0.625  53.175  1.00  0.00    -0.082 Br
BRANCH  14  16
HETATM   16  C10 UNL     1      25.765   0.166  53.526  1.00  0.00    -0.040 A 
HETATM   17  C11 UNL     1      26.556   0.692  54.545  1.00  0.00     0.010 A 
HETATM   18  C12 UNL     1      27.895   0.299  54.646  1.00  0.00     0.024 A 
HETATM   19  C13 UNL     1      28.378  -0.606  53.718  1.00  0.00     0.034 A 
HETATM   20 CL1  UNL     1      30.043  -1.134  53.794  1.00  0.00    -0.084 Cl
HETATM   21  C14 UNL     1      27.583  -1.116  52.719  1.00  0.00     0.024 A 
HETATM   22  C15 UNL     1      26.262  -0.732  52.615  1.00  0.00     0.010 A 
ENDBRANCH  14  16
ENDBRANCH  13  14
ENDBRANCH   8  12
BRANCH   1  23
HETATM   23  N1  UNL     1      26.007   7.347  50.819  1.00  0.00    -0.281 NA
HETATM   24  H1  UNL     1      25.379   8.169  50.931  1.00  0.00     0.126 HD
HETATM   25  H2  UNL     1      25.535   8.287  50.969  1.00  0.00     0.126 HD
ENDBRANCH   1  23
TORSDOF 4
ENDMDL
MODEL 5
REMARK VINA RESULT:      -7.8      4.602      7.440
REMARK  4 active torsions:
REMARK  status: ('A' for Active; 'I' for Inactive)
REMARK    1  A    between atoms: N1_1  and  C1_2 
REMARK    2  A    between atoms: C6_9  and  C7_10 
REMARK    3  A    between atoms: C8_11  and  C9_12 
REMARK    4  A    between atoms: C9_12  and  C10_14 
ROOT
HETATM    1  C1  UNL     1      26.832   8.823  50.224  1.00  0.00     0.137 C 
HETATM    2  S1  UNL     1      26.779   9.022  48.538  1.00  0.00    -0.071 SA
HETATM    3  C2  UNL     1      27.799   7.939  47.778  1.00  0.00     0.055 C 
HETATM    4  C3  UNL     1      26.853   6.860  47.919  1.00  0.00     0.045 C 
HETATM    5  C4  UNL     1      25.612   6.884  48.348  1.00  0.00     0.100 C 
HETATM    6  F1  UNL     1      24.871   7.916  48.753  1.00  0.00    -0.210 F 
HETATM    7  C5  UNL     1      24.614   5.792  48.691  1.00  0.00     0.131 C 
HETATM    8  C6  UNL     1      24.546   5.885  50.224  1.00  0.00     0.060 C 
HETATM    9  N2  UNL     1      25.140   6.723  50.999  1.00  0.00    -0.177 NA
HETATM   10  N3  UNL     1      25.990   7.763  50.691  1.00  0.00    -0.261 N 
HETATM   11  H14 UNL     1      26.038   7.619  51.720  1.00  0.00     0.191 HD
ENDROOT
BRANCH   8  12
HETATM   12  C7  UNL     1      23.786   5.062  51.152  1.00  0.00     0.027 C 
HETATM   13  C8  UNL     1      24.298   3.898  51.438  1.00  0.00    -0.004 C 
BRANCH  13  14
HETATM   14  C9  UNL     1      23.531   3.055  52.383  1.00  0.00     0.113 C 
HETATM   15 BR1  UNL     1      21.800   2.688  51.603  1.00  0.00    -0.082 Br
BRANCH  14  16
HETATM   16  C10 UNL     1      24.315   1.785  52.552  1.00  0.00    -0.040 A 
HETATM   17  C11 UNL     1      25.533   1.886  51.884  1.00  0.00     0.010 A 
HETATM   18  C12 UNL     1      26.423   0.806  51.914  1.00  0.00     0.024 A 
HETATM   19  C13 UNL     1      26.048  -0.326  52.614  1.00  0.00     0.034 A 
HETATM   20 CL1  UNL     1      27.118  -1.706  52.687  1.00  0.00    -0.084 Cl
HETATM   21  C14 UNL     1      24.842  -0.408  53.268  1.00  0.00     0.024 A 
HETATM   22  C15 UNL     1      23.961   0.653  53.243  1.00  0.00     0.010 A 
ENDBRANCH  14  16
ENDBRANCH  13  14
ENDBRANCH   8  12
BRANCH   1  23
HETATM   23  N1  UNL     1      27.621   9.592  51.121  1.00  0.00    -0.281 NA
HETATM   24  H1  UNL     1      26.833   9.433  51.781  1.00  0.00     0.126 HD
HETATM   25  H2  UNL     1      26.926   9.538  51.923  1.00  0.00     0.126 HD
ENDBRANCH   1  23
TORSDOF 4
ENDMDL
MODEL 6
REMARK VINA RESULT:      -7.6      1.909      2.425
REMARK  4 active torsions:
REMARK  status: ('A' for Active; 'I' for Inactive)
REMARK    1  A    between atoms: N1_1  and  C1_2 
REMARK    2  A    between atoms: C6_9  and  C7_10 
REMARK    3  A    between atoms: C8_11  and  C9_12 
REMARK    4  A    between atoms: C9_12  and  C10_14 
ROOT
HETATM    1  C1  UNL     1      23.966  -0.159  53.366  1.00  0.00     0.137 C 
HETATM    2  S1  UNL     1      25.439  -0.630  54.068  1.00  0.00    -0.071 SA
HETATM    3  C2  UNL     1      26.340  -1.549  53.003  1.00  0.00     0.055 C 
HETATM    4  C3  UNL     1      26.784  -0.383  52.280  1.00  0.00     0.045 C 
HETATM    5  C4  UNL     1      26.614   0.889  52.558  1.00  0.00     0.100 C 
HETATM    6  F1  UNL     1      26.004   1.461  53.597  1.00  0.00    -0.210 F 
HETATM    7  C5  UNL     1      26.888   2.164  51.779  1.00  0.00     0.131 C 
HETATM    8  C6  UNL     1      25.469   2.639  51.424  1.00  0.00     0.060 C 
HETATM    9  N2  UNL     1      24.345   2.112  51.764  1.00  0.00    -0.177 NA
HETATM   10  N3  UNL     1      24.086   0.998  52.531  1.00  0.00    -0.261 N 
HETATM   11  H14 UNL     1      23.191   1.275  52.077  1.00  0.00     0.191 HD
ENDROOT
BRANCH   8  12
HETATM   12  C7  UNL     1      25.066   3.795  50.639  1.00  0.00     0.027 C 
HETATM   13  C8  UNL     1      25.966   4.280  49.829  1.00  0.00    -0.004 C 
BRANCH  13  14
HETATM   14  C9  UNL     1      25.563   5.457  49.026  1.00  0.00     0.113 C 
HETATM   15 BR1  UNL     1      24.614   6.684  50.179  1.00  0.00    -0.082 Br
BRANCH  14  16
HETATM   16  C10 UNL     1      26.833   6.079  48.520  1.00  0.00    -0.040 A 
HETATM   17  C11 UNL     1      27.860   5.140  48.529  1.00  0.00     0.010 A 
HETATM   18  C12 UNL     1      29.136   5.514  48.093  1.00  0.00     0.024 A 
HETATM   19  C13 UNL     1      29.322   6.817  47.668  1.00  0.00     0.034 A 
HETATM   20 CL1  UNL     1      30.893   7.343  47.112  1.00  0.00    -0.084 Cl
HETATM   21  C14 UNL     1      28.295   7.732  47.665  1.00  0.00     0.024 A 
HETATM   22  C15 UNL     1      27.035   7.368  48.093  1.00  0.00     0.010 A 
ENDBRANCH  14  16
ENDBRANCH  13  14
ENDBRANCH   8  12
BRANCH   1  23
HETATM   23  N1  UNL     1      22.720  -0.817  53.546  1.00  0.00    -0.281 NA
HETATM   24  H1  UNL     1      22.475  -0.372  52.638  1.00  0.00     0.126 HD
HETATM   25  H2  UNL     1      22.294  -0.455  52.643  1.00  0.00     0.126 HD
ENDBRANCH   1  23
TORSDOF 4
ENDMDL
MODEL 7
REMARK VINA RESULT:      -7.5      3.034      3.678
REMARK  4 active torsions:
REMARK  status: ('A' for Active; 'I' for Inactive)
REMARK    1  A    between atoms: N1_1  and  C1_2 
REMARK    2  A    between atoms: C6_9  and  C7_10 
REMARK    3  A    between atoms: C8_11  and  C9_12 
REMARK    4  A    between atoms: C9_12  and  C10_14 
ROOT
HETATM    1  C1  UNL     1      23.953  -0.165  53.536  1.00  0.00     0.137 C 
HETATM    2  S1  UNL     1      22.563  -1.141  53.567  1.00  0.00    -0.071 SA
HETATM    3  C2  UNL     1      21.569  -0.723  54.843  1.00  0.00     0.055 C 
HETATM    4  C3  UNL     1      21.042   0.417  54.134  1.00  0.00     0.045 C 
HETATM    5  C4  UNL     1      21.225   0.786  52.887  1.00  0.00     0.100 C 
HETATM    6  F1  UNL     1      21.932   0.200  51.920  1.00  0.00    -0.210 F 
HETATM    7  C5  UNL     1      20.860   2.042  52.116  1.00  0.00     0.131 C 
HETATM    8  C6  UNL     1      22.230   2.711  51.917  1.00  0.00     0.060 C 
HETATM    9  N2  UNL     1      23.389   2.272  52.266  1.00  0.00    -0.177 NA
HETATM   10  N3  UNL     1      23.736   1.100  52.901  1.00  0.00    -0.261 N 
HETATM   11  H14 UNL     1      24.577   1.714  52.902  1.00  0.00     0.191 HD
ENDROOT
BRANCH   8  12
HETATM   12  C7  UNL     1      22.538   3.981  51.279  1.00  0.00     0.027 C 
HETATM   13  C8  UNL     1      23.211   3.914  50.163  1.00  0.00    -0.004 C 
BRANCH  13  14
HETATM   14  C9  UNL     1      23.528   5.203  49.507  1.00  0.00     0.113 C 
HETATM   15 BR1  UNL     1      23.127   6.631  50.746  1.00  0.00    -0.082 Br
BRANCH  14  16
HETATM   16  C10 UNL     1      24.997   5.169  49.195  1.00  0.00    -0.040 A 
HETATM   17  C11 UNL     1      25.398   6.393  48.665  1.00  0.00     0.010 A 
HETATM   18  C12 UNL     1      26.738   6.577  48.303  1.00  0.00     0.024 A 
HETATM   19  C13 UNL     1      27.612   5.523  48.491  1.00  0.00     0.034 A 
HETATM   20 CL1  UNL     1      29.297   5.693  48.058  1.00  0.00    -0.084 Cl
HETATM   21  C14 UNL     1      27.198   4.321  49.016  1.00  0.00     0.024 A 
HETATM   22  C15 UNL     1      25.879   4.134  49.374  1.00  0.00     0.010 A 
ENDBRANCH  14  16
ENDBRANCH  13  14
ENDBRANCH   8  12
BRANCH   1  23
HETATM   23  N1  UNL     1      25.218  -0.514  54.080  1.00  0.00    -0.281 NA
HETATM   24  H1  UNL     1      25.341  -1.029  53.185  1.00  0.00     0.126 HD
HETATM   25  H2  UNL     1      25.522  -1.090  53.241  1.00  0.00     0.126 HD
ENDBRANCH   1  23
TORSDOF 4
ENDMDL
MODEL 8
REMARK VINA RESULT:      -7.4      5.413      7.985
REMARK  4 active torsions:
REMARK  status: ('A' for Active; 'I' for Inactive)
REMARK    1  A    between atoms: N1_1  and  C1_2 
REMARK    2  A    between atoms: C6_9  and  C7_10 
REMARK    3  A    between atoms: C8_11  and  C9_12 
REMARK    4  A    between atoms: C9_12  and  C10_14 
ROOT
HETATM    1  C1  UNL     1      20.477   2.845  47.755  1.00  0.00     0.137 C 
HETATM    2  S1  UNL     1      21.575   3.510  46.642  1.00  0.00    -0.071 SA
HETATM    3  C2  UNL     1      21.801   5.141  46.928  1.00  0.00     0.055 C 
HETATM    4  C3  UNL     1      22.702   4.882  48.024  1.00  0.00     0.045 C 
HETATM    5  C4  UNL     1      23.215   3.746  48.438  1.00  0.00     0.100 C 
HETATM    6  F1  UNL     1      23.063   2.514  47.948  1.00  0.00    -0.210 F 
HETATM    7  C5  UNL     1      24.018   3.360  49.667  1.00  0.00     0.131 C 
HETATM    8  C6  UNL     1      23.000   2.539  50.476  1.00  0.00     0.060 C 
HETATM    9  N2  UNL     1      21.797   2.217  50.149  1.00  0.00    -0.177 NA
HETATM   10  N3  UNL     1      21.085   2.501  49.005  1.00  0.00    -0.261 N 
HETATM   11  H14 UNL     1      20.413   2.118  49.701  1.00  0.00     0.191 HD
ENDROOT
BRANCH   8  12
HETATM   12  C7  UNL     1      23.161   1.925  51.784  1.00  0.00     0.027 C 
HETATM   13  C8  UNL     1      24.293   1.313  51.995  1.00  0.00    -0.004 C 
BRANCH  13  14
HETATM   14  C9  UNL     1      24.465   0.686  53.326  1.00  0.00     0.113 C 
HETATM   15 BR1  UNL     1      23.147  -0.717  53.511  1.00  0.00    -0.082 Br
BRANCH  14  16
HETATM   16  C10 UNL     1      25.854   0.114  53.349  1.00  0.00    -0.040 A 
HETATM   17  C11 UNL     1      26.674   0.890  54.164  1.00  0.00     0.010 A 
HETATM   18  C12 UNL     1      28.016   0.531  54.327  1.00  0.00     0.024 A 
HETATM   19  C13 UNL     1      28.474  -0.592  53.662  1.00  0.00     0.034 A 
HETATM   20 CL1  UNL     1      30.141  -1.091  53.826  1.00  0.00    -0.084 Cl
HETATM   21  C14 UNL     1      27.649  -1.347  52.861  1.00  0.00     0.024 A 
HETATM   22  C15 UNL     1      26.325  -0.998  52.697  1.00  0.00     0.010 A 
ENDBRANCH  14  16
ENDBRANCH  13  14
ENDBRANCH   8  12
BRANCH   1  23
HETATM   23  N1  UNL     1      19.090   2.643  47.525  1.00  0.00    -0.281 NA
HETATM   24  H1  UNL     1      19.393   1.709  47.181  1.00  0.00     0.126 HD
HETATM   25  H2  UNL     1      19.204   1.659  47.141  1.00  0.00     0.126 HD
ENDBRANCH   1  23
TORSDOF 4
ENDMDL
MODEL 9
REMARK VINA RESULT:      -7.2      4.832      7.649
REMARK  4 active torsions:
REMARK  status: ('A' for Active; 'I' for Inactive)
REMARK    1  A    between atoms: N1_1  and  C1_2 
REMARK    2  A    between atoms: C6_9  and  C7_10 
REMARK    3  A    between atoms: C8_11  and  C9_12 
REMARK    4  A    between atoms: C9_12  and  C10_14 
ROOT
HETATM    1  C1  UNL     1      28.335   9.674  49.019  1.00  0.00     0.137 C 
HETATM    2  S1  UNL     1      29.522   9.286  47.867  1.00  0.00    -0.071 SA
HETATM    3  C2  UNL     1      30.796   8.470  48.576  1.00  0.00     0.055 C 
HETATM    4  C3  UNL     1      30.066   7.226  48.592  1.00  0.00     0.045 C 
HETATM    5  C4  UNL     1      28.903   6.930  48.060  1.00  0.00     0.100 C 
HETATM    6  F1  UNL     1      28.078   7.690  47.337  1.00  0.00    -0.210 F 
HETATM    7  C5  UNL     1      27.991   5.721  48.173  1.00  0.00     0.131 C 
HETATM    8  C6  UNL     1      26.826   6.270  49.013  1.00  0.00     0.060 C 
HETATM    9  N2  UNL     1      26.653   7.470  49.448  1.00  0.00    -0.177 NA
HETATM   10  N3  UNL     1      27.439   8.590  49.289  1.00  0.00    -0.261 N 
HETATM   11  H14 UNL     1      26.726   8.812  50.013  1.00  0.00     0.191 HD
ENDROOT
BRANCH   8  12
HETATM   12  C7  UNL     1      25.646   5.572  49.499  1.00  0.00     0.027 C 
HETATM   13  C8  UNL     1      25.853   4.403  50.038  1.00  0.00    -0.004 C 
BRANCH  13  14
HETATM   14  C9  UNL     1      24.657   3.686  50.536  1.00  0.00     0.113 C 
HETATM   15 BR1  UNL     1      23.568   3.193  49.016  1.00  0.00    -0.082 Br
BRANCH  14  16
HETATM   16  C10 UNL     1      25.161   2.462  51.246  1.00  0.00    -0.040 A 
HETATM   17  C11 UNL     1      24.114   1.838  51.919  1.00  0.00     0.010 A 
HETATM   18  C12 UNL     1      24.367   0.671  52.650  1.00  0.00     0.024 A 
HETATM   19  C13 UNL     1      25.661   0.185  52.670  1.00  0.00     0.034 A 
HETATM   20 CL1  UNL     1      26.038  -1.268  53.565  1.00  0.00    -0.084 Cl
HETATM   21  C14 UNL     1      26.683   0.814  51.998  1.00  0.00     0.024 A 
HETATM   22  C15 UNL     1      26.439   1.964  51.276  1.00  0.00     0.010 A 
ENDBRANCH  14  16
ENDBRANCH  13  14
ENDBRANCH   8  12
BRANCH   1  23
HETATM   23  N1  UNL     1      28.208  10.923  49.684  1.00  0.00    -0.281 NA
HETATM   24  H1  UNL     1      27.195  10.809  49.478  1.00  0.00     0.126 HD
HETATM   25  H2  UNL     1      27.154  10.982  49.567  1.00  0.00     0.126 HD
ENDBRANCH   1  23
TORSDOF 4
ENDMDL
