MODEL 1
REMARK VINA RESULT:      -8.3      0.000      0.000
REMARK  6 active torsions:
REMARK  status: ('A' for Active; 'I' for Inactive)
REMARK    1  A    between atoms: C4_5  and  C5_6 
REMARK    2  A    between atoms: C5_6  and  O1_7 
REMARK    3  A    between atoms: O1_7  and  C6_8 
REMARK    4  A    between atoms: C9_11  and  N1_12 
REMARK    5  A    between atoms: N1_12  and  C10_13 
REMARK    6  A    between atoms: C12_15  and  N2_16 
ROOT
HETATM    1  C6  UNL     1      25.276   4.308  50.329  1.00  0.00     0.091 A 
HETATM    2  C7  UNL     1      26.311   3.702  49.686  1.00  0.00     0.041 A 
HETATM    3  C8  UNL     1      27.214   4.403  48.925  1.00  0.00     0.032 A 
HETATM    4  C9  UNL     1      27.136   5.776  48.759  1.00  0.00     0.035 A 
HETATM    5  C18 UNL     1      26.078   6.361  49.421  1.00  0.00     0.056 A 
HETATM    6  C19 UNL     1      25.152   5.695  50.193  1.00  0.00     0.069 A 
HETATM    7 CL1  UNL     1      23.842   6.582  50.987  1.00  0.00    -0.081 Cl
ENDROOT
BRANCH   4   8
HETATM    8  N1  UNL     1      28.088   6.465  47.964  1.00  0.00    -0.341 N 
HETATM    9  H8  UNL     1      27.694   6.945  47.119  1.00  0.00     0.167 HD
BRANCH   8  10
HETATM   10  C10 UNL     1      29.478   6.573  48.177  1.00  0.00     0.133 A 
HETATM   11  C11 UNL     1      30.305   5.585  47.693  1.00  0.00     0.100 A 
HETATM   12  C12 UNL     1      31.669   5.566  47.830  1.00  0.00     0.130 A 
HETATM   13  N3  UNL     1      32.241   6.589  48.484  1.00  0.00    -0.224 NA
HETATM   14  C17 UNL     1      31.471   7.594  48.983  1.00  0.00     0.237 A 
HETATM   15  N4  UNL     1      30.147   7.540  48.809  1.00  0.00    -0.224 NA
BRANCH  12  16
HETATM   16  N2  UNL     1      32.480   4.524  47.314  1.00  0.00    -0.366 N 
HETATM   17  C13 UNL     1      32.217   3.239  46.722  1.00  0.00     0.124 C 
HETATM   18  C14 UNL     1      33.156   2.282  47.446  1.00  0.00     0.021 C 
HETATM   19  C15 UNL     1      34.320   3.175  47.815  1.00  0.00     0.021 C 
HETATM   20  C16 UNL     1      33.926   4.501  47.252  1.00  0.00     0.124 C 
ENDBRANCH  12  16
ENDBRANCH   8  10
ENDBRANCH   4   8
BRANCH   1  21
HETATM   21  O1  UNL     1      24.305   3.723  51.118  1.00  0.00    -0.345 OA
BRANCH  21  22
HETATM   22  C5  UNL     1      23.876   2.402  50.885  1.00  0.00     0.214 C 
BRANCH  22  23
HETATM   23  C4  UNL     1      24.474   1.409  51.799  1.00  0.00    -0.035 A 
HETATM   24  C3  UNL     1      23.454   0.715  52.612  1.00  0.00     0.008 A 
HETATM   25  C2  UNL     1      24.047  -0.162  53.404  1.00  0.00     0.014 A 
HETATM   26  C1  UNL     1      25.506  -0.141  53.200  1.00  0.00     0.216 A 
HETATM   27  F1  UNL     1      25.893  -1.399  52.735  1.00  0.00    -0.241 F 
HETATM   28  C20 UNL     1      25.662   0.898  52.153  1.00  0.00     0.023 A 
ENDBRANCH  22  23
ENDBRANCH  21  22
ENDBRANCH   1  21
TORSDOF 6
ENDMDL
MODEL 2
REMARK VINA RESULT:      -8.2      5.447      8.412
REMARK  6 active torsions:
REMARK  status: ('A' for Active; 'I' for Inactive)
REMARK    1  A    between atoms: C4_5  and  C5_6 
REMARK    2  A    between atoms: C5_6  and  O1_7 
REMARK    3  A    between atoms: O1_7  and  C6_8 
REMARK    4  A    between atoms: C9_11  and  N1_12 
REMARK    5  A    between atoms: N1_12  and  C10_13 
REMARK    6  A    between atoms: C12_15  and  N2_16 
ROOT
HETATM    1  C6  UNL     1      21.909   3.240  50.138  1.00  0.00     0.091 A 
HETATM    2  C7  UNL     1      21.772   3.417  51.480  1.00  0.00     0.041 A 
HETATM    3  C8  UNL     1      21.677   2.362  52.354  1.00  0.00     0.032 A 
HETATM    4  C9  UNL     1      21.714   1.043  51.932  1.00  0.00     0.035 A 
HETATM    5  C18 UNL     1      21.852   0.896  50.568  1.00  0.00     0.056 A 
HETATM    6  C19 UNL     1      21.952   1.927  49.658  1.00  0.00     0.069 A 
HETATM    7 CL1  UNL     1      22.126   1.584  47.931  1.00  0.00    -0.081 Cl
ENDROOT
BRANCH   4   8
HETATM    8  N1  UNL     1      21.612  -0.020  52.865  1.00  0.00    -0.341 N 
HETATM    9  H8  UNL     1      20.689  -0.517  52.869  1.00  0.00     0.167 HD
BRANCH   8  10
HETATM   10  C10 UNL     1      22.592  -0.472  53.772  1.00  0.00     0.133 A 
HETATM   11  C11 UNL     1      23.917  -0.209  53.507  1.00  0.00     0.100 A 
HETATM   12  C12 UNL     1      24.967  -0.590  54.303  1.00  0.00     0.130 A 
HETATM   13  N3  UNL     1      24.682  -1.269  55.424  1.00  0.00    -0.224 NA
HETATM   14  C17 UNL     1      23.390  -1.556  55.736  1.00  0.00     0.237 A 
HETATM   15  N4  UNL     1      22.420  -1.151  54.909  1.00  0.00    -0.224 NA
BRANCH  12  16
HETATM   16  N2  UNL     1      26.318  -0.296  53.987  1.00  0.00    -0.366 N 
HETATM   17  C13 UNL     1      27.444   0.201  54.732  1.00  0.00     0.124 C 
HETATM   18  C14 UNL     1      28.024   1.309  53.860  1.00  0.00     0.021 C 
HETATM   19  C15 UNL     1      27.665   0.855  52.463  1.00  0.00     0.021 C 
HETATM   20  C16 UNL     1      26.957  -0.440  52.695  1.00  0.00     0.124 C 
ENDBRANCH  12  16
ENDBRANCH   8  10
ENDBRANCH   4   8
BRANCH   1  21
HETATM   21  O1  UNL     1      22.013   4.209  49.158  1.00  0.00    -0.345 OA
BRANCH  21  22
HETATM   22  C5  UNL     1      23.023   5.188  49.207  1.00  0.00     0.214 C 
BRANCH  22  23
HETATM   23  C4  UNL     1      24.391   4.634  49.266  1.00  0.00    -0.035 A 
HETATM   24  C3  UNL     1      25.416   5.645  48.933  1.00  0.00     0.008 A 
HETATM   25  C2  UNL     1      26.615   5.093  49.007  1.00  0.00     0.014 A 
HETATM   26  C1  UNL     1      26.511   3.675  49.394  1.00  0.00     0.216 A 
HETATM   27  F1  UNL     1      27.165   3.514  50.615  1.00  0.00    -0.241 F 
HETATM   28  C20 UNL     1      25.045   3.495  49.532  1.00  0.00     0.023 A 
ENDBRANCH  22  23
ENDBRANCH  21  22
ENDBRANCH   1  21
TORSDOF 6
ENDMDL
MODEL 3
REMARK VINA RESULT:      -8.2      0.917      1.196
REMARK  6 active torsions:
REMARK  status: ('A' for Active; 'I' for Inactive)
REMARK    1  A    between atoms: C4_5  and  C5_6 
REMARK    2  A    between atoms: C5_6  and  O1_7 
REMARK    3  A    between atoms: O1_7  and  C6_8 
REMARK    4  A    between atoms: C9_11  and  N1_12 
REMARK    5  A    between atoms: N1_12  and  C10_13 
REMARK    6  A    between atoms: C12_15  and  N2_16 
ROOT
HETATM    1  C6  UNL     1      25.260   4.232  50.328  1.00  0.00     0.091 A 
HETATM    2  C7  UNL     1      26.321   3.640  49.714  1.00  0.00     0.041 A 
HETATM    3  C8  UNL     1      27.221   4.350  48.958  1.00  0.00     0.032 A 
HETATM    4  C9  UNL     1      27.112   5.719  48.767  1.00  0.00     0.035 A 
HETATM    5  C18 UNL     1      26.028   6.288  49.400  1.00  0.00     0.056 A 
HETATM    6  C19 UNL     1      25.104   5.612  50.167  1.00  0.00     0.069 A 
HETATM    7 CL1  UNL     1      23.760   6.480  50.922  1.00  0.00    -0.081 Cl
ENDROOT
BRANCH   4   8
HETATM    8  N1  UNL     1      28.061   6.417  47.978  1.00  0.00    -0.341 N 
HETATM    9  H8  UNL     1      27.665   6.902  47.136  1.00  0.00     0.167 HD
BRANCH   8  10
HETATM   10  C10 UNL     1      29.451   6.529  48.192  1.00  0.00     0.133 A 
HETATM   11  C11 UNL     1      30.281   5.546  47.703  1.00  0.00     0.100 A 
HETATM   12  C12 UNL     1      31.646   5.532  47.841  1.00  0.00     0.130 A 
HETATM   13  N3  UNL     1      32.214   6.553  48.500  1.00  0.00    -0.224 NA
HETATM   14  C17 UNL     1      31.440   7.552  49.004  1.00  0.00     0.237 A 
HETATM   15  N4  UNL     1      30.116   7.495  48.830  1.00  0.00    -0.224 NA
BRANCH  12  16
HETATM   16  N2  UNL     1      32.460   4.496  47.319  1.00  0.00    -0.366 N 
HETATM   17  C13 UNL     1      32.202   3.215  46.715  1.00  0.00     0.124 C 
HETATM   18  C14 UNL     1      33.140   2.254  47.435  1.00  0.00     0.021 C 
HETATM   19  C15 UNL     1      34.301   3.145  47.816  1.00  0.00     0.021 C 
HETATM   20  C16 UNL     1      33.907   4.475  47.263  1.00  0.00     0.124 C 
ENDBRANCH  12  16
ENDBRANCH   8  10
ENDBRANCH   4   8
BRANCH   1  21
HETATM   21  O1  UNL     1      24.289   3.635  51.110  1.00  0.00    -0.345 OA
BRANCH  21  22
HETATM   22  C5  UNL     1      23.514   2.568  50.619  1.00  0.00     0.214 C 
BRANCH  22  23
HETATM   23  C4  UNL     1      23.314   1.477  51.593  1.00  0.00    -0.035 A 
HETATM   24  C3  UNL     1      24.549   1.167  52.344  1.00  0.00     0.008 A 
HETATM   25  C2  UNL     1      24.307   0.190  53.201  1.00  0.00     0.014 A 
HETATM   26  C1  UNL     1      22.902  -0.244  53.109  1.00  0.00     0.216 A 
HETATM   27  F1  UNL     1      22.295  -0.000  54.342  1.00  0.00    -0.241 F 
HETATM   28  C20 UNL     1      22.366   0.647  52.052  1.00  0.00     0.023 A 
ENDBRANCH  22  23
ENDBRANCH  21  22
ENDBRANCH   1  21
TORSDOF 6
ENDMDL
MODEL 4
REMARK VINA RESULT:      -8.1      2.897      4.485
REMARK  6 active torsions:
REMARK  status: ('A' for Active; 'I' for Inactive)
REMARK    1  A    between atoms: C4_5  and  C5_6 
REMARK    2  A    between atoms: C5_6  and  O1_7 
REMARK    3  A    between atoms: O1_7  and  C6_8 
REMARK    4  A    between atoms: C9_11  and  N1_12 
REMARK    5  A    between atoms: N1_12  and  C10_13 
REMARK    6  A    between atoms: C12_15  and  N2_16 
ROOT
HETATM    1  C6  UNL     1      25.407   1.382  51.963  1.00  0.00     0.091 A 
HETATM    2  C7  UNL     1      26.482   1.789  51.235  1.00  0.00     0.041 A 
HETATM    3  C8  UNL     1      26.418   2.843  50.357  1.00  0.00     0.032 A 
HETATM    4  C9  UNL     1      25.254   3.566  50.151  1.00  0.00     0.035 A 
HETATM    5  C18 UNL     1      24.183   3.130  50.901  1.00  0.00     0.056 A 
HETATM    6  C19 UNL     1      24.206   2.079  51.792  1.00  0.00     0.069 A 
HETATM    7 CL1  UNL     1      22.747   1.632  52.688  1.00  0.00    -0.081 Cl
ENDROOT
BRANCH   4   8
HETATM    8  N1  UNL     1      25.227   4.648  49.234  1.00  0.00    -0.341 N 
HETATM    9  H8  UNL     1      24.604   4.507  48.402  1.00  0.00     0.167 HD
BRANCH   8  10
HETATM   10  C10 UNL     1      25.931   5.868  49.313  1.00  0.00     0.133 A 
HETATM   11  C11 UNL     1      27.069   6.030  48.557  1.00  0.00     0.100 A 
HETATM   12  C12 UNL     1      27.846   7.160  48.540  1.00  0.00     0.130 A 
HETATM   13  N3  UNL     1      27.466   8.185  49.317  1.00  0.00    -0.224 NA
HETATM   14  C17 UNL     1      26.348   8.080  50.085  1.00  0.00     0.237 A 
HETATM   15  N4  UNL     1      25.644   6.945  50.048  1.00  0.00    -0.224 NA
BRANCH  12  16
HETATM   16  N2  UNL     1      29.012   7.280  47.743  1.00  0.00    -0.366 N 
HETATM   17  C13 UNL     1      30.400   6.947  47.927  1.00  0.00     0.124 C 
HETATM   18  C14 UNL     1      31.157   8.193  47.485  1.00  0.00     0.021 C 
HETATM   19  C15 UNL     1      30.234   8.791  46.447  1.00  0.00     0.021 C 
HETATM   20  C16 UNL     1      29.095   7.826  46.405  1.00  0.00     0.124 C 
ENDBRANCH  12  16
ENDBRANCH   8  10
ENDBRANCH   4   8
BRANCH   1  21
HETATM   21  O1  UNL     1      25.339   0.343  52.872  1.00  0.00    -0.345 OA
BRANCH  21  22
HETATM   22  C5  UNL     1      25.997   0.420  54.115  1.00  0.00     0.214 C 
BRANCH  22  23
HETATM   23  C4  UNL     1      27.400  -0.035  54.077  1.00  0.00    -0.035 A 
HETATM   24  C3  UNL     1      27.589  -1.184  53.166  1.00  0.00     0.008 A 
HETATM   25  C2  UNL     1      28.862  -1.541  53.170  1.00  0.00     0.014 A 
HETATM   26  C1  UNL     1      29.641  -0.677  54.074  1.00  0.00     0.216 A 
HETATM   27  F1  UNL     1      30.591  -0.001  53.308  1.00  0.00    -0.241 F 
HETATM   28  C20 UNL     1      28.604   0.247  54.595  1.00  0.00     0.023 A 
ENDBRANCH  22  23
ENDBRANCH  21  22
ENDBRANCH   1  21
TORSDOF 6
ENDMDL
MODEL 5
REMARK VINA RESULT:      -8.0      1.468      2.007
REMARK  6 active torsions:
REMARK  status: ('A' for Active; 'I' for Inactive)
REMARK    1  A    between atoms: C4_5  and  C5_6 
REMARK    2  A    between atoms: C5_6  and  O1_7 
REMARK    3  A    between atoms: O1_7  and  C6_8 
REMARK    4  A    between atoms: C9_11  and  N1_12 
REMARK    5  A    between atoms: N1_12  and  C10_13 
REMARK    6  A    between atoms: C12_15  and  N2_16 
ROOT
HETATM    1  C6  UNL     1      25.146   3.361  50.970  1.00  0.00     0.091 A 
HETATM    2  C7  UNL     1      26.199   2.995  50.190  1.00  0.00     0.041 A 
HETATM    3  C8  UNL     1      26.802   3.865  49.315  1.00  0.00     0.032 A 
HETATM    4  C9  UNL     1      26.381   5.177  49.165  1.00  0.00     0.035 A 
HETATM    5  C18 UNL     1      25.313   5.517  49.968  1.00  0.00     0.056 A 
HETATM    6  C19 UNL     1      24.681   4.675  50.858  1.00  0.00     0.069 A 
HETATM    7 CL1  UNL     1      23.318   5.255  51.825  1.00  0.00    -0.081 Cl
ENDROOT
BRANCH   4   8
HETATM    8  N1  UNL     1      27.029   6.045  48.250  1.00  0.00    -0.341 N 
HETATM    9  H8  UNL     1      26.480   6.262  47.383  1.00  0.00     0.167 HD
BRANCH   8  10
HETATM   10  C10 UNL     1      28.303   6.636  48.372  1.00  0.00     0.133 A 
HETATM   11  C11 UNL     1      29.420   5.863  48.153  1.00  0.00     0.100 A 
HETATM   12  C12 UNL     1      30.714   6.310  48.238  1.00  0.00     0.130 A 
HETATM   13  N3  UNL     1      30.905   7.599  48.557  1.00  0.00    -0.224 NA
HETATM   14  C17 UNL     1      29.836   8.410  48.784  1.00  0.00     0.237 A 
HETATM   15  N4  UNL     1      28.605   7.899  48.683  1.00  0.00    -0.224 NA
BRANCH  12  16
HETATM   16  N2  UNL     1      31.834   5.474  48.003  1.00  0.00    -0.366 N 
HETATM   17  C13 UNL     1      33.222   5.516  48.378  1.00  0.00     0.124 C 
HETATM   18  C14 UNL     1      33.979   5.237  47.085  1.00  0.00     0.021 C 
HETATM   19  C15 UNL     1      33.011   4.369  46.314  1.00  0.00     0.021 C 
HETATM   20  C16 UNL     1      31.850   4.240  47.245  1.00  0.00     0.124 C 
ENDBRANCH  12  16
ENDBRANCH   8  10
ENDBRANCH   4   8
BRANCH   1  21
HETATM   21  O1  UNL     1      24.454   2.588  51.883  1.00  0.00    -0.345 OA
BRANCH  21  22
HETATM   22  C5  UNL     1      24.623   1.191  51.929  1.00  0.00     0.214 C 
BRANCH  22  23
HETATM   23  C4  UNL     1      25.692   0.747  52.845  1.00  0.00    -0.035 A 
HETATM   24  C3  UNL     1      26.533  -0.312  52.248  1.00  0.00     0.008 A 
HETATM   25  C2  UNL     1      27.472  -0.662  53.110  1.00  0.00     0.014 A 
HETATM   26  C1  UNL     1      27.353   0.119  54.354  1.00  0.00     0.216 A 
HETATM   27  F1  UNL     1      28.522   0.867  54.504  1.00  0.00    -0.241 F 
HETATM   28  C20 UNL     1      26.184   0.986  54.069  1.00  0.00     0.023 A 
ENDBRANCH  22  23
ENDBRANCH  21  22
ENDBRANCH   1  21
TORSDOF 6
ENDMDL
MODEL 6
REMARK VINA RESULT:      -8.0      2.043      2.770
REMARK  6 active torsions:
REMARK  status: ('A' for Active; 'I' for Inactive)
REMARK    1  A    between atoms: C4_5  and  C5_6 
REMARK    2  A    between atoms: C5_6  and  O1_7 
REMARK    3  A    between atoms: O1_7  and  C6_8 
REMARK    4  A    between atoms: C9_11  and  N1_12 
REMARK    5  A    between atoms: N1_12  and  C10_13 
REMARK    6  A    between atoms: C12_15  and  N2_16 
ROOT
HETATM    1  C6  UNL     1      24.701   3.137  51.373  1.00  0.00     0.091 A 
HETATM    2  C7  UNL     1      24.121   4.259  50.866  1.00  0.00     0.041 A 
HETATM    3  C8  UNL     1      24.731   5.032  49.909  1.00  0.00     0.032 A 
HETATM    4  C9  UNL     1      25.978   4.724  49.391  1.00  0.00     0.035 A 
HETATM    5  C18 UNL     1      26.540   3.583  49.924  1.00  0.00     0.056 A 
HETATM    6  C19 UNL     1      25.962   2.781  50.884  1.00  0.00     0.069 A 
HETATM    7 CL1  UNL     1      26.806   1.342  51.475  1.00  0.00    -0.081 Cl
ENDROOT
BRANCH   4   8
HETATM    8  N1  UNL     1      26.576   5.548  48.403  1.00  0.00    -0.341 N 
HETATM    9  H8  UNL     1      26.051   5.602  47.496  1.00  0.00     0.167 HD
BRANCH   8  10
HETATM   10  C10 UNL     1      27.773   6.286  48.500  1.00  0.00     0.133 A 
HETATM   11  C11 UNL     1      28.972   5.641  48.294  1.00  0.00     0.100 A 
HETATM   12  C12 UNL     1      30.205   6.237  48.359  1.00  0.00     0.130 A 
HETATM   13  N3  UNL     1      30.247   7.548  48.641  1.00  0.00    -0.224 NA
HETATM   14  C17 UNL     1      29.092   8.236  48.853  1.00  0.00     0.237 A 
HETATM   15  N4  UNL     1      27.928   7.584  48.774  1.00  0.00    -0.224 NA
BRANCH  12  16
HETATM   16  N2  UNL     1      31.414   5.530  48.140  1.00  0.00    -0.366 N 
HETATM   17  C13 UNL     1      32.772   5.686  48.589  1.00  0.00     0.124 C 
HETATM   18  C14 UNL     1      33.613   5.558  47.325  1.00  0.00     0.021 C 
HETATM   19  C15 UNL     1      32.775   4.645  46.459  1.00  0.00     0.021 C 
HETATM   20  C16 UNL     1      31.590   4.349  47.320  1.00  0.00     0.124 C 
ENDBRANCH  12  16
ENDBRANCH   8  10
ENDBRANCH   4   8
BRANCH   1  21
HETATM   21  O1  UNL     1      24.199   2.279  52.333  1.00  0.00    -0.345 OA
BRANCH  21  22
HETATM   22  C5  UNL     1      23.264   1.280  51.999  1.00  0.00     0.214 C 
BRANCH  22  23
HETATM   23  C4  UNL     1      22.880   0.417  53.133  1.00  0.00    -0.035 A 
HETATM   24  C3  UNL     1      21.509   0.698  53.608  1.00  0.00     0.008 A 
HETATM   25  C2  UNL     1      21.222  -0.106  54.616  1.00  0.00     0.014 A 
HETATM   26  C1  UNL     1      22.359  -0.994  54.913  1.00  0.00     0.216 A 
HETATM   27  F1  UNL     1      21.944  -2.309  54.702  1.00  0.00    -0.241 F 
HETATM   28  C20 UNL     1      23.359  -0.570  53.903  1.00  0.00     0.023 A 
ENDBRANCH  22  23
ENDBRANCH  21  22
ENDBRANCH   1  21
TORSDOF 6
ENDMDL
MODEL 7
REMARK VINA RESULT:      -7.9      4.956      8.969
REMARK  6 active torsions:
REMARK  status: ('A' for Active; 'I' for Inactive)
REMARK    1  A    between atoms: C4_5  and  C5_6 
REMARK    2  A    between atoms: C5_6  and  O1_7 
REMARK    3  A    between atoms: O1_7  and  C6_8 
REMARK    4  A    between atoms: C9_11  and  N1_12 
REMARK    5  A    between atoms: N1_12  and  C10_13 
REMARK    6  A    between atoms: C12_15  and  N2_16 
ROOT
HETATM    1  C6  UNL     1      28.314   7.128  48.361  1.00  0.00     0.091 A 
HETATM    2  C7  UNL     1      27.039   7.398  48.752  1.00  0.00     0.041 A 
HETATM    3  C8  UNL     1      26.144   6.407  49.075  1.00  0.00     0.032 A 
HETATM    4  C9  UNL     1      26.478   5.063  49.026  1.00  0.00     0.035 A 
HETATM    5  C18 UNL     1      27.775   4.822  48.626  1.00  0.00     0.056 A 
HETATM    6  C19 UNL     1      28.702   5.786  48.295  1.00  0.00     0.069 A 
HETATM    7 CL1  UNL     1      30.336   5.324  47.798  1.00  0.00    -0.081 Cl
ENDROOT
BRANCH   4   8
HETATM    8  N1  UNL     1      25.525   4.068  49.366  1.00  0.00    -0.341 N 
HETATM    9  H8  UNL     1      25.095   3.570  48.550  1.00  0.00     0.167 HD
BRANCH   8  10
HETATM   10  C10 UNL     1      25.100   3.682  50.654  1.00  0.00     0.133 A 
HETATM   11  C11 UNL     1      25.693   2.594  51.253  1.00  0.00     0.100 A 
HETATM   12  C12 UNL     1      25.374   2.114  52.498  1.00  0.00     0.130 A 
HETATM   13  N3  UNL     1      24.415   2.753  53.183  1.00  0.00    -0.224 NA
HETATM   14  C17 UNL     1      23.795   3.835  52.639  1.00  0.00     0.237 A 
HETATM   15  N4  UNL     1      24.160   4.243  51.420  1.00  0.00    -0.224 NA
BRANCH  12  16
HETATM   16  N2  UNL     1      26.014   0.987  53.074  1.00  0.00    -0.366 N 
HETATM   17  C13 UNL     1      27.293   0.759  53.694  1.00  0.00     0.124 C 
HETATM   18  C14 UNL     1      27.821  -0.508  53.032  1.00  0.00     0.021 C 
HETATM   19  C15 UNL     1      26.552  -1.252  52.679  1.00  0.00     0.021 C 
HETATM   20  C16 UNL     1      25.475  -0.352  53.188  1.00  0.00     0.124 C 
ENDBRANCH  12  16
ENDBRANCH   8  10
ENDBRANCH   4   8
BRANCH   1  21
HETATM   21  O1  UNL     1      29.304   8.026  48.010  1.00  0.00    -0.345 OA
BRANCH  21  22
HETATM   22  C5  UNL     1      29.944   8.820  48.981  1.00  0.00     0.214 C 
BRANCH  22  23
HETATM   23  C4  UNL     1      29.524  10.235  48.967  1.00  0.00    -0.035 A 
HETATM   24  C3  UNL     1      30.672  11.159  49.086  1.00  0.00     0.008 A 
HETATM   25  C2  UNL     1      30.235  12.406  49.061  1.00  0.00     0.014 A 
HETATM   26  C1  UNL     1      28.768  12.439  48.924  1.00  0.00     0.216 A 
HETATM   27  F1  UNL     1      28.464  13.083  47.725  1.00  0.00    -0.241 F 
HETATM   28  C20 UNL     1      28.425  10.998  48.873  1.00  0.00     0.023 A 
ENDBRANCH  22  23
ENDBRANCH  21  22
ENDBRANCH   1  21
TORSDOF 6
ENDMDL
MODEL 8
REMARK VINA RESULT:      -7.7      1.488      1.983
REMARK  6 active torsions:
REMARK  status: ('A' for Active; 'I' for Inactive)
REMARK    1  A    between atoms: C4_5  and  C5_6 
REMARK    2  A    between atoms: C5_6  and  O1_7 
REMARK    3  A    between atoms: O1_7  and  C6_8 
REMARK    4  A    between atoms: C9_11  and  N1_12 
REMARK    5  A    between atoms: N1_12  and  C10_13 
REMARK    6  A    between atoms: C12_15  and  N2_16 
ROOT
HETATM    1  C6  UNL     1      24.995   4.382  50.253  1.00  0.00     0.091 A 
HETATM    2  C7  UNL     1      24.758   5.710  50.075  1.00  0.00     0.041 A 
HETATM    3  C8  UNL     1      25.619   6.522  49.377  1.00  0.00     0.032 A 
HETATM    4  C9  UNL     1      26.788   6.046  48.806  1.00  0.00     0.035 A 
HETATM    5  C18 UNL     1      27.000   4.698  49.005  1.00  0.00     0.056 A 
HETATM    6  C19 UNL     1      26.163   3.850  49.696  1.00  0.00     0.069 A 
HETATM    7 CL1  UNL     1      26.567   2.136  49.869  1.00  0.00    -0.081 Cl
ENDROOT
BRANCH   4   8
HETATM    8  N1  UNL     1      27.652   6.916  48.094  1.00  0.00    -0.341 N 
HETATM    9  H8  UNL     1      27.196   7.454  47.317  1.00  0.00     0.167 HD
BRANCH   8  10
HETATM   10  C10 UNL     1      29.029   7.135  48.307  1.00  0.00     0.133 A 
HETATM   11  C11 UNL     1      29.933   6.227  47.803  1.00  0.00     0.100 A 
HETATM   12  C12 UNL     1      31.295   6.319  47.938  1.00  0.00     0.130 A 
HETATM   13  N3  UNL     1      31.782   7.372  48.609  1.00  0.00    -0.224 NA
HETATM   14  C17 UNL     1      30.934   8.301  49.128  1.00  0.00     0.237 A 
HETATM   15  N4  UNL     1      29.618   8.141  48.956  1.00  0.00    -0.224 NA
BRANCH  12  16
HETATM   16  N2  UNL     1      32.187   5.357  47.400  1.00  0.00    -0.366 N 
HETATM   17  C13 UNL     1      33.090   5.332  46.280  1.00  0.00     0.124 C 
HETATM   18  C14 UNL     1      32.796   4.012  45.578  1.00  0.00     0.021 C 
HETATM   19  C15 UNL     1      32.329   3.128  46.713  1.00  0.00     0.021 C 
HETATM   20  C16 UNL     1      32.429   4.022  47.905  1.00  0.00     0.124 C 
ENDBRANCH  12  16
ENDBRANCH   8  10
ENDBRANCH   4   8
BRANCH   1  21
HETATM   21  O1  UNL     1      24.216   3.462  50.930  1.00  0.00    -0.345 OA
BRANCH  21  22
HETATM   22  C5  UNL     1      24.234   3.388  52.336  1.00  0.00     0.214 C 
BRANCH  22  23
HETATM   23  C4  UNL     1      24.619   2.063  52.859  1.00  0.00    -0.035 A 
HETATM   24  C3  UNL     1      25.896   2.107  53.603  1.00  0.00     0.008 A 
HETATM   25  C2  UNL     1      26.183   0.897  54.051  1.00  0.00     0.014 A 
HETATM   26  C1  UNL     1      25.139  -0.065  53.655  1.00  0.00     0.216 A 
HETATM   27  F1  UNL     1      24.558  -0.570  54.818  1.00  0.00    -0.241 F 
HETATM   28  C20 UNL     1      24.193   0.793  52.901  1.00  0.00     0.023 A 
ENDBRANCH  22  23
ENDBRANCH  21  22
ENDBRANCH   1  21
TORSDOF 6
ENDMDL
MODEL 9
REMARK VINA RESULT:      -7.6      3.968      8.267
REMARK  6 active torsions:
REMARK  status: ('A' for Active; 'I' for Inactive)
REMARK    1  A    between atoms: C4_5  and  C5_6 
REMARK    2  A    between atoms: C5_6  and  O1_7 
REMARK    3  A    between atoms: O1_7  and  C6_8 
REMARK    4  A    between atoms: C9_11  and  N1_12 
REMARK    5  A    between atoms: N1_12  and  C10_13 
REMARK    6  A    between atoms: C12_15  and  N2_16 
ROOT
HETATM    1  C6  UNL     1      28.677   6.861  48.288  1.00  0.00     0.091 A 
HETATM    2  C7  UNL     1      28.704   5.501  48.319  1.00  0.00     0.041 A 
HETATM    3  C8  UNL     1      27.601   4.753  48.651  1.00  0.00     0.032 A 
HETATM    4  C9  UNL     1      26.384   5.330  48.977  1.00  0.00     0.035 A 
HETATM    5  C18 UNL     1      26.389   6.708  48.937  1.00  0.00     0.056 A 
HETATM    6  C19 UNL     1      27.472   7.494  48.609  1.00  0.00     0.069 A 
HETATM    7 CL1  UNL     1      27.329   9.258  48.599  1.00  0.00    -0.081 Cl
ENDROOT
BRANCH   4   8
HETATM    8  N1  UNL     1      25.268   4.523  49.315  1.00  0.00    -0.341 N 
HETATM    9  H8  UNL     1      24.674   4.226  48.503  1.00  0.00     0.167 HD
BRANCH   8  10
HETATM   10  C10 UNL     1      24.872   4.085  50.596  1.00  0.00     0.133 A 
HETATM   11  C11 UNL     1      25.510   3.001  51.155  1.00  0.00     0.100 A 
HETATM   12  C12 UNL     1      25.225   2.474  52.389  1.00  0.00     0.130 A 
HETATM   13  N3  UNL     1      24.253   3.060  53.105  1.00  0.00    -0.224 NA
HETATM   14  C17 UNL     1      23.591   4.135  52.601  1.00  0.00     0.237 A 
HETATM   15  N4  UNL     1      23.925   4.591  51.389  1.00  0.00    -0.224 NA
BRANCH  12  16
HETATM   16  N2  UNL     1      25.910   1.354  52.923  1.00  0.00    -0.366 N 
HETATM   17  C13 UNL     1      27.265   0.874  52.858  1.00  0.00     0.124 C 
HETATM   18  C14 UNL     1      27.134  -0.606  52.517  1.00  0.00     0.021 C 
HETATM   19  C15 UNL     1      25.800  -0.971  53.130  1.00  0.00     0.021 C 
HETATM   20  C16 UNL     1      25.348   0.309  53.753  1.00  0.00     0.124 C 
ENDBRANCH  12  16
ENDBRANCH   8  10
ENDBRANCH   4   8
BRANCH   1  21
HETATM   21  O1  UNL     1      29.710   7.725  47.974  1.00  0.00    -0.345 OA
BRANCH  21  22
HETATM   22  C5  UNL     1      30.925   7.696  48.684  1.00  0.00     0.214 C 
BRANCH  22  23
HETATM   23  C4  UNL     1      31.988   6.917  48.018  1.00  0.00    -0.035 A 
HETATM   24  C3  UNL     1      32.799   6.144  48.981  1.00  0.00     0.008 A 
HETATM   25  C2  UNL     1      33.727   5.467  48.327  1.00  0.00     0.014 A 
HETATM   26  C1  UNL     1      33.628   5.717  46.878  1.00  0.00     0.216 A 
HETATM   27  F1  UNL     1      33.341   4.504  46.252  1.00  0.00    -0.241 F 
HETATM   28  C20 UNL     1      32.483   6.656  46.800  1.00  0.00     0.023 A 
ENDBRANCH  22  23
ENDBRANCH  21  22
ENDBRANCH   1  21
TORSDOF 6
ENDMDL
